data_mof_unit_32586.cif
_audit_creation_date              2012-12-10T20:35:46-0500
_audit_creation_method            fapswitch 2.2
_symmetry_space_group_name_H-M    P1
_symmetry_Int_Tables_number       1
_space_group_crystal_system       triclinic
_cell_length_a                    15.71679
_cell_length_b                    10.733589
_cell_length_c                    9.869396
_cell_angle_alpha                 90.073967
_cell_angle_beta                  89.566817
_cell_angle_gamma                 90.189875
_cell_volume                      1664.88500525

loop_
_atom_site_label
_atom_site_type_symbol
_atom_type_description
_atom_site_fract_x
_atom_site_fract_y
_atom_site_fract_z
_atom_type_partial_charge
C1    C     C_R   0.500034 0.260516 0.499857 0.879868
C2    C     C_3   0.951009 0.399659 0.585980 -0.017179
C3    C     C_3   0.916945 0.516932 0.508105 0.269598
C4    C     C_3   0.950601 0.641888 0.573911 0.009486
C5    C     C_3   0.050325 0.647073 0.560643 -0.067184
C6    C     C_1   0.825532 0.511934 0.502787 -0.062593
C7    C     C_1   0.174412 0.511163 0.505655 -0.081906
C8    C     C_1   0.249606 0.505545 0.502328 -0.158140
C9    C     C_R   0.501051 0.062422 0.618009 0.104843
C10   C     C_R   0.498909 0.129294 0.498412 -0.120435
C11   C     C_R   0.494982 0.064425 0.374622 -0.230249
C12   C     C_R   0.338340 0.500334 0.500561 0.916866
C13   C     C_R   0.494332 0.935253 0.374702 -0.225056
C14   C     C_R   0.496886 0.870680 0.498626 -0.120755
C15   C     C_R   0.498195 0.937876 0.618228 0.101462
C16   C     C_3   0.502410 0.928145 0.769546 -0.096520
C17   C     C_3   0.506259 0.072520 0.769243 -0.073033
C18   C     C_R   0.456923 0.409778 0.071998 0.154519
C19   C     C_R   0.549860 0.580421 0.071430 -0.109072
C20   C     C_R   0.550469 0.579614 0.927440 -0.129011
C21   C     C_R   0.454093 0.413184 0.929905 0.119314
C22   C     C_3   0.359538 0.392671 0.931774 0.091131
C23   C     C_R   0.499090 0.739478 0.499945 0.883288
C24   C     C_3   0.364721 0.380449 0.084838 -0.516719
C25   C     C_R   0.661649 0.500345 0.499577 0.903329
C26   C     C_3   0.048281 0.411852 0.603657 -0.423599
C27   C     C_3   0.050097 0.495937 0.363980 -0.448163
C28   C     C_3   0.952472 0.507158 0.360894 -0.493020
C29   C     C_1   0.750359 0.505894 0.499567 -0.207706
C30   C     C_3   0.082929 0.517035 0.510178 0.237084
H1    H     H_    0.942069 0.318854 0.516141 0.130658
H2    H     H_    0.065010 0.430830 0.710694 0.196634
H3    H     H_    0.492898 0.112507 0.278240 0.168881
H4    H     H_    0.492329 0.886935 0.278314 0.171011
H5    H     H_    0.561972 0.882681 0.803584 0.141043
H6    H     H_    0.449164 0.118190 0.813869 0.133419
H7    H     H_    0.588596 0.647317 0.125312 0.136815
H8    H     H_    0.078673 0.321347 0.576995 0.157466
H9    H     H_    0.589930 0.645534 0.872721 0.132136
H10   H     H_    0.340265 0.305006 0.880225 0.115497
H11   H     H_    0.328785 0.452544 0.142052 0.255502
H12   H     H_    0.353936 0.283621 0.121103 0.163514
H13   H     H_    0.078727 0.565301 0.293124 0.187142
H14   H     H_    0.069112 0.401772 0.327433 0.191248
H15   H     H_    0.925536 0.424112 0.308499 0.180699
H16   H     H_    0.934440 0.588858 0.298783 0.183384
H17   H     H_    0.068884 0.715368 0.480667 0.156323
H18   H     H_    0.935303 0.639243 0.683040 0.190777
N1    N     N_R   0.499430 0.499140 0.142800 -0.088897
N2    N     N_R   0.499430 0.499180 0.857150 -0.088550
O1    O     O_R   0.500010 0.316790 0.614690 -0.630072
O2    O     O_R   0.500000 0.316760 0.385350 -0.625067
O3    O     O_R   0.377150 0.500020 0.614720 -0.563782
O4    O     O_R   0.377140 0.499990 0.385380 -0.626441
O5    O     O_R   0.500000 0.683240 0.614650 -0.621675
O6    O     O_R   0.499990 0.683210 0.385310 -0.627218
O7    O     O_R   0.622860 0.500010 0.614620 -0.619835
O8    O     O_R   0.622850 0.499980 0.385280 -0.615335
Zn1   Zn    Zn3+2 0.500010 0.500020 0.653130 0.957106
Zn2   Zn    Zn3+2 0.499990 0.499980 0.346870 0.945325
C31   C     C_3   0.903441 0.355252 0.716366 -0.406539
C32   C     C_3   0.893422 0.450254 0.830612 -0.869579
H19   H     H_    0.955183 0.494008 0.856491 0.248571
H20   H     H_    0.845887 0.521944 0.803133 0.257422
H21   H     H_    0.868994 0.402091 0.922576 0.247479
H22   H     H_    0.838957 0.321262 0.688673 0.209877
H23   H     H_    0.937728 0.273211 0.757323 0.208208
C33   C     C_3   0.908082 0.762584 0.517179 -0.413488
C34   C     C_3   0.833661 0.808190 0.605185 -0.921090
H24   H     H_    0.782880 0.736767 0.613066 0.268793
H25   H     H_    0.855734 0.831752 0.708673 0.251796
H26   H     H_    0.806004 0.893297 0.559520 0.256166
H27   H     H_    0.954697 0.840394 0.511882 0.217984
H28   H     H_    0.884660 0.748854 0.412649 0.212160
C35   C     C_3   0.422593 0.872034 0.839460 -0.366070
C36   C     C_3   0.337570 0.901120 0.771346 -0.802988
H29   H     H_    0.327311 0.003035 0.763590 0.232698
H30   H     H_    0.335141 0.858814 0.668717 0.259471
H31   H     H_    0.284833 0.860663 0.832680 0.263169
H32   H     H_    0.429672 0.769277 0.843306 0.260260
H33   H     H_    0.420226 0.905652 0.945954 0.194490
C37   C     C_3   0.590001 0.128677 0.824351 -0.379941
C38   C     C_3   0.670453 0.098379 0.741889 -0.857562
H34   H     H_    0.680005 0.996346 0.733161 0.249375
H35   H     H_    0.666859 0.139662 0.639016 0.255431
H36   H     H_    0.726701 0.139019 0.793301 0.240299
H37   H     H_    0.583462 0.231565 0.828897 0.227100
H38   H     H_    0.598621 0.095788 0.930054 0.194152
Br1   Br    Br    0.293312 0.539248 0.884112 -0.574122
C39   C     C_3   0.093416 0.691586 0.694218 -0.385525
C40   C     C_3   0.074451 0.827636 0.728210 -0.914517
H39   H     H_    0.091794 0.888879 0.641657 0.255306
H40   H     H_    0.006308 0.839914 0.754315 0.267360
H41   H     H_    0.112494 0.856459 0.817331 0.261305
H42   H     H_    0.073260 0.632894 0.781212 0.220025
H43   H     H_    0.163617 0.684034 0.684947 0.254367

loop_
_geom_bond_atom_site_label_1
_geom_bond_atom_site_label_2
_ccdc_geom_bond_type
C26   H2    S    
O5    Zn1   S    
C16   C35   S    
C24   H12   S    
C19   C20   A    
C36   H31   S    
C3    C6    S    
O3    Zn1   S    
C7    C8    T    
O4    Zn2   S    
C5    H17   S    
C28   H16   S    
N1    Zn2   S    
C18   C24   S    
N2    Zn1   S    
C3    C28   S    
C36   H30   S    
C16   H5    S    
C4    H18   S    
O7    Zn1   S    
C33   H28   S    
C37   H37   S    
C18   C21   A    
C17   C37   S    
C34   H25   S    
C31   H23   S    
C32   H20   S    
C19   H7    S    
C27   H14   S    
C33   C34   S    
C20   N2    A    
C17   H6    S    
O2    Zn2   S    
C35   H32   S    
C5    C39   S    
C2    C31   S    
C7    C30   S    
C13   C14   A    
C27   C30   S    
C24   H11   S    
C31   C32   S    
C25   O7    A    
C31   H22   S    
C21   N2    A    
C25   C29   S    
C28   H15   S    
C11   H3    S    
C36   H29   S    
C40   H39   S    
C4    C33   S    
C20   H9    S    
C35   H33   S    
C33   H27   S    
O6    Zn2   S    
C2    H1    S    
C14   C23   S    
C34   H26   S    
C35   C36   S    
C32   H19   S    
C40   H40   S    
C19   N1    A    
C38   H34   S    
C8    C12   S    
C22   H10   S    
C38   H36   S    
C2    C26   S    
C23   O5    A    
C1    O1    A    
C23   O6    A    
C9    C17   S    
C38   H35   S    
C26   C30   S    
C22   C24   S    
O1    Zn1   S    
C25   O8    A    
C3    C4    S    
C5    C30   S    
C9    C10   A    
C32   H21   S    
C26   H8    S    
C1    C10   S    
C12   O3    A    
C4    C5    S    
C39   H42   S    
C39   H43   S    
C2    C3    S    
C9    C15   A    
C13   H4    S    
C40   H41   S    
C11   C13   A    
C39   C40   S    
C16   C17   S    
C37   H38   S    
C22   Br1   S    
C34   H24   S    
C1    O2    A    
C10   C11   A    
C27   H13   S    
C6    C29   T    
C37   C38   S    
C27   C28   S    
C14   C15   A    
C21   C22   S    
O8    Zn2   S    
C12   O4    A    
C15   C16   S    
C18   N1    A    
