data_mof_unit_60113.cif
_audit_creation_date              2012-12-10T20:10:35-0500
_audit_creation_method            fapswitch 2.2
_symmetry_space_group_name_H-M    P1
_symmetry_Int_Tables_number       1
_space_group_crystal_system       triclinic
_cell_length_a                    19.334091
_cell_length_b                    18.477437
_cell_length_c                    11.554789
_cell_angle_alpha                 90.000779
_cell_angle_beta                  90.847814
_cell_angle_gamma                 90.011961
_cell_volume                      4127.43222895

loop_
_atom_site_label
_atom_site_type_symbol
_atom_type_description
_atom_site_fract_x
_atom_site_fract_y
_atom_site_fract_z
_atom_type_partial_charge
Br1   Br    Br    0.370978 0.909681 0.623053 -0.409538
Br2   Br    Br    0.629021 0.090318 0.376945 -0.409537
Br3   Br    Br    0.629024 0.909738 0.376951 -0.410073
Br4   Br    Br    0.370976 0.090262 0.623050 -0.410072
C1    C     C_R   0.365672 0.499991 0.499644 0.872553
C2    C     C_R   0.455690 0.197123 0.425911 -0.217317
C3    C     C_R   0.455693 0.802858 0.425912 -0.217442
C4    C     C_R   0.544307 0.197142 0.574086 -0.217443
C5    C     C_R   0.500002 0.841777 0.500001 0.210477
C6    C     C_R   0.499998 0.158223 0.499999 0.210477
C7    C     C_R   0.445244 0.961695 0.550623 0.223599
C8    C     C_R   0.554756 0.038305 0.449377 0.223599
C9    C     C_R   0.554757 0.961719 0.449379 0.223611
C10   C     C_R   0.445243 0.038281 0.550621 0.223611
C11   C     C_R   0.499999 0.077117 0.499998 -0.154445
C12   C     C_R   0.634328 0.500008 0.500356 0.872552
C13   C     C_R   0.500001 0.922883 0.500002 -0.154446
C14   C     C_R   0.499878 0.499999 0.281668 0.919788
C15   C     C_R   0.500122 0.500000 0.718332 0.919788
C16   C     C_1   0.499874 0.499999 0.161338 -0.158612
C17   C     C_1   0.500126 0.500001 0.838662 -0.158612
C18   C     C_1   0.499939 0.499999 0.059268 0.024780
C19   C     C_1   0.500060 0.500000 0.940732 0.024780
C20   C     C_R   0.745601 0.434262 0.501299 -0.163286
C21   C     C_R   0.254399 0.565738 0.498706 -0.163287
C22   C     C_R   0.254423 0.434157 0.498589 -0.163459
C23   C     C_R   0.071744 0.499874 0.499059 0.100358
C24   C     C_R   0.745576 0.565843 0.501411 -0.163461
C25   C     C_R   0.817234 0.434335 0.501637 -0.160465
C26   C     C_R   0.182766 0.565665 0.498371 -0.160464
C27   C     C_R   0.182792 0.434166 0.498321 -0.160723
C28   C     C_R   0.817207 0.565834 0.501681 -0.160724
C29   C     C_R   0.853146 0.500102 0.501633 0.102770
C30   C     C_R   0.146854 0.499898 0.498372 0.102769
C31   C     C_R   0.709445 0.500036 0.501044 -0.042438
C32   C     C_R   0.290555 0.499964 0.498957 -0.042439
C33   C     C_R   0.963228 0.544607 0.423039 -0.167574
C34   C     C_R   0.928256 0.500126 0.500948 0.100359
C35   C     C_R   0.036771 0.455393 0.576968 -0.167575
C36   C     C_R   0.034855 0.544484 0.422101 -0.167016
C37   C     C_R   0.965145 0.455516 0.577906 -0.167016
C38   C     C_1   0.589867 0.688551 0.650294 0.243385
C39   C     C_1   0.410131 0.311449 0.349708 0.243385
C40   C     C_1   0.410126 0.688514 0.349713 0.243271
C41   C     C_1   0.589875 0.311486 0.650285 0.243270
C42   C     C_R   0.543706 0.726693 0.573018 0.097633
C43   C     C_R   0.456293 0.273307 0.426983 0.097633
C44   C     C_R   0.456294 0.726674 0.426983 0.097935
C45   C     C_R   0.543707 0.273326 0.573016 0.097935
C46   C     C_R   0.544309 0.802877 0.574090 -0.217317
H1    H     H_    0.718694 0.382839 0.500793 0.170939
H2    H     H_    0.064897 0.421389 0.637819 0.145214
H3    H     H_    0.061463 0.578434 0.360608 0.145158
H4    H     H_    0.938537 0.421566 0.639399 0.145158
H5    H     H_    0.579043 0.831761 0.632362 0.166427
H6    H     H_    0.420956 0.168239 0.367640 0.166428
H7    H     H_    0.420959 0.831727 0.367642 0.166340
H8    H     H_    0.579042 0.168273 0.632356 0.166340
H9    H     H_    0.281306 0.617162 0.499214 0.170939
H10   H     H_    0.281343 0.382756 0.498493 0.170921
H11   H     H_    0.718657 0.617244 0.501504 0.170921
H12   H     H_    0.844614 0.383195 0.500434 0.147147
H13   H     H_    0.155386 0.616806 0.499576 0.147147
H14   H     H_    0.155407 0.383003 0.497124 0.147211
H15   H     H_    0.844593 0.616997 0.502876 0.147211
H16   H     H_    0.935103 0.578611 0.362187 0.145214
N1    N     N_R   0.500000 0.689440 0.500000 -0.133514
N2    N     N_R   0.500000 0.310560 0.500000 -0.133514
N3    N     N_1   0.627160 0.658227 0.712774 -0.198538
N4    N     N_1   0.372837 0.341773 0.287230 -0.198539
N5    N     N_1   0.372827 0.658176 0.287240 -0.199506
N6    N     N_1   0.627174 0.341824 0.712757 -0.199507
O1    O     O_R   0.398180 0.560840 0.499970 -0.624879
O2    O     O_R   0.601820 0.439160 0.500030 -0.624880
O3    O     O_R   0.601820 0.560840 0.500030 -0.625043
O4    O     O_R   0.398180 0.439160 0.499970 -0.625043
O5    O     O_R   0.500010 0.560810 0.334440 -0.612170
O6    O     O_R   0.499990 0.439190 0.665560 -0.612170
O7    O     O_R   0.499990 0.560810 0.665560 -0.612113
O8    O     O_R   0.500010 0.439190 0.334440 -0.612113
Zn1   Zn    Zn3+2 0.500000 0.581210 0.500000 0.978639
Zn2   Zn    Zn3+2 0.500000 0.418790 0.500000 0.978639

loop_
_geom_bond_atom_site_label_1
_geom_bond_atom_site_label_2
_ccdc_geom_bond_type
C45   N2    A    
C12   O3    A    
Br1   C7    S    
Br2   C8    S    
C35   C37   A    
C12   O2    A    
C15   C17   S    
C33   C36   A    
C6    C11   S    
C12   C31   S    
C7    C10   A    
C1    C32   S    
C25   C29   A    
C40   N5    T    
C38   C42   S    
C20   C25   A    
C4    H8    S    
C24   C31   A    
C23   C35   A    
O5    Zn1   S    
Br3   C9    S    
C24   H11   S    
C20   H1    S    
C35   H2    S    
C22   C27   A    
C26   H13   S    
C41   N6    T    
Br4   C10   S    
O2    Zn2   S    
O1    Zn1   S    
C23   C30   S    
C20   C31   A    
C2    C43   A    
C26   C30   A    
C24   C28   A    
C34   C37   A    
O8    Zn2   S    
O4    Zn2   S    
O7    Zn1   S    
O3    Zn1   S    
C38   N3    T    
C15   O6    A    
C33   C34   A    
O6    Zn2   S    
C8    C11   A    
C41   C45   S    
C23   C36   A    
C33   H16   S    
C27   C30   A    
C15   O7    A    
C5    C13   S    
C16   C18   T    
N1    Zn1   S    
C39   N4    T    
C17   C19   T    
C43   N2    A    
C22   C32   A    
C21   C26   A    
C3    C5    A    
C25   H12   S    
C7    C13   A    
C10   C11   A    
C27   H14   S    
C4    C6    A    
C5    C46   A    
C46   H5    S    
C2    H6    S    
C2    C6    A    
C42   C46   A    
C29   C34   S    
C9    C13   A    
N2    Zn2   S    
C28   C29   A    
C1    O4    A    
C42   N1    A    
C3    C44   A    
C39   C43   S    
C14   O5    A    
C14   C16   S    
C44   N1    A    
C1    O1    A    
C37   H4    S    
C21   C32   A    
C8    C9    A    
C14   O8    A    
C36   H3    S    
C18   C19   S    
C21   H9    S    
C22   H10   S    
C4    C45   A    
C3    H7    S    
C40   C44   S    
C28   H15   S    
