data_mof_unit_51000.cif
_audit_creation_date              2012-12-10T19:34:15-0500
_audit_creation_method            fapswitch 2.2
_symmetry_space_group_name_H-M    P1
_symmetry_Int_Tables_number       1
_space_group_crystal_system       triclinic
_cell_length_a                    13.144948
_cell_length_b                    15.887004
_cell_length_c                    17.134751
_cell_angle_alpha                 94.865214
_cell_angle_beta                  93.502019
_cell_angle_gamma                 85.436589
_cell_volume                      3548.79808611

loop_
_atom_site_label
_atom_site_type_symbol
_atom_type_description
_atom_site_fract_x
_atom_site_fract_y
_atom_site_fract_z
_atom_type_partial_charge
C1    C     C_R   0.501045 0.490362 0.348510 0.881988
C2    C     C_R   0.493061 0.510159 0.651012 0.874667
C3    C     C_R   0.511089 0.561566 0.144315 0.384299
C4    C     C_R   0.490319 0.451061 0.861164 0.385205
C5    C     C_R   0.449935 0.503000 0.099823 0.097595
C6    C     C_R   0.480131 0.531933 0.901247 0.114171
C7    C     C_R   0.408886 0.438825 0.137695 -0.013522
C8    C     C_R   0.460127 0.604614 0.859829 -0.035326
C9    C     C_R   0.439352 0.427215 0.216491 0.386649
C10   C     C_R   0.454927 0.596328 0.777338 0.387345
C11   C     C_R   0.443216 0.746519 0.455270 0.544906
C12   C     C_R   0.566045 0.252923 0.537394 0.546300
C13   C     C_R   0.428408 0.835548 0.451193 0.287625
C14   C     C_R   0.587133 0.163717 0.534898 0.262895
C15   C     C_R   0.488597 0.889085 0.499527 0.205510
C16   C     C_R   0.516852 0.110561 0.496665 0.192027
C17   C     C_R   0.563330 0.852295 0.550957 -0.382875
C18   C     C_R   0.430682 0.148202 0.456441 -0.364792
C19   C     C_R   0.573672 0.763310 0.556971 0.219408
C20   C     C_R   0.419253 0.237366 0.449946 0.188171
C21   C     C_R   0.300998 0.516809 0.503531 0.797944
C22   C     C_R   0.698902 0.483345 0.496260 0.829572
C23   C     C_R   0.812343 0.473269 0.491380 -0.202006
C24   C     C_R   0.188105 0.527982 0.512075 -0.267385
C25   C     C_R   0.029959 0.611706 0.539854 0.202577
C26   C     C_R   0.975477 0.389365 0.470616 0.128992
C27   C     C_R   0.131768 0.608637 0.516622 0.020770
C28   C     C_R   0.866615 0.394361 0.467658 0.043224
C29   C     C_R   0.134116 0.455811 0.518676 0.454772
C30   C     C_R   0.867436 0.546573 0.507843 0.403510
C31   C     C_R   0.027693 0.460684 0.501937 -0.113465
C32   C     C_R   0.974209 0.539681 0.517862 -0.134839
C33   C     C_R   0.494546 0.488380 0.261769 -0.358913
C34   C     C_R   0.476139 0.516093 0.736521 -0.360271
C35   C     C_R   0.536664 0.551621 0.223945 0.284242
C36   C     C_R   0.481918 0.442751 0.778775 0.299317
Cu1   Cu    Cu3+1 0.494970 0.415610 0.496200 0.989047
Cu2   Cu    Cu3+1 0.505030 0.584390 0.503800 0.996936
H1    H     H_    0.609942 0.893009 0.589144 0.180933
H2    H     H_    0.375296 0.107626 0.427824 0.200223
N1    N     N_2   0.432779 0.502951 0.016894 -0.206928
N2    N     N_2   0.495550 0.540440 0.983721 -0.106451
N3    N     N_R   0.512580 0.711160 0.509520 -0.247306
N4    N     N_R   0.487420 0.288840 0.490480 -0.253379
N5    N     N_2   0.464309 0.978785 0.500802 -0.193519
N6    N     N_2   0.539748 0.020539 0.495343 -0.197074
O1    O     O_R   0.495300 0.420890 0.382510 -0.576550
O2    O     O_R   0.504700 0.579110 0.617490 -0.554197
O3    O     O_R   0.503790 0.563430 0.388930 -0.516032
O4    O     O_R   0.496210 0.436570 0.611070 -0.515051
O5    O     O_R   0.345440 0.440310 0.497300 -0.565644
O6    O     O_R   0.654560 0.559690 0.502700 -0.561223
O7    O     O_R   0.353930 0.582840 0.503720 -0.564118
O8    O     O_R   0.646070 0.417160 0.496280 -0.542004
O9    O     O_3   0.817042 0.626494 0.513481 -0.606660
C37   C     C_3   0.809697 0.658990 0.439114 -0.333533
H3    H     H_    0.787060 0.727829 0.446723 0.180221
H4    H     H_    0.749042 0.628836 0.401601 0.214445
H5    H     H_    0.883338 0.651093 0.409484 0.142355
O10   O     O_3   0.184396 0.382934 0.544919 -0.582014
C38   C     C_3   0.152129 0.371770 0.620302 -0.370995
H6    H     H_    0.169786 0.426452 0.662663 0.147667
H7    H     H_    0.069312 0.361658 0.619224 0.185356
H8    H     H_    0.193554 0.313871 0.641564 0.173487
C39   C     C_3   0.653026 0.728759 0.615771 -0.263688
C40   C     C_3   0.637398 0.767880 0.699205 -0.869635
H9    H     H_    0.555639 0.772096 0.712340 0.310637
H10   H     H_    0.682050 0.728540 0.741736 0.239601
H11   H     H_    0.664736 0.832559 0.706995 0.226809
H12   H     H_    0.652968 0.659461 0.615966 0.260905
H13   H     H_    0.729702 0.743329 0.599362 0.205346
C41   C     C_3   0.328255 0.276164 0.404264 -0.281163
C42   C     C_3   0.282346 0.218551 0.337143 -0.898354
H14   H     H_    0.342644 0.185345 0.300952 0.261505
H15   H     H_    0.237265 0.171097 0.360620 0.246660
H16   H     H_    0.229628 0.257285 0.298894 0.254338
H17   H     H_    0.269020 0.294630 0.446094 0.241184
H18   H     H_    0.348751 0.334038 0.379600 0.272297
C43   C     C_3   0.810240 0.317671 0.433459 -0.321176
C44   C     C_3   0.760410 0.331412 0.352227 -0.864315
H19   H     H_    0.702323 0.385869 0.354272 0.249920
H20   H     H_    0.819190 0.343279 0.311413 0.235633
H21   H     H_    0.722739 0.273630 0.329069 0.235373
H22   H     H_    0.860178 0.258655 0.427118 0.209334
H23   H     H_    0.754848 0.300007 0.473724 0.256211
C45   C     C_3   0.176358 0.685886 0.489085 -0.288417
C46   C     C_3   0.101537 0.760538 0.468334 -0.855956
H24   H     H_    0.031351 0.738313 0.436483 0.239969
H25   H     H_    0.082472 0.802087 0.521459 0.252305
H26   H     H_    0.138507 0.800090 0.429424 0.271294
H27   H     H_    0.236341 0.709080 0.532229 0.221095
H28   H     H_    0.210554 0.663597 0.432894 0.251149
C47   C     C_3   0.987789 0.682024 0.598256 -0.286544
C48   C     C_3   0.065556 0.706516 0.664664 -0.925094
H29   H     H_    0.098680 0.649154 0.692589 0.246474
H30   H     H_    0.127616 0.739821 0.642864 0.258330
H31   H     H_    0.027092 0.749991 0.709830 0.245197
H32   H     H_    0.956583 0.738368 0.568346 0.211912
H33   H     H_    0.923536 0.659627 0.628150 0.222068
C49   C     C_3   0.034859 0.314941 0.427155 -0.330690
C50   C     C_3   0.053844 0.236836 0.474515 -0.804117
H34   H     H_    0.129531 0.236112 0.506651 0.276925
H35   H     H_    0.994543 0.234468 0.517587 0.242179
H36   H     H_    0.053520 0.178470 0.433995 0.228450
H37   H     H_    0.993934 0.297539 0.370183 0.180320
H38   H     H_    0.108161 0.334002 0.408533 0.205281
O11   O     O_3   0.488802 0.362506 0.740924 -0.556332
C51   C     C_3   0.389676 0.340768 0.714604 -0.308072
H39   H     H_    0.354257 0.383933 0.671354 0.200597
H40   H     H_    0.338309 0.341168 0.763799 0.118581
H41   H     H_    0.395399 0.275768 0.685084 0.172768
O12   O     O_3   0.604094 0.604262 0.264462 -0.556828
C52   C     C_3   0.704603 0.571881 0.248560 -0.291958
H42   H     H_    0.727063 0.516235 0.282693 0.136129
H43   H     H_    0.757654 0.621688 0.266645 0.166143
H44   H     H_    0.714941 0.554445 0.185011 0.187521
O13   O     O_3   0.526012 0.382717 0.903058 -0.536009
C53   C     C_3   0.449168 0.326089 0.905820 -0.251549
H45   H     H_    0.370088 0.357131 0.902759 0.112262
H46   H     H_    0.459975 0.296304 0.962276 0.159837
H47   H     H_    0.457961 0.274327 0.858501 0.189769
O14   O     O_3   0.550456 0.626565 0.109529 -0.534631
C54   C     C_3   0.488202 0.701768 0.125432 -0.299005
H48   H     H_    0.405595 0.692891 0.111573 0.129262
H49   H     H_    0.510224 0.750343 0.088223 0.180844
H50   H     H_    0.501175 0.727086 0.187180 0.173848
C55   C     C_3   0.331733 0.382159 0.095189 -0.305550
C56   C     C_3   0.227016 0.398676 0.130000 -0.827402
H51   H     H_    0.230360 0.382617 0.191935 0.277139
H52   H     H_    0.199336 0.466329 0.127169 0.239447
H53   H     H_    0.171459 0.358895 0.095886 0.226432
H54   H     H_    0.320603 0.392893 0.032197 0.198298
H55   H     H_    0.358635 0.314503 0.098240 0.199225
C57   C     C_3   0.448158 0.691522 0.903535 -0.309174
C58   C     C_3   0.551755 0.728144 0.920375 -0.784874
H56   H     H_    0.602593 0.686876 0.957644 0.278963
H57   H     H_    0.588580 0.733903 0.864708 0.255701
H58   H     H_    0.541292 0.792112 0.951591 0.215873
H59   H     H_    0.397534 0.735996 0.869409 0.213125
H60   H     H_    0.410721 0.688073 0.959407 0.199128
O15   O     O_3   0.415389 0.355128 0.248973 -0.563503
C59   C     C_3   0.497862 0.293084 0.238704 -0.280669
H61   H     H_    0.573818 0.319140 0.251338 0.151743
H62   H     H_    0.494177 0.261823 0.178253 0.142992
H63   H     H_    0.493025 0.243977 0.280198 0.186353
O16   O     O_3   0.434219 0.668097 0.737132 -0.554079
C60   C     C_3   0.329785 0.673672 0.712356 -0.313060
H64   H     H_    0.280211 0.679412 0.763207 0.141588
H65   H     H_    0.309876 0.618633 0.671275 0.157684
H66   H     H_    0.313535 0.731556 0.680466 0.184578
O17   O     O_3   0.630195 0.306736 0.581228 -0.548988
C61   C     C_3   0.662721 0.280979 0.656128 -0.177768
H67   H     H_    0.739734 0.247154 0.654003 0.167175
H68   H     H_    0.607560 0.242508 0.681271 0.167029
H69   H     H_    0.671924 0.338528 0.696504 0.194493
O18   O     O_3   0.379083 0.693970 0.410640 -0.555790
C62   C     C_3   0.379308 0.704129 0.329569 -0.260435
H70   H     H_    0.453538 0.723331 0.312014 0.162114
H71   H     H_    0.314708 0.748628 0.311418 0.183412
H72   H     H_    0.364976 0.642676 0.296805 0.158312
O19   O     O_3   0.682853 0.130856 0.561724 -0.574867
C63   C     C_3   0.675864 0.077376 0.622911 -0.310976
H73   H     H_    0.699298 0.011382 0.601521 0.193242
H74   H     H_    0.599001 0.080273 0.647720 0.144498
H75   H     H_    0.731272 0.095568 0.671662 0.158443
O20   O     O_3   0.347445 0.869443 0.405117 -0.566190
C64   C     C_3   0.384629 0.907728 0.341894 -0.330152
H76   H     H_    0.456670 0.875081 0.319667 0.131389
H77   H     H_    0.395987 0.975311 0.358322 0.196554
H78   H     H_    0.326096 0.905551 0.292458 0.167543

loop_
_geom_bond_atom_site_label_1
_geom_bond_atom_site_label_2
_ccdc_geom_bond_type
C58   H58   S    
C40   H10   S    
C46   H24   S    
C4    C36   A    
C25   C47   S    
C47   C48   S    
C38   H8    S    
C42   H14   S    
C60   H64   S    
C12   O17   S    
C24   C27   A    
C43   H23   S    
O9    C37   S    
C56   H51   S    
O19   C63   S    
C1    C33   S    
C58   H56   S    
C64   H77   S    
Cu2   O3    S    
N5    N6    D    
C51   H39   S    
C49   H37   S    
C50   H34   S    
O18   C62   S    
C60   H65   S    
C52   H42   S    
C45   H27   S    
C57   H60   S    
C43   H22   S    
Cu1   O5    S    
C54   H49   S    
C40   H11   S    
Cu2   O6    S    
C39   H12   S    
C37   H3    S    
C18   C20   A    
C58   H57   S    
N1    N2    D    
C38   H7    S    
C28   C43   S    
C17   H1    S    
C53   H45   S    
C41   H18   S    
C2    O4    A    
C41   H17   S    
C17   C19   A    
C24   C29   A    
C62   H70   S    
C51   H40   S    
O17   C61   S    
C61   H69   S    
C11   N3    A    
Cu1   O1    S    
C47   H33   S    
Cu2   O2    S    
C3    O14   S    
C41   C42   S    
C52   H44   S    
C2    C34   S    
C25   C32   A    
C40   H9    S    
C26   C31   A    
C62   H71   S    
C36   O11   S    
C9    C33   A    
C42   H15   S    
C59   H63   S    
C38   H6    S    
C57   H59   S    
C44   H21   S    
O12   C52   S    
C20   N4    A    
C19   N3    A    
C64   H78   S    
C63   H74   S    
O16   C60   S    
C8    C57   S    
C23   C30   A    
C54   H48   S    
C60   H66   S    
C4    C6    A    
C16   N6    S    
C64   H76   S    
C5    C7    A    
C9    O15   S    
C45   C46   S    
C1    O1    A    
C54   H50   S    
C6    C8    A    
C48   H31   S    
C2    O2    A    
C39   H13   S    
O10   C38   S    
C53   H47   S    
C27   C45   S    
Cu1   Cu2   S    
C21   O7    A    
C63   H75   S    
C31   C32   A    
C29   O10   S    
C3    C35   A    
O11   C51   S    
C10   C34   A    
C23   C28   A    
C48   H30   S    
C55   H54   S    
C11   O18   S    
C10   O16   S    
Cu1   O8    S    
C8    C10   A    
C61   H68   S    
C62   H72   S    
C22   O8    A    
C13   C15   A    
O20   C64   S    
C42   H16   S    
C14   C16   A    
C4    O13   S    
C46   H26   S    
C15   N5    S    
C55   C56   S    
C56   H53   S    
C21   O5    A    
C22   O6    A    
C63   H73   S    
C50   H35   S    
C15   C17   A    
C5    N1    S    
C59   H61   S    
C26   C28   A    
C20   C41   S    
C55   H55   S    
C12   C14   A    
C44   H19   S    
C3    C5    A    
C56   H52   S    
C37   H5    S    
C57   C58   S    
C25   C27   A    
C30   O9    S    
C49   H38   S    
C51   H41   S    
Cu1   N4    S    
C46   H25   S    
Cu2   N3    S    
C29   C31   A    
C45   H28   S    
O13   C53   S    
C30   C32   A    
Cu1   O4    S    
C11   C13   A    
C13   O20   S    
Cu2   O7    S    
C14   O19   S    
C49   C50   S    
C33   C35   A    
C44   H20   S    
C37   H4    S    
C19   C39   S    
C59   H62   S    
C48   H29   S    
C53   H46   S    
C43   C44   S    
C7    C9    A    
C18   H2    S    
C61   H67   S    
C34   C36   A    
C16   C18   A    
C39   C40   S    
C6    N2    S    
C21   C24   S    
C22   C23   S    
C12   N4    A    
C50   H36   S    
C7    C55   S    
O14   C54   S    
O15   C59   S    
C1    O3    A    
C47   H32   S    
C35   O12   S    
C26   C49   S    
C52   H43   S    
