data_mof_unit_43016.cif
_audit_creation_date              2012-12-11T15:40:27-0500
_audit_creation_method            fapswitch 2.2
_symmetry_space_group_name_H-M    P1
_symmetry_Int_Tables_number       1
_space_group_crystal_system       triclinic
_cell_length_a                    6.982099
_cell_length_b                    18.838475
_cell_length_c                    20.683857
_cell_angle_alpha                 107.207507
_cell_angle_beta                  89.271707
_cell_angle_gamma                 90.830637
_cell_volume                      2598.44225708

loop_
_atom_site_label
_atom_site_type_symbol
_atom_type_description
_atom_site_fract_x
_atom_site_fract_y
_atom_site_fract_z
_atom_type_partial_charge
O1    O     O_R   0.494330 0.423860 0.422200 -0.532386
O2    O     O_R   0.819690 0.434890 0.556180 -0.531628
O3    O     O_R   0.994310 0.576140 0.577800 -0.533523
C1    C     C_R   0.649998 0.420735 0.576393 0.728434
O4    O     O_R   0.823770 0.415220 0.421380 -0.534751
O5    O     O_R   0.998410 0.556340 0.442040 -0.539137
C2    C     C_R   0.655035 0.393885 0.395514 0.725649
O6    O     O_R   0.490230 0.443660 0.557960 -0.535246
O7    O     O_3   0.662220 0.546320 0.506940 -0.372215
V1    V     V_3+5 0.935390 0.491410 0.498710 1.449725
O8    O     O_R   0.328380 0.565110 0.443820 -0.539457
C3    C     C_R   0.161302 0.579224 0.423504 0.720913
O9    O     O_R   0.324310 0.584780 0.578620 -0.536509
C4    C     C_R   0.155313 0.606161 0.604459 0.722346
V2    V     V_3+5 0.435920 0.508590 0.501290 1.433862
O10   O     O_3   0.159220 0.453680 0.493060 -0.363213
C5    C     C_1   0.145008 0.668254 0.666823 -0.190417
C6    C     C_1   0.134410 0.719732 0.719138 0.010287
C7    C     C_1   0.121131 0.780198 0.780823 0.010706
C8    C     C_1   0.110490 0.831683 0.833131 -0.187292
C9    C     C_3   0.200689 0.789737 0.307053 0.318844
C10   C     C_3   0.010014 0.808277 0.277561 -0.351037
H1    H     H_    0.915856 0.856095 0.301124 0.129536
C11   C     C_1   0.097994 0.874556 0.121502 -0.160004
C12   C     C_1   0.157151 0.624222 0.377431 -0.214593
C13   C     C_3   0.302150 0.773879 0.237412 -0.166584
C14   C     C_3   0.111619 0.790988 0.207126 -0.056523
C15   C     C_3   0.241045 0.691365 0.220587 0.272708
C16   C     C_3   0.142577 0.706785 0.290900 -0.076230
C17   C     C_3   0.050933 0.708271 0.191014 0.365975
C18   C     C_3   0.954048 0.724886 0.260957 0.332798
C19   C     C_1   0.101745 0.836669 0.159875 0.111968
C20   C     C_1   0.153043 0.661356 0.338396 0.065306
C21   C     C_3   0.503790 0.194227 0.729308 -0.187524
C22   C     C_3   0.682156 0.208629 0.689620 -0.063647
H2    H     H_    0.405048 0.145996 0.710843 0.141857
C23   C     C_1   0.639989 0.375398 0.622091 -0.155492
C24   C     C_1   0.615741 0.125768 0.878974 -0.129023
C25   C     C_3   0.453915 0.278493 0.747489 -0.247202
C26   C     C_3   0.633343 0.291810 0.707807 0.095210
C27   C     C_3   0.576350 0.293748 0.812202 -0.036515
C28   C     C_3   0.626480 0.210240 0.794051 0.089620
C29   C     C_3   0.754682 0.306821 0.772243 0.332509
C30   C     C_3   0.804779 0.223591 0.753857 -0.127755
C31   C     C_1   0.635973 0.337761 0.660679 0.080805
C32   C     C_1   0.621117 0.164010 0.840930 0.124290
H3    H     H_    0.311193 0.302168 0.744144 0.142333
C33   C     C_1   0.644600 0.331807 0.333139 -0.182784
C34   C     C_1   0.633993 0.280328 0.280823 0.014452
C35   C     C_1   0.620770 0.219844 0.219147 0.013262
C36   C     C_1   0.610203 0.168338 0.166850 -0.184585
O11   O     O_R   0.764940 0.056420 0.942120 -0.531248
O12   O     O_R   0.431180 0.084790 0.078640 -0.536447
O13   O     O_R   0.256690 0.943640 0.057940 -0.534030
C37   C     C_R   0.599873 0.106210 0.104506 0.720517
O14   O     O_R   0.435470 0.065130 0.943840 -0.531486
O15   O     O_R   0.261010 0.923840 0.922180 -0.535091
C38   C     C_R   0.605255 0.079639 0.923948 0.717448
O16   O     O_R   0.760620 0.076220 0.077880 -0.535528
O17   O     O_3   0.592970 0.953720 0.993110 -0.368032
V3    V     V_3+5 0.319740 0.008590 0.001280 1.475021
O18   O     O_R   0.931020 0.915140 0.921290 -0.536976
C39   C     C_R   0.100068 0.893789 0.895486 0.723016
O19   O     O_R   0.926730 0.934800 0.056090 -0.532744
C40   C     C_R   0.093838 0.920422 0.076180 0.711425
V4    V     V_3+5 0.819230 0.991300 0.998610 1.472889
O20   O     O_3   0.095870 0.046270 0.006890 -0.365093
O21   O     O_3   0.881331 0.368497 0.791430 -0.561061
C41   C     C_3   0.981702 0.368859 0.850328 0.105691
H4    H     H_    0.091084 0.324650 0.838467 0.151035
H5    H     H_    0.885377 0.361004 0.890873 0.136312
C42   C     C_3   0.083293 0.443450 0.877883 -0.721231
H6    H     H_    0.977132 0.488955 0.890042 0.229905
H7    H     H_    0.161214 0.444885 0.924716 0.187765
H8    H     H_    0.187293 0.452148 0.839776 0.219201
C43   C     C_2   0.511999 0.343378 0.879534 0.342127
H9    H     H_    0.494553 0.402240 0.886436 0.054238
O22   O     O_2   0.480937 0.318348 0.926764 -0.524895
O23   O     O_3   0.283529 0.828788 0.369551 -0.555864
C44   C     C_3   0.277453 0.905917 0.378613 0.096187
H10   H     H_    0.130104 0.926550 0.393481 0.134436
H11   H     H_    0.322016 0.920393 0.332096 0.104331
C45   C     C_3   0.413536 0.945384 0.435042 -0.706376
H12   H     H_    0.562184 0.925972 0.421187 0.209207
H13   H     H_    0.408953 0.006312 0.443199 0.192829
H14   H     H_    0.371110 0.933542 0.482785 0.227187
O24   O     O_3   0.771151 0.695800 0.268979 -0.547721
C46   C     C_3   0.714662 0.716774 0.337824 0.097298
H15   H     H_    0.594046 0.755810 0.344885 0.174794
H16   H     H_    0.827766 0.745204 0.374303 0.111994
C47   C     C_3   0.645735 0.648045 0.355902 -0.643470
H17   H     H_    0.765711 0.609264 0.352600 0.205851
H18   H     H_    0.586465 0.664333 0.408218 0.182824
H19   H     H_    0.533776 0.618615 0.319964 0.245601
O25   O     O_3   0.967556 0.669115 0.128729 -0.543864
C48   C     C_3   0.928924 0.594822 0.126991 0.111165
H20   H     H_    0.795387 0.591624 0.155292 0.178074
H21   H     H_    0.042363 0.570176 0.150322 0.143263
C49   C     C_3   0.908883 0.548010 0.053533 -0.761234
H22   H     H_    0.045845 0.548780 0.025960 0.227387
H23   H     H_    0.871577 0.489708 0.050809 0.195915
H24   H     H_    0.795936 0.570994 0.028501 0.236684
O26   O     O_3   0.358873 0.628811 0.194384 -0.546324
C50   C     C_3   0.411019 0.620665 0.126273 0.140934
H25   H     H_    0.548980 0.649817 0.124761 0.200891
H26   H     H_    0.306838 0.643955 0.098101 0.152145
C51   C     C_3   0.432050 0.538169 0.088660 -0.745853
H27   H     H_    0.295400 0.507799 0.089251 0.227978
H28   H     H_    0.473197 0.530829 0.035098 0.185263
H29   H     H_    0.541663 0.512796 0.112934 0.232935
C52   C     C_2   0.494324 0.804218 0.225318 0.450787
H30   H     H_    0.580632 0.834833 0.267828 0.043693
O27   O     O_2   0.554315 0.794940 0.167803 -0.530532
C53   C     C_2   0.738720 0.158593 0.621399 0.365775
H31   H     H_    0.767722 0.100556 0.615253 0.043878
O28   O     O_2   0.752564 0.182503 0.572774 -0.523573
C54   C     C_2   0.999075 0.191194 0.752832 0.324357
H32   H     H_    0.099847 0.194690 0.713760 0.057312
O29   O     O_2   0.043184 0.160230 0.794522 -0.527009

loop_
_geom_bond_atom_site_label_1
_geom_bond_atom_site_label_2
_ccdc_geom_bond_type
C9    C13   S    
O14   V3    S    
C37   O16   A    
C51   H28   S    
C27   C28   S    
O25   C48   S    
C21   C28   S    
C1    O6    A    
C50   H26   S    
C53   H31   S    
C25   C27   S    
O13   C40   A    
C13   C14   S    
O18   C39   A    
C45   H12   S    
C25   H3    S    
C15   C16   S    
C43   O22   D    
C21   C22   S    
C54   O29   D    
O16   V4    S    
O5    C3    A    
C17   C18   S    
V2    O10   S    
C48   C49   S    
C16   C20   S    
C22   C53   S    
C6    C7    S    
C28   C32   S    
C41   H5    S    
C24   C38   S    
O12   V3    S    
C26   C29   S    
C7    C8    T    
C29   O21   S    
C48   H21   S    
C51   H27   S    
O1    V2    S    
O7    V1    S    
C21   H2    S    
C42   H6    S    
V4    O20   S    
O17   V4    S    
O9    C4    A    
C14   C17   S    
C27   C29   S    
C4    C5    S    
C28   C30   S    
C42   H8    S    
C50   H25   S    
O15   C39   A    
O12   C37   A    
C26   C31   S    
C18   O24   S    
C10   C18   S    
O18   V4    S    
C21   C25   S    
C43   H9    S    
C42   H7    S    
C47   H17   S    
O4    C2    A    
O21   C41   S    
C35   C36   T    
C9    C16   S    
O17   V3    S    
O19   V4    S    
C41   C42   S    
O2    C1    A    
C29   C30   S    
C11   C19   T    
C17   O25   S    
C47   H18   S    
V3    O20   S    
C49   H22   S    
C46   C47   S    
C48   H20   S    
C9    O23   S    
C5    C6    T    
C52   O27   D    
C1    C23   S    
C22   C30   S    
O3    C4    A    
O11   C38   A    
C11   C40   S    
C44   H11   S    
C33   C34   T    
C45   H13   S    
C46   H16   S    
O6    V2    S    
O8    V2    S    
C10   C14   S    
O9    V2    S    
C51   H29   S    
C23   C31   T    
O2    V1    S    
C25   C26   S    
O11   V4    S    
C44   C45   S    
C52   H30   S    
C49   H23   S    
C14   C19   S    
O1    C2    A    
C44   H10   S    
O5    V1    S    
C53   O28   D    
O8    C3    A    
O15   V3    S    
O13   V3    S    
C13   C15   S    
C3    C12   S    
O19   C40   A    
C45   H14   S    
C8    C39   S    
C15   C17   S    
C22   C26   S    
O7    V2    S    
O4    V1    S    
C16   C18   S    
O3    V1    S    
V1    O10   S    
C54   H32   S    
C2    C33   S    
C47   H19   S    
C15   O26   S    
C30   C54   S    
O14   C38   A    
C36   C37   S    
C41   H4    S    
C24   C32   T    
O23   C44   S    
C49   H24   S    
C46   H15   S    
O24   C46   S    
C34   C35   S    
O26   C50   S    
C10   H1    S    
C9    C10   S    
C13   C52   S    
C50   C51   S    
C12   C20   T    
C27   C43   S    
