data_mof_unit_24344.cif
_audit_creation_date              2012-12-10T20:57:52-0500
_audit_creation_method            fapswitch 2.2
_symmetry_space_group_name_H-M    P1
_symmetry_Int_Tables_number       1
_space_group_crystal_system       triclinic
_cell_length_a                    15.039617
_cell_length_b                    15.394828
_cell_length_c                    15.819202
_cell_angle_alpha                 89.763488
_cell_angle_beta                  89.827662
_cell_angle_gamma                 66.408381
_cell_volume                      3356.50408327

loop_
_atom_site_label
_atom_site_type_symbol
_atom_type_description
_atom_site_fract_x
_atom_site_fract_y
_atom_site_fract_z
_atom_type_partial_charge
C1    C     C_R   0.500131 0.499995 0.338904 0.883201
C2    C     C_R   0.499688 0.500524 0.661119 0.897955
C3    C     C_R   0.608073 0.893462 0.559530 -0.226647
C4    C     C_R   0.383886 0.110834 0.544142 -0.191804
C5    C     C_R   0.679061 0.929727 0.569294 0.428687
C6    C     C_R   0.312199 0.074763 0.546622 0.476171
C7    C     C_R   0.585182 0.481002 0.955320 0.363348
C8    C     C_R   0.407850 0.545913 0.044714 0.357625
C9    C     C_R   0.495823 0.514150 0.912887 -0.247295
C10   C     C_R   0.497424 0.511561 0.087137 -0.248257
C11   C     C_R   0.407024 0.548764 0.956638 0.358382
C12   C     C_R   0.586049 0.480805 0.043282 0.356411
C13   C     C_1   0.496001 0.510405 0.823912 0.112398
C14   C     C_1   0.498455 0.507222 0.176036 0.082456
C15   C     C_1   0.499233 0.503420 0.250762 -0.187505
C16   C     C_1   0.497464 0.505645 0.749234 -0.180234
C17   C     C_R   0.933777 0.547632 0.436095 -0.091671
C18   C     C_R   0.067746 0.448639 0.560966 -0.110534
C19   C     C_R   0.905796 0.498205 0.498587 0.025444
C20   C     C_R   0.095471 0.498733 0.498952 0.054543
C21   C     C_R   0.974104 0.448218 0.560685 -0.132764
C22   C     C_R   0.027488 0.548009 0.436353 -0.116337
C23   C     C_R   0.561332 0.321869 0.499700 0.968740
C24   C     C_R   0.438591 0.678218 0.499194 0.960598
C25   C     C_1   0.807549 0.499247 0.499338 0.073948
C26   C     C_1   0.192993 0.499438 0.499532 0.098905
C27   C     C_R   0.602743 0.217671 0.509722 -0.374146
C28   C     C_R   0.396511 0.782797 0.506677 -0.379977
C29   C     C_R   0.714983 0.074704 0.580876 0.366865
C30   C     C_R   0.275166 0.931118 0.562758 0.368358
C31   C     C_R   0.695571 0.165071 0.545410 0.285057
C32   C     C_R   0.299552 0.837336 0.533737 0.287380
C33   C     C_R   0.538187 0.173971 0.497431 0.368499
C34   C     C_R   0.462086 0.826368 0.498769 0.371813
C35   C     C_R   0.556675 0.085751 0.534202 -0.087964
C36   C     C_R   0.438639 0.916935 0.531312 -0.092731
C37   C     C_R   0.651845 0.029187 0.562310 -0.217215
C38   C     C_R   0.340311 0.975168 0.547454 -0.237131
C39   C     C_R   0.483335 0.050714 0.539713 0.040782
C40   C     C_R   0.510540 0.952846 0.542666 0.069897
H1    H     H_    0.629293 0.818143 0.568232 0.206771
H2    H     H_    0.360661 0.186807 0.548465 0.232050
H3    H     H_    0.046786 0.587057 0.387661 0.138172
H4    H     H_    0.955058 0.408754 0.609149 0.177158
H5    H     H_    0.882834 0.586625 0.387341 0.147015
H6    H     H_    0.118728 0.409390 0.609569 0.171334
N1    N     N_1   0.270550 0.499970 0.500020 -0.061939
N2    N     N_1   0.729450 0.500030 0.499980 -0.059968
O1    O     O_R   0.573650 0.500000 0.378020 -0.616887
O2    O     O_R   0.426350 0.500000 0.621980 -0.609354
O3    O     O_R   0.426300 0.500040 0.378020 -0.614772
O4    O     O_R   0.573700 0.499960 0.621980 -0.604787
O5    O     O_R   0.615760 0.367720 0.500000 -0.537746
O6    O     O_R   0.384240 0.632280 0.500000 -0.536703
O7    O     O_R   0.468410 0.367760 0.500000 -0.575085
O8    O     O_R   0.531590 0.632240 0.500000 -0.578211
Zn1   Zn    Zn3+2 0.598380 0.499970 0.500000 1.035170
Zn2   Zn    Zn3+2 0.401620 0.500030 0.500000 1.036648
S1    S     S_3+6 0.801558 0.845535 0.568031 0.072869
O9    O     O_2   0.864209 0.884395 0.520340 -0.193349
O10   O     O_2   0.839320 0.820723 0.656608 -0.223741
O11   O     O_3   0.809060 0.745628 0.519757 -0.581818
H7    H     H_    0.800908 0.704947 0.565212 0.358537
S2    S     S_3+6 0.192134 0.156593 0.524333 0.056462
O12   O     O_2   0.138210 0.108877 0.476291 -0.242815
O13   O     O_2   0.139445 0.197598 0.605054 -0.234672
O14   O     O_3   0.196794 0.245462 0.464706 -0.596880
H8    H     H_    0.129397 0.281132 0.444991 0.382497
O15   O     O_3   0.548236 0.782480 0.454341 -0.603138
C41   C     C_3   0.528016 0.791726 0.366735 0.153563
H9    H     H_    0.490191 0.867693 0.348049 0.135102
H10   H     H_    0.481504 0.753716 0.349035 0.099539
C42   C     C_3   0.622870 0.746946 0.317154 -0.382987
H11   H     H_    0.665726 0.674666 0.342360 0.233211
H12   H     H_    0.606243 0.740142 0.249692 0.171543
C43   C     C_3   0.683039 0.806475 0.322335 -0.736356
H13   H     H_    0.643498 0.876824 0.292327 0.231879
H14   H     H_    0.752979 0.769751 0.288660 0.242449
H15   H     H_    0.698393 0.816992 0.389115 0.317489
O16   O     O_3   0.456825 0.217255 0.447030 -0.617811
C44   C     C_3   0.484496 0.202419 0.361175 0.120581
H16   H     H_    0.510023 0.125714 0.345535 0.141743
H17   H     H_    0.543124 0.227167 0.346452 0.134089
C45   C     C_3   0.396489 0.258833 0.306527 -0.303382
H18   H     H_    0.338187 0.233141 0.318302 0.256218
H19   H     H_    0.368637 0.334982 0.324163 0.232680
C46   C     C_3   0.422328 0.248994 0.212695 -0.979665
H20   H     H_    0.477486 0.278243 0.199046 0.270047
H21   H     H_    0.356428 0.288893 0.174782 0.267058
H22   H     H_    0.451120 0.173319 0.193653 0.279946
S3    S     S_3+6 0.206137 0.794231 0.522637 0.116851
O17   O     O_2   0.215231 0.723991 0.591900 -0.267928
O18   O     O_2   0.107107 0.873467 0.526673 -0.148915
O19   O     O_3   0.217100 0.740988 0.428165 -0.553680
H23   H     H_    0.170437 0.710307 0.430009 0.372653
S4    S     S_3+6 0.790850 0.206009 0.538067 0.117043
O20   O     O_2   0.776379 0.280811 0.603754 -0.267512
O21   O     O_2   0.888134 0.126040 0.550821 -0.144877
O22   O     O_3   0.789920 0.252252 0.441333 -0.548524
H24   H     H_    0.838056 0.281110 0.444312 0.377863
S5    S     S_3+6 0.784535 0.043713 0.675905 0.132973
O23   O     O_2   0.744250 0.991232 0.734453 -0.277963
O24   O     O_2   0.889180 0.983198 0.657180 -0.137626
O25   O     O_3   0.777911 0.142596 0.725406 -0.505504
H25   H     H_    0.822249 0.119857 0.774366 0.392093
S6    S     S_3+6 0.191443 0.973229 0.648478 0.141105
O26   O     O_2   0.222106 0.033573 0.706138 -0.279617
O27   O     O_2   0.090764 0.030382 0.616574 -0.117388
O28   O     O_3   0.190214 0.880805 0.704798 -0.503337
H26   H     H_    0.137414 0.908966 0.746680 0.397162
O29   O     O_3   0.674071 0.443219 0.085363 -0.582215
C47   C     C_3   0.697484 0.517829 0.115657 0.096402
H27   H     H_    0.653562 0.550231 0.172690 0.145118
H28   H     H_    0.684468 0.574334 0.067107 0.104850
C48   C     C_3   0.804733 0.477560 0.140005 -0.282119
H29   H     H_    0.819286 0.419942 0.187366 0.242651
H30   H     H_    0.849677 0.447124 0.083000 0.232285
C49   C     C_3   0.833802 0.553671 0.177322 -0.990154
H31   H     H_    0.819872 0.612282 0.131231 0.273426
H32   H     H_    0.912334 0.522300 0.192844 0.272325
H33   H     H_    0.792334 0.582414 0.236212 0.259928
O30   O     O_3   0.320092 0.595384 0.914396 -0.576065
C50   C     C_3   0.287190 0.529490 0.878593 0.060651
H34   H     H_    0.237128 0.516615 0.923826 0.150710
H35   H     H_    0.346782 0.459787 0.862994 0.126837
C51   C     C_3   0.231252 0.572418 0.797608 -0.245694
H36   H     H_    0.167629 0.638642 0.813234 0.251851
H37   H     H_    0.278826 0.590801 0.753557 0.255097
C52   C     C_3   0.196137 0.504026 0.753513 -0.923034
H38   H     H_    0.154581 0.538530 0.696056 0.281676
H39   H     H_    0.148054 0.484692 0.796133 0.263012
H40   H     H_    0.258868 0.438777 0.734246 0.265620
O31   O     O_3   0.671893 0.441807 0.911140 -0.574445
C53   C     C_3   0.698113 0.514716 0.880093 0.078587
H41   H     H_    0.742898 0.530849 0.928237 0.147478
H42   H     H_    0.634366 0.581649 0.864802 0.127951
C54   C     C_3   0.758561 0.480205 0.799681 -0.285951
H43   H     H_    0.826084 0.417458 0.814768 0.244903
H44   H     H_    0.716645 0.458497 0.752699 0.257522
C55   C     C_3   0.785224 0.557541 0.760814 -0.920155
H45   H     H_    0.718653 0.620163 0.743423 0.269289
H46   H     H_    0.828927 0.530258 0.702749 0.264377
H47   H     H_    0.828623 0.579423 0.806120 0.272594
O32   O     O_3   0.321039 0.584896 0.088690 -0.580687
C56   C     C_3   0.293407 0.511640 0.115917 0.094631
H48   H     H_    0.345916 0.464829 0.162760 0.150145
H49   H     H_    0.289038 0.467566 0.061766 0.112092
C57   C     C_3   0.193801 0.556041 0.158176 -0.287283
H50   H     H_    0.196634 0.602642 0.210699 0.242111
H51   H     H_    0.139484 0.600127 0.111204 0.235660
C58   C     C_3   0.161839 0.480674 0.193551 -0.980674
H52   H     H_    0.158581 0.432894 0.142338 0.272321
H53   H     H_    0.088640 0.515491 0.222306 0.265542
H54   H     H_    0.213108 0.438264 0.243152 0.270957

loop_
_geom_bond_atom_site_label_1
_geom_bond_atom_site_label_2
_ccdc_geom_bond_type
C46   H20   S    
S5    O23   D    
C5    C37   A    
C18   C21   A    
C42   H11   S    
O29   C47   S    
C45   C46   S    
C56   C57   S    
C53   C54   S    
C47   H28   S    
C44   H16   S    
N2    Zn1   S    
C27   C33   A    
C54   H44   S    
C51   H36   S    
C4    H2    S    
C35   C37   A    
C43   H14   S    
C7    O31   S    
C47   C48   S    
C56   H48   S    
C50   H35   S    
C32   S3    S    
S6    O26   D    
C24   O6    A    
C48   H29   S    
S4    O22   S    
O1    Zn1   S    
O8    Zn1   S    
C30   C38   A    
C58   H54   S    
C6    S2    S    
C9    C13   S    
C49   H31   S    
O25   H25   S    
C2    O2    A    
C56   H49   S    
O22   H24   S    
C20   C26   S    
C48   H30   S    
S4    O21   D    
C58   H52   S    
C6    C38   A    
C41   H9    S    
C1    C15   S    
C23   C27   S    
C2    C16   S    
C18   C20   A    
C52   H40   S    
C28   C34   A    
S1    O9    D    
S5    O24   D    
C30   S6    S    
C42   H12   S    
O19   H23   S    
C18   H6    S    
C28   C32   A    
C47   H27   S    
C44   H17   S    
C23   O5    A    
C10   C12   A    
C43   H13   S    
C7    C12   A    
C54   C55   S    
S1    O10   D    
C5    S1    S    
C27   C31   A    
O14   H8    S    
O2    Zn2   S    
S2    O14   S    
C50   H34   S    
C57   C58   S    
C55   H45   S    
C4    C6    A    
C10   C14   S    
S3    O17   D    
O5    Zn1   S    
O16   C44   S    
C50   C51   S    
C53   H42   S    
C51   C52   S    
C17   H5    S    
C49   H33   S    
S2    O13   D    
C35   C39   A    
O11   H7    S    
S3    O18   D    
C21   H4    S    
C9    C11   A    
C22   H3    S    
C34   O15   S    
C4    C39   A    
C36   C40   A    
C48   C49   S    
S4    O20   D    
C41   C42   S    
C29   S5    S    
C8    O32   S    
O3    Zn2   S    
C45   H18   S    
C55   H47   S    
C1    O3    A    
C25   N2    T    
C2    O4    A    
C26   N1    T    
C20   C22   A    
C3    C40   A    
S5    O25   S    
C46   H21   S    
O31   C53   S    
C42   C43   S    
O7    Zn2   S    
C11   O30   S    
C17   C19   A    
C39   C40   A    
C44   C45   S    
C52   H38   S    
O6    Zn2   S    
C7    C9    A    
C3    H1    S    
S1    O11   S    
C51   H37   S    
C19   C21   A    
C24   C28   S    
C57   H51   S    
O32   C56   S    
C3    C5    A    
S3    O19   S    
C33   O16   S    
C23   O7    A    
C53   H41   S    
C55   H46   S    
C24   O8    A    
C54   H43   S    
C17   C22   A    
S2    O12   D    
C36   C38   A    
C13   C16   T    
C29   C31   A    
O28   H26   S    
N1    Zn2   S    
C30   C32   A    
S6    O27   D    
C8    C11   A    
C33   C35   A    
C34   C36   A    
C57   H50   S    
C58   H53   S    
O15   C41   S    
C19   C25   S    
C49   H32   S    
O4    Zn1   S    
C43   H15   S    
C8    C10   A    
C46   H22   S    
C29   C37   A    
C14   C15   T    
C45   H19   S    
C41   H10   S    
O30   C50   S    
C1    O1    A    
C12   O29   S    
C31   S4    S    
C52   H39   S    
S6    O28   S    
