data_mof_unit_20301.cif
_audit_creation_date              2013-03-05T15:52:19-0500
_audit_creation_method            fapswitch 2.2
_symmetry_space_group_name_H-M    P1
_symmetry_Int_Tables_number       1
_space_group_crystal_system       triclinic
_cell_length_a                    14.399142
_cell_length_b                    15.858761
_cell_length_c                    9.872396
_cell_angle_alpha                 90.169948
_cell_angle_beta                  87.595227
_cell_angle_gamma                 90.020044
_cell_volume                      2252.3914988

loop_
_atom_site_label
_atom_site_type_symbol
_atom_site_description
_atom_site_fract_x
_atom_site_fract_y
_atom_site_fract_z
_atom_type_partial_charge
O1    O     O_R   0.408390 0.908380 0.614690 -0.666673
O2    O     O_R   0.408390 0.091620 0.614690 -0.668580
O3    O     O_R   0.908390 0.408380 0.614690 -0.666824
O4    O     O_R   0.908390 0.591620 0.614690 -0.668564
O5    O     O_R   0.408370 0.908380 0.385360 -0.605039
O6    O     O_R   0.408370 0.091620 0.385360 -0.604378
O7    O     O_R   0.908370 0.408380 0.385360 -0.604804
O8    O     O_R   0.908370 0.591620 0.385360 -0.604514
C1    C     C_R   0.388522 0.873348 0.501815 0.847325
C2    C     C_R   0.386929 0.125779 0.502536 0.848637
C3    C     C_R   0.888072 0.373583 0.501999 0.847875
C4    C     C_R   0.887447 0.626071 0.502371 0.848826
Zn1   Zn    Zn3+2 0.500010 0.000000 0.653130 0.955246
Zn2   Zn    Zn3+2 0.000010 0.500000 0.653130 0.954324
Zn3   Zn    Zn3+2 0.499980 0.000000 0.346870 0.932872
Zn4   Zn    Zn3+2 0.999980 0.500000 0.346870 0.932507
O9    O     O_R   0.591620 0.091610 0.614640 -0.568019
O10   O     O_R   0.591620 0.908390 0.614640 -0.579048
O11   O     O_R   0.091620 0.591610 0.614640 -0.569862
O12   O     O_R   0.091620 0.408390 0.614640 -0.578722
O13   O     O_R   0.591610 0.091610 0.385310 -0.624627
O14   O     O_R   0.591610 0.908390 0.385310 -0.625593
O15   O     O_R   0.091610 0.591610 0.385310 -0.625912
O16   O     O_R   0.091610 0.408390 0.385310 -0.624309
C5    C     C_R   0.615219 0.123951 0.499055 0.892090
C6    C     C_R   0.615239 0.876153 0.498637 0.889093
C7    C     C_R   0.115349 0.623951 0.499169 0.891636
C8    C     C_R   0.115138 0.376179 0.498550 0.889298
C9    C     C_R   0.296324 0.194577 0.762478 -0.167781
C10   C     C_R   0.315368 0.792308 0.761543 -0.135276
C11   C     C_R   0.801417 0.698237 0.762441 -0.148971
C12   C     C_R   0.809663 0.296337 0.762300 -0.150605
H1    H     H_    0.366361 0.178463 0.787373 0.167781
H2    H     H_    0.386692 0.808953 0.778222 0.155689
H3    H     H_    0.871927 0.682317 0.785265 0.162596
H4    H     H_    0.880782 0.312430 0.781490 0.160286
C13   C     C_R   0.230641 0.198414 0.870363 -0.152111
C14   C     C_R   0.256735 0.782706 0.876505 -0.143731
C15   C     C_R   0.737352 0.703145 0.872148 -0.168121
C16   C     C_R   0.748521 0.289421 0.875142 -0.127163
H5    H     H_    0.249679 0.180801 0.971372 0.152301
H6    H     H_    0.281988 0.796081 0.975996 0.130455
H7    H     H_    0.758043 0.686629 0.972840 0.136638
H8    H     H_    0.771806 0.304388 0.975245 0.142365
C17   C     C_R   0.646481 0.727748 0.851351 -0.184878
C18   C     C_R   0.656808 0.265888 0.858173 -0.116694
C19   C     C_R   0.140208 0.223329 0.847388 -0.149970
C20   C     C_R   0.165008 0.758236 0.862574 -0.152663
H9    H     H_    0.595436 0.728658 0.935008 0.128393
H10   H     H_    0.607845 0.264436 0.944404 0.144560
H11   H     H_    0.087949 0.223041 0.929479 0.147136
H12   H     H_    0.118055 0.753618 0.950728 0.123254
C21   C     C_R   0.622804 0.755974 0.723955 -0.122520
C22   C     C_R   0.629402 0.240369 0.730754 -0.131174
C23   C     C_R   0.118695 0.253525 0.720186 -0.140366
C24   C     C_R   0.134643 0.736289 0.735234 -0.113329
H13   H     H_    0.551975 0.776235 0.711457 0.133526
H14   H     H_    0.557754 0.221429 0.721168 0.136077
H15   H     H_    0.048324 0.274652 0.706115 0.136778
H16   H     H_    0.062536 0.718242 0.728089 0.133824
C25   C     C_R   0.690484 0.759548 0.615699 0.096112
C26   C     C_R   0.694359 0.238095 0.618767 0.101592
C27   C     C_R   0.187952 0.257933 0.614111 0.095711
C28   C     C_R   0.197291 0.735981 0.620521 0.102330
C29   C     C_R   0.272226 0.216437 0.629033 0.059395
C30   C     C_R   0.282969 0.776090 0.630107 0.055683
C31   C     C_R   0.775204 0.718592 0.629367 0.056174
C32   C     C_R   0.779758 0.278409 0.630037 0.058597
C33   C     C_R   0.328470 0.200062 0.509701 -0.155867
C34   C     C_R   0.332449 0.797448 0.507443 -0.160308
C35   C     C_R   0.829745 0.700873 0.509112 -0.158628
C36   C     C_R   0.831355 0.298097 0.508213 -0.159113
C37   C     C_R   0.316281 0.247114 0.390222 0.178132
C38   C     C_R   0.314483 0.754445 0.385611 0.193172
C39   C     C_R   0.816052 0.746756 0.388869 0.191020
C40   C     C_R   0.815165 0.253703 0.387050 0.182529
H17   H     H_    0.732168 0.838762 0.296214 0.167493
H18   H     H_    0.728699 0.163680 0.293974 0.171591
H19   H     H_    0.234036 0.340556 0.298032 0.166535
H20   H     H_    0.226049 0.666267 0.292143 0.171894
C41   C     C_R   0.740831 0.800247 0.385442 -0.226630
C42   C     C_R   0.739404 0.200753 0.384512 -0.212065
C43   C     C_R   0.241450 0.300985 0.386380 -0.214922
C44   C     C_R   0.238306 0.701952 0.383583 -0.229624
C45   C     C_R   0.678423 0.806483 0.496780 -0.185333
C46   C     C_R   0.679114 0.193233 0.498109 -0.181424
C47   C     C_R   0.177823 0.306284 0.496325 -0.179726
C48   C     C_R   0.179684 0.693038 0.498718 -0.185836
H21   H     H_    0.644197 0.005353 0.119628 0.151440
H22   H     H_    0.144283 0.504770 0.119467 0.151341
C49   C     C_R   0.314371 0.997240 0.137940 0.056671
C50   C     C_R   0.814312 0.495875 0.137710 0.058082
C51   C     C_R   0.236702 0.993648 0.051248 0.519164
C52   C     C_R   0.736667 0.493109 0.050842 0.520294
C53   C     C_R   0.249441 0.994443 0.913649 -0.303942
C54   C     C_R   0.749577 0.493750 0.913233 -0.305937
H23   H     H_    0.190219 0.995913 0.849418 0.183134
H24   H     H_    0.690761 0.489239 0.848569 0.181612
C55   C     C_R   0.336203 0.996993 0.856057 -0.225566
C56   C     C_R   0.836251 0.498631 0.855919 -0.224780
H25   H     H_    0.336744 0.999819 0.749769 0.255268
H26   H     H_    0.836857 0.500217 0.749594 0.255702
C57   C     C_R   0.416497 0.998135 0.929974 -0.014539
C58   C     C_R   0.916486 0.499372 0.929932 -0.015008
C59   C     C_R   0.412141 0.998174 0.076647 0.078664
C60   C     C_R   0.912110 0.498586 0.076584 0.078216
N1    N     N_R   0.498810 0.000000 0.142780 -0.111745
N2    N     N_R   0.998810 0.500000 0.142780 -0.111854
C61   C     C_R   0.579969 0.001881 0.067040 -0.263357
C62   C     C_R   0.079975 0.501580 0.067024 -0.263131
C63   C     C_R   0.580694 0.000213 0.922325 0.587511
C64   C     C_R   0.080658 0.499686 0.922380 0.585934
N3    N     N_R   0.498740 0.000000 0.857170 -0.152683
N4    N     N_R   0.998740 0.500000 0.857170 -0.152752
C65   C     C_3   0.384146 0.245373 0.268941 -0.848721
H27   H     H_    0.379254 0.303564 0.207219 0.217163
H28   H     H_    0.456717 0.241643 0.302468 0.244816
H29   H     H_    0.368939 0.190983 0.202354 0.252298
C66   C     C_3   0.377588 0.758942 0.259359 -0.880852
H30   H     H_    0.369584 0.702526 0.193835 0.213114
H31   H     H_    0.360428 0.815211 0.198782 0.252122
H32   H     H_    0.451580 0.761133 0.286857 0.243555
C67   C     C_3   0.882649 0.744148 0.266154 -0.880454
H33   H     H_    0.877124 0.801918 0.203561 0.209331
H34   H     H_    0.955631 0.740668 0.298021 0.242044
H35   H     H_    0.866688 0.689293 0.200971 0.254443
C68   C     C_3   0.879719 0.257258 0.262234 -0.849468
H36   H     H_    0.872879 0.200094 0.198053 0.219749
H37   H     H_    0.862923 0.312734 0.199563 0.250557
H38   H     H_    0.953294 0.260248 0.291577 0.245259
O17   O     O_3   0.662495 0.004577 0.842820 -0.561766
C69   C     C_3   0.732967 0.953049 0.893577 -0.320154
H39   H     H_    0.705727 0.892223 0.934971 0.156295
H40   H     H_    0.771547 0.987730 0.971336 0.152588
H41   H     H_    0.783209 0.937505 0.808918 0.204057
O18   O     O_3   0.162564 0.503460 0.843144 -0.563037
C70   C     C_3   0.231317 0.449329 0.892122 -0.315822
H42   H     H_    0.202164 0.388551 0.930925 0.156164
H43   H     H_    0.270715 0.481701 0.971438 0.149924
H44   H     H_    0.281291 0.433884 0.807081 0.203887
C71   C     C_3   0.270356 0.001031 0.282341 -0.617890
H45   H     H_    0.227584 0.059382 0.291992 0.217971
H46   H     H_    0.223939 0.945469 0.297408 0.200335
H47   H     H_    0.301976 0.000128 0.377851 0.238767
C72   C     C_3   0.770239 0.496136 0.282145 -0.621777
H48   H     H_    0.722028 0.550783 0.292482 0.197016
H49   H     H_    0.729369 0.437006 0.296769 0.220961
H50   H     H_    0.801940 0.500558 0.377349 0.239734
O19   O     O_3   0.145248 0.999948 0.102432 -0.608388
C73   C     C_3   0.099201 0.922241 0.085920 -0.350293
H51   H     H_    0.032438 0.924061 0.146123 0.196078
H52   H     H_    0.140154 0.868347 0.124049 0.154048
H53   H     H_    0.082452 0.912070 0.978298 0.173385
O20   O     O_3   0.645826 0.481599 0.102149 -0.610538
C74   C     C_3   0.593135 0.555351 0.082227 -0.346022
H54   H     H_    0.629577 0.613133 0.116359 0.151446
H55   H     H_    0.527152 0.550397 0.143838 0.195805
H56   H     H_    0.574717 0.561498 0.974531 0.175479

loop_
_geom_bond_atom_site_label_1
_geom_bond_atom_site_label_2
_geom_bond_distance
_ccdc_geom_bond_type
C43   C47   1.393076 A    
C27   C29   1.394068 A    
C23   H15   1.081950 S    
C74   H55   1.109296 S    
C49   C59   1.508920 A    
C51   O19   1.394057 S    
O10   C6    1.285509 A    
H20   C44   1.084715 S    
C58   C60   1.446633 A    
C72   H48   1.112360 S    
C67   H33   1.111327 S    
C11   C31   1.420151 A    
C38   C66   1.513181 S    
C59   N1    1.432740 A    
Zn1   O10   1.987743 S    
C39   C67   1.513684 S    
C12   H4    1.079589 S    
C57   N3    1.359613 A    
C69   H41   1.109417 S    
C14   H6    1.081960 S    
C61   C63   1.428442 A    
C53   C55   1.351349 A    
C67   H34   1.110984 S    
C31   C35   1.423072 A    
C65   H27   1.111247 S    
H21   C61   1.080730 S    
C56   C58   1.392684 A    
C10   C14   1.394494 A    
Zn3   N1    2.015634 S    
O2    Zn1   2.010526 S    
H18   C42   1.084770 S    
C51   C53   1.363208 A    
O6    Zn3   1.987859 S    
C21   C25   1.417057 A    
Zn3   O14   2.010507 S    
C9    H1    1.078924 S    
C11   C15   1.394913 A    
C69   H39   1.113535 S    
C65   H28   1.110935 S    
C73   H53   1.110640 S    
C54   H24   1.083954 S    
Zn4   O16   2.010507 S    
C34   C38   1.414149 A    
C24   C28   1.417944 A    
C33   C37   1.414787 A    
O15   C7    1.293103 A    
C13   C19   1.388834 A    
O11   C7    1.284521 A    
C16   H8    1.082486 S    
C14   C20   1.388737 A    
C32   C36   1.422330 A    
C15   C17   1.389192 A    
C17   C21   1.392070 A    
O8    Zn4   1.987859 S    
C74   H56   1.111108 S    
C13   H5    1.082699 S    
N1    C61   1.361050 A    
C64   O18   1.388961 S    
C56   H26   1.049724 S    
C72   H49   1.113449 S    
C41   C45   1.393569 A    
O7    C3    1.300511 A    
C66   H31   1.109375 S    
C70   H44   1.109448 S    
C10   H2    1.079477 S    
Zn2   O12   1.987743 S    
O1    C1    1.286559 A    
C1    C34   1.449059 S    
C63   N3    1.367480 A    
C55   C57   1.392944 A    
C71   H47   1.064285 S    
C40   C42   1.377444 A    
C21   H13   1.081499 S    
C3    C36   1.448919 S    
C39   C41   1.377602 A    
C67   H35   1.110253 S    
C19   H11   1.082536 S    
O12   C8    1.285772 A    
Zn2   N4    2.013679 S    
C24   H16   1.082004 S    
C23   C27   1.417313 A    
C28   C30   1.394422 A    
C16   C18   1.388929 A    
C68   H37   1.109617 S    
O5    C1    1.299313 A    
C49   C51   1.437526 A    
C26   C46   1.410698 A    
C25   C31   1.393945 A    
H17   C41   1.084928 S    
O8    C4    1.300330 A    
C65   H29   1.110247 S    
C18   C22   1.392993 A    
C8    C47   1.429238 S    
C50   C52   1.437902 A    
C17   H9    1.082376 S    
C36   C40   1.413895 A    
C57   C59   1.446736 A    
C52   C54   1.363515 A    
C70   H43   1.110511 S    
O20   C74   1.413099 S    
C10   C30   1.419956 A    
O3    Zn2   2.008232 S    
C25   C45   1.408863 A    
C9    C29   1.420336 A    
C64   N4    1.367314 A    
C50   C60   1.509255 A    
O7    Zn4   1.988833 S    
C55   H25   1.050104 S    
C4    C35   1.448303 S    
Zn4   O15   2.008211 S    
C73   H52   1.113917 S    
Zn3   O13   2.008211 S    
O4    C4    1.284827 A    
H22   C62   1.080791 S    
C68   H36   1.111202 S    
O2    C2    1.283472 A    
C72   H50   1.064078 S    
C19   C23   1.392335 A    
C22   H14   1.082278 S    
C66   H32   1.110961 S    
C63   O17   1.389581 S    
C20   C24   1.391459 A    
O13   C5    1.291549 A    
C27   C47   1.407483 A    
C50   C72   1.536241 S    
Zn2   O11   1.988715 S    
O16   C8    1.288731 A    
C38   C44   1.377558 A    
O18   C70   1.412097 S    
O6    C2    1.301304 A    
C15   H7    1.082589 S    
C66   H30   1.111285 S    
C53   H23   1.084110 S    
Zn1   O9    1.988715 S    
C22   C26   1.418246 A    
C70   H42   1.113742 S    
C18   H10   1.082618 S    
C37   C65   1.513573 S    
C12   C32   1.419906 A    
O9    C5    1.285088 A    
C71   H46   1.112320 S    
C68   H38   1.110935 S    
C42   C46   1.394481 A    
O19   C73   1.411433 S    
C35   C39   1.415047 A    
C52   O20   1.394855 S    
C30   C34   1.420806 A    
C44   C48   1.394574 A    
C60   N2    1.433331 A    
C6    C45   1.431083 S    
C29   C33   1.424595 A    
C54   C56   1.350797 A    
C5    C46   1.432620 S    
N2    C62   1.361100 A    
C11   H3    1.079362 S    
C26   C32   1.394179 A    
C12   C16   1.395188 A    
O4    Zn2   2.010526 S    
C7    C48   1.434427 S    
C62   C64   1.427835 A    
O5    Zn3   1.988833 S    
O3    C3    1.285068 A    
Zn4   N2    2.015634 S    
H19   C43   1.084916 S    
C2    C33   1.447944 S    
C20   H12   1.082045 S    
O1    Zn1   2.008232 S    
C69   H40   1.110622 S    
O14   C6    1.290090 A    
C9    C13   1.395607 A    
C74   H54   1.114108 S    
C40   C68   1.513220 S    
C73   H51   1.109145 S    
C58   N4    1.359237 A    
C71   H45   1.113392 S    
C37   C43   1.377168 A    
C28   C48   1.412315 A    
Zn1   N3    2.013679 S    
O17   C69   1.412177 S    
C49   C71   1.536642 S    
