data_mof_unit_24762.cif
_audit_creation_date              2012-12-11T14:13:27-0500
_audit_creation_method            fapswitch 2.2
_symmetry_space_group_name_H-M    P1
_symmetry_Int_Tables_number       1
_space_group_crystal_system       triclinic
_cell_length_a                    17.450251
_cell_length_b                    17.442732
_cell_length_c                    17.423564
_cell_angle_alpha                 89.944472
_cell_angle_beta                  90.05629
_cell_angle_gamma                 89.325595
_cell_volume                      5303.01281917

loop_
_atom_site_label
_atom_site_type_symbol
_atom_type_description
_atom_site_fract_x
_atom_site_fract_y
_atom_site_fract_z
_atom_type_partial_charge
C1    C     C_R   0.587155 0.321957 0.135675 -0.042459
C2    C     C_R   0.183626 0.097344 0.627558 -0.021050
C3    C     C_3   0.511738 0.313521 0.677213 -0.933769
C4    C     C_3   0.677478 0.489909 0.319806 -0.926129
C5    C     C_3   0.464395 0.326398 0.317976 -0.927189
C6    C     C_3   0.315994 0.512614 0.326482 -0.932045
C7    C     C_3   0.546501 0.684909 0.318069 -0.929185
C8    C     C_3   0.348011 0.240464 0.459650 -0.873303
C9    C     C_3   0.753530 0.370064 0.473685 -0.887596
C10   C     C_3   0.653852 0.824487 0.441025 -0.815155
C11   C     C_3   0.169666 0.613391 0.442737 -0.844400
C12   C     C_3   0.387500 0.827222 0.554568 -0.838791
C13   C     C_R   0.895457 0.190481 0.615742 -0.023866
C14   C     C_3   0.824824 0.654767 0.559270 -0.814375
C15   C     C_3   0.619772 0.179724 0.548047 -0.855871
C16   C     C_3   0.174841 0.357047 0.557593 -0.830617
C17   C     C_R   0.818631 0.904800 0.630723 -0.018152
C18   C     C_R   0.098862 0.185223 0.374887 -0.012056
C19   C     C_R   0.190633 0.895360 0.384802 -0.018407
C20   C     C_R   0.904596 0.818209 0.369797 -0.017072
C21   C     C_R   0.808279 0.105177 0.387156 -0.028250
C22   C     C_R   0.594891 0.682579 0.128729 -0.051385
C23   C     C_R   0.328691 0.583805 0.141293 -0.040324
C24   C     C_R   0.408811 0.320926 0.133582 -0.057883
C25   C     C_R   0.687707 0.594563 0.122266 -0.056489
C26   C     C_R   0.670824 0.417060 0.141796 -0.038527
C27   C     C_R   0.583521 0.329004 0.858341 -0.042466
C28   C     C_R   0.319600 0.407280 0.868096 -0.048678
C29   C     C_R   0.416705 0.671301 0.858652 -0.038654
C30   C     C_R   0.682686 0.594998 0.871468 -0.052196
C31   C     C_R   0.086146 0.181097 0.631552 -0.059103
C32   C     C_R   0.809916 0.096914 0.618437 -0.077097
C33   C     C_R   0.916667 0.821795 0.634722 -0.054964
C34   C     C_R   0.190573 0.902931 0.617719 -0.083072
C35   C     C_R   0.097042 0.809750 0.381881 -0.084404
C36   C     C_R   0.413823 0.677578 0.136178 -0.034847
C37   C     C_R   0.821520 0.916213 0.365579 -0.056988
C38   C     C_R   0.901617 0.191004 0.383416 -0.069566
C39   C     C_R   0.183338 0.088472 0.371156 -0.048623
C40   C     C_R   0.641181 0.355712 0.182281 0.011310
C41   C     C_R   0.662297 0.656910 0.162463 0.037334
C42   C     C_R   0.358916 0.644693 0.182223 0.018100
C43   C     C_R   0.343583 0.348504 0.169986 0.030078
C44   C     C_R   0.657094 0.662470 0.837803 0.037996
C45   C     C_R   0.644706 0.359012 0.817590 0.018472
C46   C     C_R   0.346144 0.340795 0.833064 0.034968
C47   C     C_R   0.315090 0.407843 0.126700 -0.051340
C48   C     C_R   0.355276 0.641829 0.817990 0.017970
C49   C     C_R   0.176006 0.830643 0.642995 0.009692
C50   C     C_R   0.154263 0.162044 0.664608 0.005249
C51   C     C_R   0.825222 0.168412 0.645204 0.011281
C52   C     C_R   0.849796 0.841784 0.669457 0.005075
C53   C     C_R   0.165569 0.157979 0.340324 0.023030
C54   C     C_R   0.168879 0.824725 0.355932 0.008230
C55   C     C_R   0.841440 0.849106 0.331148 0.005946
C56   C     C_R   0.828674 0.176606 0.359685 0.033345
C57   C     C_2   0.735772 0.669311 0.721711 0.234192
C58   C     C_R   0.594594 0.687781 0.877802 -0.054637
C59   C     C_2   0.356583 0.720457 0.698084 0.240000
C60   C     C_2   0.268269 0.335751 0.715228 0.237229
C61   C     C_2   0.645415 0.280455 0.697511 0.239730
C62   C     C_2   0.718722 0.357382 0.302689 0.217560
C63   C     C_2   0.341407 0.270284 0.287817 0.214129
C64   C     C_2   0.279614 0.644396 0.301169 0.238153
C65   C     C_2   0.668857 0.735250 0.278926 0.233169
C66   C     C_2   0.289544 0.221206 0.332640 0.134566
C67   C     C_2   0.765502 0.303672 0.350208 0.131830
C68   C     C_2   0.721548 0.779292 0.326429 0.148803
C69   C     C_R   0.677604 0.413781 0.863868 -0.034424
C70   C     C_2   0.233667 0.697882 0.349552 0.151811
C71   C     C_2   0.302727 0.765780 0.649290 0.148547
C72   C     C_2   0.779885 0.721938 0.674241 0.149254
C73   C     C_2   0.700164 0.235980 0.649290 0.142384
C74   C     C_2   0.222940 0.283099 0.668073 0.144870
C75   C     C_2   0.689063 0.701990 0.773327 -0.308750
C76   C     C_2   0.325637 0.666100 0.743072 -0.288121
C77   C     C_2   0.316239 0.303027 0.766019 -0.304644
C78   C     C_2   0.675629 0.334410 0.743313 -0.287538
C79   C     C_2   0.664512 0.326608 0.257520 -0.265634
C80   C     C_R   0.406777 0.313762 0.875263 -0.054901
C81   C     C_2   0.308436 0.320657 0.239440 -0.272479
C82   C     C_2   0.333772 0.675431 0.256246 -0.287512
C83   C     C_2   0.701484 0.688305 0.227474 -0.308540
C84   C     C_2   0.221322 0.202861 0.300721 -0.328676
C85   C     C_2   0.778875 0.232137 0.322816 -0.325554
C86   C     C_2   0.784069 0.807614 0.290617 -0.359653
C87   C     C_2   0.216851 0.767757 0.318980 -0.357451
C88   C     C_2   0.233044 0.782670 0.679971 -0.357676
C89   C     C_2   0.808521 0.784313 0.710096 -0.359369
C90   C     C_2   0.768089 0.216252 0.682114 -0.360303
C91   C     C_R   0.321955 0.587160 0.864303 -0.038020
C92   C     C_2   0.196988 0.219441 0.703881 -0.357250
C93   C     C_2   0.572048 0.238916 0.133786 0.495603
C94   C     C_2   0.768733 0.571706 0.111174 0.477055
C95   C     C_2   0.431521 0.759998 0.135897 0.492194
C96   C     C_2   0.233084 0.427739 0.117265 0.478071
C97   C     C_2   0.571734 0.768824 0.888938 0.474985
C98   C     C_2   0.759972 0.431585 0.864235 0.491971
C99   C     C_2   0.428307 0.232204 0.885433 0.480488
C100  C     C_2   0.239220 0.570879 0.865815 0.489215
C101  C     C_2   0.083345 0.728521 0.603603 0.413321
C102  C     C_R   0.105261 0.808947 0.614211 -0.019142
C103  C     C_2   0.265701 0.077637 0.625509 0.447898
C104  C     C_2   0.916582 0.271296 0.606352 0.448692
C105  C     C_2   0.736530 0.924624 0.631608 0.429537
C106  C     C_2   0.076609 0.266689 0.376122 0.445598
C107  C     C_2   0.271127 0.917199 0.394521 0.415986
C108  C     C_2   0.924430 0.736069 0.369658 0.427637
C109  C     C_2   0.728300 0.081919 0.397966 0.432007
C110  C     C_3   0.684684 0.547573 0.681462 -0.926184
C111  C     C_3   0.490664 0.687262 0.679737 -0.932603
C112  C     C_3   0.317943 0.458885 0.677946 -0.927500
H1    H     H_    0.569331 0.737899 0.137504 0.146256
H2    H     H_    0.754897 0.070216 0.620289 0.171371
H3    H     H_    0.388058 0.879804 0.590515 0.260592
H4    H     H_    0.782092 0.765984 0.563158 0.183265
H5    H     H_    0.823760 0.659892 0.495798 0.259152
H6    H     H_    0.801740 0.597677 0.573117 0.236677
H7    H     H_    0.884984 0.658990 0.579479 0.282395
H8    H     H_    0.733562 0.211338 0.535988 0.207791
H9    H     H_    0.620837 0.168052 0.485482 0.250345
H10   H     H_    0.566370 0.212595 0.559013 0.246468
H11   H     H_    0.619638 0.124213 0.579375 0.270606
H12   H     H_    0.209642 0.243180 0.555274 0.208773
H13   H     H_    0.949207 0.770329 0.645549 0.143135
H14   H     H_    0.169412 0.352438 0.494317 0.266778
H15   H     H_    0.204681 0.411471 0.568577 0.236967
H16   H     H_    0.116644 0.358226 0.583399 0.275688
H17   H     H_    0.245164 0.930696 0.620128 0.166814
H18   H     H_    0.070081 0.754867 0.379713 0.173679
H19   H     H_    0.769965 0.948595 0.354778 0.140611
H20   H     H_    0.929913 0.245013 0.379242 0.152610
H21   H     H_    0.235502 0.056649 0.362069 0.135817
H22   H     H_    0.675325 0.762680 0.768316 0.113367
H23   H     H_    0.269483 0.644817 0.727794 0.106216
H24   H     H_    0.331432 0.242871 0.759252 0.111504
H25   H     H_    0.278913 0.552780 0.156942 0.139481
H26   H     H_    0.732208 0.355246 0.729072 0.105631
H27   H     H_    0.642544 0.270785 0.272856 0.103133
H28   H     H_    0.249332 0.338144 0.248880 0.103097
H29   H     H_    0.354312 0.732033 0.270842 0.105875
H30   H     H_    0.762004 0.674073 0.232942 0.114175
H31   H     H_    0.204045 0.222064 0.243962 0.140564
H32   H     H_    0.754130 0.212368 0.269342 0.138165
H33   H     H_    0.790363 0.805378 0.228584 0.158548
H34   H     H_    0.234000 0.782708 0.261011 0.154858
H35   H     H_    0.218483 0.765866 0.738154 0.155023
H36   H     H_    0.436405 0.267321 0.145807 0.145085
H37   H     H_    0.806613 0.790428 0.772158 0.158619
H38   H     H_    0.780405 0.230225 0.741583 0.157533
H39   H     H_    0.202672 0.211489 0.765514 0.158137
H40   H     H_    0.581070 0.203438 0.184116 -0.013036
H41   H     H_    0.812965 0.591221 0.149910 0.000651
H42   H     H_    0.428768 0.793474 0.188173 -0.012928
H43   H     H_    0.191036 0.409663 0.159025 -0.004164
H44   H     H_    0.590642 0.813000 0.849811 0.000509
H45   H     H_    0.793480 0.429064 0.811982 -0.012485
H46   H     H_    0.410098 0.189158 0.844774 -0.001765
H47   H     H_    0.718780 0.450164 0.159072 0.142650
H48   H     H_    0.204039 0.578669 0.815089 -0.011597
H49   H     H_    0.109698 0.683940 0.638567 0.017615
H50   H     H_    0.301542 0.089638 0.674878 0.007262
H51   H     H_    0.892645 0.314486 0.644481 0.010323
H52   H     H_    0.702698 0.913053 0.682442 0.015342
H53   H     H_    0.090703 0.303276 0.327881 0.003221
H54   H     H_    0.314759 0.893323 0.356877 0.016157
H55   H     H_    0.912263 0.701596 0.319396 0.015389
H56   H     H_    0.683291 0.107146 0.362754 0.008070
H57   H     H_    0.800555 0.571319 0.698488 0.168161
H58   H     H_    0.551647 0.279971 0.841964 0.141856
H59   H     H_    0.631019 0.555449 0.714893 0.266179
H60   H     H_    0.698764 0.485468 0.679524 0.245342
H61   H     H_    0.675246 0.568371 0.621872 0.262493
H62   H     H_    0.446296 0.798816 0.693352 0.173801
H63   H     H_    0.486061 0.632687 0.712187 0.263774
H64   H     H_    0.549096 0.710057 0.688460 0.252999
H65   H     H_    0.482348 0.675537 0.617671 0.259460
H66   H     H_    0.202108 0.433679 0.694556 0.168970
H67   H     H_    0.370937 0.452681 0.712857 0.266522
H68   H     H_    0.302208 0.520517 0.674957 0.246196
H69   H     H_    0.265298 0.434056 0.857150 0.144548
H70   H     H_    0.329462 0.437971 0.618808 0.259797
H71   H     H_    0.556445 0.202093 0.688716 0.175151
H72   H     H_    0.514567 0.366995 0.711573 0.264713
H73   H     H_    0.453338 0.289822 0.682831 0.252846
H74   H     H_    0.522067 0.327440 0.615899 0.257885
H75   H     H_    0.790298 0.449833 0.322813 0.169342
H76   H     H_    0.627314 0.484204 0.281136 0.261759
H77   H     H_    0.698594 0.549473 0.315191 0.254108
H78   H     H_    0.658837 0.479683 0.379798 0.258938
H79   H     H_    0.440080 0.209506 0.318311 0.164051
H80   H     H_    0.449339 0.719895 0.842517 0.142688
H81   H     H_    0.465191 0.371177 0.272776 0.264494
H82   H     H_    0.524328 0.309711 0.331538 0.245996
H83   H     H_    0.438078 0.351085 0.370579 0.260439
H84   H     H_    0.203803 0.552708 0.306496 0.171659
H85   H     H_    0.370311 0.515018 0.293438 0.267587
H86   H     H_    0.293774 0.453471 0.323444 0.250283
H87   H     H_    0.327745 0.526434 0.387572 0.258425
H88   H     H_    0.571242 0.800724 0.301786 0.167983
H89   H     H_    0.554000 0.631387 0.284301 0.266798
H90   H     H_    0.484548 0.699560 0.319834 0.245813
H91   H     H_    0.738073 0.569537 0.862896 0.145870
H92   H     H_    0.566959 0.674859 0.377677 0.262401
H93   H     H_    0.339552 0.136996 0.400809 0.198622
H94   H     H_    0.341395 0.216488 0.518226 0.260525
H95   H     H_    0.320837 0.298391 0.457782 0.254992
H96   H     H_    0.410333 0.244408 0.448459 0.243792
H97   H     H_    0.854267 0.352664 0.411546 0.194585
H98   H     H_    0.774893 0.358810 0.532689 0.250358
H99   H     H_    0.692899 0.351448 0.470266 0.258922
H100  H     H_    0.756823 0.432645 0.462958 0.245745
H101  H     H_    0.765256 0.782338 0.437622 0.183272
H102  H     H_    0.054821 0.233705 0.640288 0.145982
H103  H     H_    0.659004 0.824015 0.504503 0.260780
H104  H     H_    0.596972 0.800803 0.427417 0.236421
H105  H     H_    0.657608 0.884540 0.420298 0.280799
H106  H     H_    0.200781 0.725761 0.461937 0.180344
H107  H     H_    0.150154 0.613907 0.503321 0.260012
H108  H     H_    0.203788 0.560042 0.435734 0.244894
H109  H     H_    0.118415 0.613494 0.404827 0.260751
H110  H     H_    0.274165 0.798990 0.536997 0.182020
H111  H     H_    0.387619 0.844549 0.493258 0.258272
H112  H     H_    0.440134 0.792423 0.563366 0.244714
N1    N     N_R   0.574080 0.369570 0.076720 -0.050057
N2    N     N_R   0.130430 0.074080 0.576720 -0.051871
N3    N     N_R   0.925920 0.130430 0.576720 -0.056237
N4    N     N_R   0.869570 0.925920 0.576720 -0.051833
N5    N     N_R   0.074080 0.130430 0.423280 -0.055760
N6    N     N_R   0.130430 0.925920 0.423280 -0.057217
N7    N     N_R   0.925920 0.869570 0.423280 -0.051803
N8    N     N_R   0.869570 0.074080 0.423280 -0.057802
N9    N     N_R   0.574050 0.630410 0.076720 -0.060122
N10   N     N_R   0.369590 0.574050 0.076720 -0.051754
N11   N     N_R   0.425950 0.369590 0.076720 -0.057108
N12   N     N_R   0.630430 0.574080 0.076720 -0.057698
N13   N     N_R   0.630410 0.425950 0.076720 -0.049960
N14   N     N_R   0.574050 0.369590 0.923280 -0.050735
N15   N     N_R   0.369590 0.425950 0.923280 -0.058527
N16   N     N_R   0.425950 0.630410 0.923280 -0.050973
N17   N     N_R   0.630410 0.574050 0.923280 -0.060215
N18   N     N_R   0.074050 0.130410 0.576720 -0.052506
N19   N     N_R   0.869590 0.074050 0.576720 -0.056863
N20   N     N_R   0.925950 0.869590 0.576720 -0.051448
N21   N     N_R   0.130410 0.925950 0.576720 -0.058626
N22   N     N_R   0.074050 0.869590 0.423280 -0.057641
N23   N     N_R   0.425920 0.630430 0.076720 -0.050308
N24   N     N_R   0.869590 0.925950 0.423280 -0.051737
N25   N     N_R   0.925950 0.130410 0.423280 -0.058729
N26   N     N_R   0.130410 0.074050 0.423280 -0.052240
N27   N     N_2   0.747038 0.588377 0.717180 -0.117344
N28   N     N_2   0.434446 0.742694 0.706709 -0.118716
N29   N     N_2   0.255928 0.416584 0.712433 -0.117455
N30   N     N_2   0.567556 0.257747 0.704520 -0.118018
N31   N     N_2   0.738186 0.436603 0.298589 -0.115970
N32   N     N_2   0.422611 0.259782 0.292123 -0.115895
N33   N     N_2   0.259967 0.565649 0.294670 -0.118246
N34   N     N_R   0.369570 0.425920 0.076720 -0.055408
N35   N     N_2   0.588018 0.747145 0.282963 -0.117194
N36   N     N_2   0.312373 0.189617 0.405043 -0.089979
N37   N     N_2   0.801181 0.328628 0.419493 -0.095749
N38   N     N_2   0.714436 0.777734 0.408224 -0.112813
N39   N     N_2   0.216207 0.679886 0.428030 -0.106977
N40   N     N_2   0.320066 0.782539 0.570500 -0.107301
N41   N     N_2   0.777916 0.715037 0.592442 -0.112883
N42   N     N_2   0.686102 0.223952 0.569063 -0.109984
N43   N     N_2   0.218916 0.292438 0.586357 -0.114867
N44   N     N_R   0.574080 0.630430 0.923280 -0.057461
N45   N     N_R   0.630430 0.425920 0.923280 -0.050102
N46   N     N_R   0.425920 0.369570 0.923280 -0.056392
N47   N     N_R   0.369570 0.574080 0.923280 -0.050746
N48   N     N_R   0.074080 0.869570 0.576720 -0.056112
Ni1   Ni    Ni4+2 0.500000 0.370760 0.000000 0.304171
Ni2   Ni    Ni4+2 0.629240 0.500000 0.000000 0.300997
Ni3   Ni    Ni4+2 0.500000 0.629240 0.000000 0.300630
Ni4   Ni    Ni4+2 0.370760 0.500000 0.000000 0.304086
Ni5   Ni    Ni4+2 1.000000 0.870760 0.500000 0.284859
Ni6   Ni    Ni4+2 0.129240 0.000000 0.500000 0.287209
Ni7   Ni    Ni4+2 0.000000 0.129240 0.500000 0.288731
Ni8   Ni    Ni4+2 0.870760 0.000000 0.500000 0.286460
O1    O     O_2   0.550806 0.208614 0.074568 -0.514903
O2    O     O_2   0.295009 0.052179 0.567344 -0.532510
O3    O     O_2   0.958111 0.291097 0.554110 -0.537397
O4    O     O_2   0.704937 0.949993 0.574497 -0.543424
O5    O     O_2   0.046389 0.294842 0.432486 -0.541458
O6    O     O_2   0.290141 0.959319 0.446658 -0.541340
O7    O     O_2   0.950580 0.705195 0.426829 -0.543165
O8    O     O_2   0.711364 0.036526 0.448106 -0.542743
O9    O     O_2   0.787206 0.531331 0.057072 -0.519802
O10   O     O_2   0.447771 0.792145 0.076034 -0.514426
O11   O     O_2   0.211351 0.463763 0.061156 -0.519555
O12   O     O_2   0.532025 0.787378 0.943493 -0.519983
O13   O     O_2   0.792053 0.447696 0.924166 -0.514033
O14   O     O_2   0.466065 0.211945 0.940900 -0.517867
O15   O     O_2   0.208827 0.550084 0.925174 -0.516954
O16   O     O_2   0.037777 0.710801 0.553898 -0.544996

loop_
_geom_bond_atom_site_label_1
_geom_bond_atom_site_label_2
_ccdc_geom_bond_type
C81   H28   S    
C79   H27   S    
C86   H33   S    
C61   N30   S    
C15   H10   S    
C101  C102  S    
N14   N45   A    
C106  O5    D    
C68   C86   D    
C48   C76   S    
C31   N18   A    
C36   C42   A    
N7    N24   A    
C42   C82   S    
H71   N30   S    
C90   H38   S    
C99   O14   D    
C26   C40   A    
C11   H109  S    
C104  H51   S    
C93   O1    D    
C112  N29   S    
C75   H22   S    
C33   N20   A    
C32   C51   A    
H66   N29   S    
C39   C53   A    
N4    Ni8   S    
C33   C52   A    
C30   H91   S    
C39   N26   A    
C28   C46   A    
N48   Ni5   S    
C23   C42   A    
C102  N48   A    
N45   Ni2   S    
N6    Ni6   S    
C6    N33   S    
C111  H63   S    
N26   Ni6   S    
N16   N47   A    
C5    H81   S    
C65   N35   S    
C95   H42   S    
C73   C90   D    
C80   N46   A    
C7    H90   S    
C91   N47   A    
C82   H29   S    
C51   C90   S    
N3    N19   A    
C54   C87   S    
C17   N4    A    
C10   H103  S    
C65   C83   D    
C38   N25   A    
C35   N22   A    
C9    H100  S    
C41   C83   S    
C78   H26   S    
C105  O4    D    
N10   Ni4   S    
C59   C71   S    
C17   C52   A    
C12   N40   S    
C95   O10   D    
C74   C92   D    
C8    H96   S    
C12   H112  S    
C2    C50   A    
C1    C40   A    
C13   C51   A    
C109  O8    D    
C7    N35   S    
C88   H35   S    
C22   H1    S    
N8    Ni8   S    
N13   Ni2   S    
C34   H17   S    
C44   C58   A    
C14   H6    S    
C30   N17   A    
C9    N37   S    
C47   C96   S    
C96   O11   D    
C36   C95   S    
N21   Ni6   S    
C18   N5    A    
C77   H24   S    
C64   C70   S    
C91   C100  S    
C57   N27   S    
N14   Ni1   S    
C15   H9    S    
C3    H72   S    
C61   C78   D    
C29   N16   A    
C6    H86   S    
N5    N26   A    
C97   H44   S    
C14   N41   S    
C112  H68   S    
C12   H3    S    
C110  H59   S    
C27   C45   A    
C89   H37   S    
C63   C66   S    
C48   C91   A    
C20   N7    A    
N15   Ni4   S    
C35   C54   A    
H106  N39   S    
C23   N10   A    
C94   O9    D    
C30   C44   A    
C52   C89   S    
N47   Ni4   S    
C58   C97   S    
N18   Ni7   S    
C92   H39   S    
C20   C55   A    
C70   C87   D    
C3    H73   S    
C85   H32   S    
C68   N38   S    
C67   N37   S    
C76   H23   S    
C62   N31   S    
C60   C77   D    
N17   N44   A    
H8    N42   S    
N7    Ni5   S    
C29   C48   A    
N34   Ni4   S    
C111  H64   S    
C106  H53   S    
C4    H78   S    
C62   C79   D    
N21   N48   A    
C40   C79   S    
N9    Ni3   S    
C25   N12   A    
C94   H41   S    
H4    N41   S    
C24   H36   S    
C25   C41   A    
C49   C102  A    
C31   H102  S    
C112  H70   S    
C84   H31   S    
C61   C73   S    
C111  N28   S    
C10   H105  S    
C21   N8    A    
C45   C69   A    
N5    Ni7   S    
C1    C93   S    
C37   N24   A    
N20   Ni5   S    
C10   N38   S    
C66   C84   D    
C38   H20   S    
N17   Ni2   S    
C8    N36   S    
C44   C75   S    
C28   H69   S    
C18   C106  S    
C12   H111  S    
C7    H92   S    
C109  H56   S    
C17   C105  S    
N10   N23   A    
C6    H85   S    
C22   N9    A    
N9    N12   A    
C100  H48   S    
C21   C109  S    
C63   N32   S    
C27   H58   S    
C98   H45   S    
C9    H98   S    
C107  H54   S    
C65   C68   S    
C107  O6    D    
C34   N21   A    
C33   H13   S    
C19   N6    A    
C29   H80   S    
C26   H47   S    
C10   H104  S    
C13   C104  S    
C8    H94   S    
C70   N39   S    
C16   H16   S    
C35   H18   S    
C64   C82   D    
C45   C78   S    
C15   H11   S    
C112  H67   S    
C62   C67   S    
C19   C54   A    
C50   C92   S    
C87   H34   S    
C108  H55   S    
C63   C81   D    
C11   N39   S    
C53   C84   S    
C32   N19   A    
N22   Ni5   S    
C104  O3    D    
C98   O13   D    
H57   N27   S    
C31   C50   A    
H75   N31   S    
C80   C99   S    
C3    H74   S    
C11   H107  S    
C8    H95   S    
C64   N33   S    
C5    N32   S    
H88   N35   S    
C100  O15   D    
C39   H21   S    
C110  H61   S    
C1    N1    A    
C71   N40   S    
C36   N23   A    
C37   H19   S    
C103  H50   S    
C103  O2    D    
N15   N46   A    
N1    Ni1   S    
C4    H77   S    
C23   H25   S    
C71   C88   D    
C60   N29   S    
C43   C47   A    
C93   H40   S    
C74   N43   S    
N6    N22   A    
N19   Ni8   S    
C13   N3    A    
C21   C56   A    
H110  N40   S    
N4    N20   A    
C37   C55   A    
H97   N37   S    
N1    N13   A    
C101  O16   D    
N23   Ni3   S    
C105  H52   S    
C110  N27   S    
C46   C77   S    
C49   C88   S    
H12   N43   S    
C66   N36   S    
H79   N32   S    
N16   Ni3   S    
C5    H83   S    
H101  N38   S    
C97   O12   D    
C57   C75   D    
C55   C86   S    
C101  H49   S    
C3    N30   S    
C28   N15   A    
C108  O7    D    
C69   C98   S    
C46   C80   A    
C72   C89   D    
C26   N13   A    
H62   N28   S    
C56   C85   S    
C6    H87   S    
C67   C85   D    
C16   H14   S    
C2    C103  S    
C9    H99   S    
N11   N34   A    
C43   C81   S    
C15   N42   S    
C59   C76   D    
N44   Ni3   S    
C60   C74   S    
C72   N41   S    
N11   Ni1   S    
N12   Ni2   S    
C57   C72   S    
C83   H30   S    
H84   N33   S    
C16   H15   S    
N24   Ni8   S    
C16   N43   S    
N2    N18   A    
C73   N42   S    
C69   N45   A    
C18   C53   A    
C22   C41   A    
N25   Ni7   S    
C25   C94   S    
C38   C56   A    
C96   H43   S    
C2    N2    A    
C34   C49   A    
C7    H89   S    
C14   H7    S    
C99   H46   S    
C58   N44   A    
C59   N28   S    
C111  H65   S    
C24   C43   A    
N2    Ni6   S    
N46   Ni1   S    
C14   H5    S    
N8    N25   A    
C47   N34   A    
C4    N31   S    
C32   H2    S    
N3    Ni7   S    
C11   H108  S    
C24   N11   A    
C4    H76   S    
C27   N14   A    
C19   C107  S    
C5    H82   S    
C20   C108  S    
H93   N36   S    
C110  H60   S    
