data_mof_unit_20857.cif
_audit_creation_date              2012-12-10T17:16:34-0500
_audit_creation_method            fapswitch 2.2
_symmetry_space_group_name_H-M    P1
_symmetry_Int_Tables_number       1
_space_group_crystal_system       triclinic
_cell_length_a                    10.192942
_cell_length_b                    10.627177
_cell_length_c                    10.835374
_cell_angle_alpha                 90.879675
_cell_angle_beta                  96.31817
_cell_angle_gamma                 80.804665
_cell_volume                      1151.58812683

loop_
_atom_site_label
_atom_site_type_symbol
_atom_type_description
_atom_site_fract_x
_atom_site_fract_y
_atom_site_fract_z
_atom_type_partial_charge
C1    C     C_R   0.443787 0.506639 0.267429 1.012366
C2    C     C_R   0.494867 0.738165 0.476280 0.919552
C3    C     C_R   0.745440 0.082177 0.415794 0.603348
C4    C     C_R   0.254072 0.905712 0.343379 0.586458
C5    C     C_R   0.860139 0.994175 0.447097 -0.333167
C6    C     C_R   0.134566 0.989791 0.318512 -0.344442
C7    C     C_R   0.855478 0.867017 0.422255 -0.363590
C8    C     C_R   0.133414 0.119883 0.327486 -0.347764
C9    C     C_R   0.732262 0.830370 0.384394 0.569886
C10   C     C_R   0.254428 0.166497 0.351441 0.571183
C11   C     C_R   0.612902 0.912220 0.410230 -0.102870
C12   C     C_R   0.556789 0.489490 0.732385 0.943037
C13   C     C_R   0.372160 0.084157 0.398644 -0.082493
C14   C     C_R   0.617048 0.043968 0.419972 -0.122514
C15   C     C_R   0.370826 0.951232 0.395813 -0.119211
C16   C     C_R   0.491535 0.867885 0.426301 -0.136172
C17   C     C_R   0.494961 0.128915 0.433495 -0.152639
C18   C     C_3   0.724599 0.179705 0.227261 -0.335626
C19   C     C_3   0.280925 0.797488 0.163346 -0.292182
C20   C     C_3   0.714233 0.753969 0.188183 -0.308240
C21   C     C_3   0.269398 0.265616 0.170398 -0.380230
C22   C     C_2   0.885499 0.579484 0.625934 0.493874
C23   C     C_2   0.413396 0.504107 0.134541 -0.380783
C24   C     C_2   0.070464 0.520875 0.338487 0.585266
C25   C     C_2   0.589861 0.477517 0.864693 -0.358986
C26   C     C_2   0.514849 0.476788 0.065793 -0.208604
C27   C     C_2   0.489697 0.477208 0.933915 -0.174345
C28   C     C_2   0.059666 0.523422 0.472971 -0.085394
C29   C     C_2   0.926280 0.510536 0.514061 -0.031546
C30   C     C_R   0.497027 0.260498 0.481127 0.906106
H1    H     H_    0.043279 0.183756 0.293712 0.195313
H2    H     H_    0.141434 0.555455 0.643380 0.182774
H3    H     H_    0.614060 0.190086 0.208619 0.169256
H4    H     H_    0.772511 0.088127 0.188553 0.149387
H5    H     H_    0.757456 0.257785 0.177901 0.176713
H6    H     H_    0.388401 0.769679 0.151592 0.159797
H7    H     H_    0.246197 0.894048 0.121458 0.129496
H8    H     H_    0.222611 0.732515 0.108449 0.206317
H9    H     H_    0.800264 0.797751 0.163849 0.172592
H10   H     H_    0.618683 0.819399 0.162666 0.143022
H11   H     H_    0.711541 0.666198 0.131960 0.192485
H12   H     H_    0.947343 0.800802 0.418800 0.218147
H13   H     H_    0.224381 0.183821 0.128096 0.158186
H14   H     H_    0.375183 0.253178 0.150848 0.177893
H15   H     H_    0.212878 0.351507 0.121651 0.196610
H16   H     H_    0.835391 0.677435 0.619146 0.056902
H17   H     H_    0.049539 0.439340 0.283130 0.030986
H18   H     H_    0.955113 0.026370 0.467191 0.203856
H19   H     H_    0.046349 0.954597 0.276061 0.203294
H20   H     H_    0.386269 0.482805 0.893674 0.197465
H21   H     H_    0.618540 0.457965 0.106163 0.193550
H22   H     H_    0.693080 0.471446 0.905407 0.172758
H23   H     H_    0.310643 0.523655 0.092554 0.159028
H24   H     H_    0.872576 0.402083 0.370412 0.170803
N1    N     N_2   0.157300 0.551390 0.551120 -0.203140
N2    N     N_2   0.842700 0.448610 0.448880 -0.172239
O1    O     O_R   0.568940 0.489660 0.307530 -0.608595
O2    O     O_3   0.262325 0.786572 0.290340 -0.554211
O3    O     O_3   0.729793 0.720365 0.314850 -0.581458
O4    O     O_3   0.262861 0.282161 0.299893 -0.620003
O5    O     O_2   0.911568 0.527711 0.727393 -0.607886
O6    O     O_2   0.090945 0.615325 0.286148 -0.550884
O7    O     O_R   0.431060 0.510340 0.692470 -0.632671
O8    O     O_R   0.348880 0.522640 0.340350 -0.517479
O9    O     O_R   0.651120 0.477360 0.659650 -0.584678
O10   O     O_R   0.610030 0.300280 0.483580 -0.568381
O11   O     O_R   0.389970 0.699720 0.516420 -0.587100
O12   O     O_R   0.389970 0.333270 0.516400 -0.592441
O13   O     O_R   0.610030 0.666730 0.483600 -0.608920
O14   O     O_3   0.764327 0.190613 0.355327 -0.592556
Zn1   Zn    Zn3+2 0.646940 0.477980 0.478080 1.020237
Zn2   Zn    Zn3+2 0.353060 0.522020 0.521920 1.015500

loop_
_geom_bond_atom_site_label_1
_geom_bond_atom_site_label_2
_ccdc_geom_bond_type
C18   O14   S    
C10   O4    S    
O10   Zn1   S    
C1    C23   S    
C30   O12   A    
C19   H8    S    
C1    O1    A    
C25   C27   D    
C2    O13   A    
C2    C16   S    
C18   H5    S    
H2    N1    S    
N1    Zn2   S    
C27   H20   S    
C13   C17   A    
C12   C25   S    
O12   Zn2   S    
N2    Zn1   S    
C12   O9    A    
C12   O7    A    
C4    C15   A    
O8    Zn2   S    
C20   H11   S    
C25   H22   S    
C6    H19   S    
C22   C29   S    
C26   H21   S    
O1    Zn1   S    
C22   O5    D    
C17   C30   S    
C18   H4    S    
C14   C17   A    
C9    C11   A    
C26   C27   S    
C30   O10   A    
C3    C14   A    
C6    C8    A    
C4    C6    A    
C28   C29   S    
C29   N2    D    
C28   N1    D    
C23   H23   S    
C21   H15   S    
C19   H6    S    
C13   C15   A    
C19   O2    S    
C3    C5    A    
C20   H10   S    
C5    H18   S    
H24   N2    S    
C23   C26   D    
O13   Zn1   S    
C18   H3    S    
C15   C16   A    
C21   H14   S    
C1    O8    A    
C7    C9    A    
C3    O14   S    
O7    Zn2   S    
C21   O4    S    
C8    C10   A    
O11   Zn2   S    
C11   C16   A    
C7    H12   S    
C4    O2    S    
C11   C14   A    
C5    C7    A    
C20   H9    S    
C24   O6    D    
C19   H7    S    
C22   H16   S    
O9    Zn1   S    
C24   H17   S    
C9    O3    S    
C21   H13   S    
C8    H1    S    
C24   C28   S    
C20   O3    S    
C2    O11   A    
C10   C13   A    
