data_mof_unit_62878.cif
_audit_creation_date              2012-12-10T20:53:51-0500
_audit_creation_method            fapswitch 2.2
_symmetry_space_group_name_H-M    P1
_symmetry_Int_Tables_number       1
_space_group_crystal_system       triclinic
_cell_length_a                    10.84229
_cell_length_b                    15.850912
_cell_length_c                    15.08092
_cell_angle_alpha                 90.004944
_cell_angle_beta                  103.978789
_cell_angle_gamma                 89.977288
_cell_volume                      2515.05362373

loop_
_atom_site_label
_atom_site_type_symbol
_atom_type_description
_atom_site_fract_x
_atom_site_fract_y
_atom_site_fract_z
_atom_type_partial_charge
C1    C     C_R   0.500043 0.338870 0.499984 0.907465
C2    C     C_1   0.499978 0.500005 0.192840 0.034572
C3    C     C_R   0.258550 0.497838 0.462260 0.946209
C4    C     C_R   0.741453 0.497810 0.537740 0.946230
C5    C     C_2   0.122591 0.488996 0.440501 -0.373061
C6    C     C_2   0.877422 0.488959 0.559498 -0.373275
C7    C     C_2   0.067706 0.473160 0.508598 -0.148934
C8    C     C_2   0.932328 0.473167 0.491393 -0.149088
C9    C     C_R   0.486880 0.956282 0.577934 -0.183647
C10   C     C_R   0.513119 0.043723 0.422066 -0.183700
C11   C     C_R   0.499976 0.913151 0.500009 0.172105
C12   C     C_R   0.499957 0.661128 0.500016 0.913473
C13   C     C_R   0.500023 0.086854 0.499991 0.172081
C14   C     C_R   0.513095 0.956238 0.422075 -0.183764
C15   C     C_R   0.486903 0.043768 0.577924 -0.183807
C16   C     C_1   0.499960 0.824366 0.500019 -0.073596
C17   C     C_1   0.500040 0.175637 0.499981 -0.074092
C18   C     C_1   0.500046 0.250474 0.499978 -0.178767
C19   C     C_1   0.499954 0.749528 0.500022 -0.181156
C20   C     C_R   0.401761 0.460706 0.936068 -0.166277
C21   C     C_R   0.598246 0.539263 0.063932 -0.166398
C22   C     C_R   0.500008 0.499986 0.905039 0.083498
C23   C     C_R   0.499998 0.499987 0.094961 0.083156
C24   C     C_R   0.598248 0.539264 0.970209 -0.164461
C25   C     C_R   0.401759 0.460705 0.029791 -0.164438
C26   C     C_1   0.500023 0.499981 0.807160 0.034649
H1    H     H_    0.877647 0.466179 0.421054 0.189297
H2    H     H_    0.675269 0.570061 0.948630 0.133144
H3    H     H_    0.324742 0.429915 0.887722 0.131469
H4    H     H_    0.675264 0.570055 0.112276 0.132372
H5    H     H_    0.122397 0.466124 0.578931 0.188623
H6    H     H_    0.932336 0.496210 0.629659 0.152139
H7    H     H_    0.067667 0.496289 0.370346 0.151991
H8    H     H_    0.476778 0.077693 0.638174 0.142786
H9    H     H_    0.523221 0.922312 0.361825 0.142925
H10   H     H_    0.476739 0.922392 0.638192 0.143046
H11   H     H_    0.523261 0.077614 0.361808 0.142898
H12   H     H_    0.324738 0.429910 0.051371 0.133055
N1    N     N_1   0.499960 0.500020 0.270540 -0.088893
N2    N     N_1   0.500040 0.499980 0.729460 -0.088893
O1    O     O_R   0.500000 0.378020 0.573650 -0.611092
O2    O     O_R   0.500000 0.621980 0.426350 -0.608173
O3    O     O_R   0.500060 0.378020 0.426320 -0.610963
O4    O     O_R   0.499940 0.621980 0.573680 -0.608039
O5    O     O_R   0.317790 0.500010 0.546150 -0.614817
O6    O     O_R   0.682210 0.499990 0.453850 -0.614971
O7    O     O_R   0.317850 0.500010 0.398830 -0.613158
O8    O     O_R   0.682150 0.499990 0.601170 -0.613140
Zn1   Zn    Zn3+2 0.499960 0.500000 0.598370 0.971748
Zn2   Zn    Zn3+2 0.500040 0.500000 0.401630 0.971670

loop_
_geom_bond_atom_site_label_1
_geom_bond_atom_site_label_2
_ccdc_geom_bond_type
O4    Zn1   S    
C9    H10   S    
C6    H6    S    
O3    Zn2   S    
O5    Zn1   S    
C25   H12   S    
C3    O7    A    
C1    O3    A    
C21   H4    S    
O6    Zn2   S    
C15   H8    S    
C13   C17   S    
C23   C25   A    
C17   C18   T    
C9    C15   A    
C7    C8    S    
C12   O4    A    
C4    O6    A    
C9    C11   A    
C26   N2    T    
C1    C18   S    
O2    Zn2   S    
C10   H11   S    
C6    C8    D    
C12   C19   S    
C1    O1    A    
O8    Zn1   S    
C20   C22   A    
O7    Zn2   S    
C20   H3    S    
C13   C15   A    
C21   C23   A    
C16   C19   T    
C11   C14   A    
C22   C24   A    
C7    H5    S    
C20   C25   A    
C22   C26   S    
N2    Zn1   S    
C14   H9    S    
N1    Zn2   S    
C4    O8    A    
C4    C6    S    
C11   C16   S    
C21   C24   A    
O1    Zn1   S    
C2    C23   S    
C5    C7    D    
C8    H1    S    
C12   O2    A    
C2    N1    T    
C3    O5    A    
C24   H2    S    
C10   C14   A    
C3    C5    S    
C10   C13   A    
C5    H7    S    
