data_mof_unit_33597.cif
_audit_creation_date              2013-03-05T16:03:34-0500
_audit_creation_method            fapswitch 2.2
_symmetry_space_group_name_H-M    P1
_symmetry_Int_Tables_number       1
_space_group_crystal_system       triclinic
_cell_length_a                    8.331146
_cell_length_b                    14.534358
_cell_length_c                    22.81573
_cell_angle_alpha                 93.949258
_cell_angle_beta                  89.812141
_cell_angle_gamma                 92.197246
_cell_volume                      2754.12066744

loop_
_atom_site_label
_atom_site_type_symbol
_atom_site_description
_atom_site_fract_x
_atom_site_fract_y
_atom_site_fract_z
_atom_type_partial_charge
P1    P     P_3+3 0.074990 0.420800 0.372080 0.515337
O1    O     O_2   0.901900 0.448470 0.362340 -0.351773
O2    O     O_3   0.142240 0.449440 0.433360 -0.402600
O3    O     O_3   0.645560 0.619080 0.391970 -0.301326
O4    O     O_2   0.744954 0.540221 0.293823 -0.353454
O5    O     O_3   0.063265 0.300283 0.360765 -0.555593
O6    O     O_3   0.713816 0.711480 0.282957 -0.639917
C1    C     C_3   0.719510 0.854920 0.242484 -0.081036
H1    H     H_    0.850428 0.857588 0.250924 0.130863
H2    H     H_    0.699433 0.817098 0.198760 0.116459
P2    P     P_3+3 0.618830 0.715330 0.538180 0.454176
P3    P     P_3+3 0.075269 0.784008 0.410061 0.435362
O7    O     O_2   0.793170 0.729090 0.520590 -0.346136
O8    O     O_3   0.052800 0.667320 0.419180 -0.417905
O9    O     O_2   0.937217 0.828392 0.445849 -0.374292
O10   O     O_3   0.664863 0.730448 0.613669 -0.621199
O11   O     O_3   0.028418 0.794840 0.336029 -0.544060
C2    C     C_3   0.075018 0.713922 0.303674 0.462197
H3    H     H_    0.997856 0.653548 0.314503 0.161202
H4    H     H_    0.201775 0.700140 0.313605 0.062004
C3    C     C_3   0.062510 0.723680 0.237703 -1.006520
H5    H     H_    0.942781 0.701084 0.220210 0.263807
H6    H     H_    0.091000 0.795009 0.225692 0.259530
C4    C     C_3   0.140602 0.736701 0.581024 0.397603
H7    H     H_    0.263767 0.732125 0.564446 -0.014268
H8    H     H_    0.059816 0.702510 0.547433 0.177825
C5    C     C_3   0.095939 0.836104 0.587689 -0.870810
H9    H     H_    0.175493 0.875965 0.619607 0.248692
H10   H     H_    0.104833 0.867281 0.544789 0.255296
H11   H     H_    0.971050 0.838614 0.604317 0.272738
Ba1   Ba    Ba6+2 0.846250 0.544220 0.470860 1.621875
C6    C     C_3   0.062718 0.259012 0.414613 0.283958
H12   H     H_    0.940354 0.258187 0.432735 0.026541
H13   H     H_    0.140748 0.295226 0.448065 0.138522
C7    C     C_3   0.120070 0.161027 0.404627 -0.091005
H14   H     H_    0.236218 0.161648 0.380555 0.158799
H15   H     H_    0.137853 0.131433 0.447519 0.082137
C8    C     C_3   0.529096 0.740602 0.649823 1.091028
H16   H     H_    0.427760 0.699824 0.630185 0.058721
C9    C     C_3   0.484029 0.841855 0.657690 -1.174036
H17   H     H_    0.586672 0.886496 0.674323 0.243691
H18   H     H_    0.382737 0.849276 0.689182 0.276363
H19   H     H_    0.448102 0.866605 0.615076 0.213414
P4    P     P_3+3 0.114710 0.579280 0.627920 0.497972
O12   O     O_2   0.287790 0.551560 0.637690 -0.355587
O13   O     O_3   0.047460 0.550640 0.566640 -0.406838
O14   O     O_3   0.544140 0.380990 0.608030 -0.357965
O15   O     O_3   0.128088 0.699832 0.636231 -0.564117
P5    P     P_3+3 0.112870 0.213648 0.585548 0.486906
O16   O     O_3   0.640350 0.387150 0.474440 -0.335655
O17   O     O_3   0.136890 0.332750 0.580830 -0.404662
O18   O     O_2   0.252568 0.169559 0.550478 -0.374990
O19   O     O_3   0.151639 0.189646 0.658096 -0.474023
Ba2   Ba    Ba6+2 0.343570 0.455860 0.529140 1.619644
P6    P     P_3+3 0.626763 0.614829 0.315178 0.556969
C10   C     C_3   0.632377 0.795469 0.289572 1.375665
O20   O     O_3   0.549340 0.612930 0.525560 -0.372124
C11   C     C_3   0.648629 0.272571 0.345015 0.831626
H20   H     H_    0.766109 0.287667 0.365898 0.029326
C12   C     C_3   0.673614 0.203635 0.292227 -0.901236
H21   H     H_    0.559114 0.189017 0.267895 0.258321
H22   H     H_    0.765608 0.231674 0.262185 0.241568
H23   H     H_    0.714650 0.137455 0.306861 0.285595
P7    P     P_3+3 0.574684 0.269735 0.457316 0.472950
O21   O     O_2   0.396530 0.270940 0.479440 -0.368628
O22   O     O_3   0.538327 0.233134 0.383224 -0.624130
H24   H     H_    0.148914 0.678319 0.215560 0.277801
C13   C     C_3   0.100778 0.263259 0.695892 0.482495
H25   H     H_    0.171319 0.327531 0.688223 0.151688
H26   H     H_    0.971092 0.274638 0.689809 -0.013062
C14   C     C_3   0.128705 0.241083 0.759099 -0.926126
H27   H     H_    0.258268 0.230911 0.766498 0.288319
H28   H     H_    0.090036 0.299107 0.789321 0.243079
H29   H     H_    0.059283 0.177174 0.768815 0.246264
P8    P     P_3+3 0.557984 0.410897 0.684364 0.490416
C15   C     C_3   0.606826 0.235414 0.700676 1.249917
H30   H     H_    0.702294 0.247542 0.667495 -0.164854
O23   O     O_2   0.395142 0.449384 0.703601 -0.387475
O24   O     O_3   0.559746 0.318168 0.729384 -0.574741
H31   H     H_    0.720302 0.113448 0.733607 0.199115
C16   C     C_3   0.673741 0.180541 0.749980 -1.104531
H32   H     H_    0.577919 0.167330 0.782674 0.276656
H33   H     H_    0.773340 0.221232 0.772724 0.279581
H34   H     H_    0.958872 0.289304 0.055506 0.167016
H35   H     H_    0.873218 0.290908 0.953853 0.167963
C17   C     C_R   0.321498 0.536508 0.331032 -0.387834
C18   C     C_R   0.102543 0.580308 0.934897 -0.051043
C19   C     C_R   0.052985 0.580339 0.875667 0.524598
O25   O     O_2   0.084405 0.647908 0.848060 -0.590984
N1    N     N_R   0.967396 0.505265 0.848961 -0.163259
C20   C     C_R   0.927958 0.429456 0.880861 0.511342
O26   O     O_2   0.851942 0.363451 0.857426 -0.599443
C21   C     C_R   0.976265 0.427305 0.940308 -0.045156
C22   C     C_R   0.063794 0.503355 0.967391 -0.015995
C23   C     C_R   0.189947 0.655801 0.962449 -0.129675
C24   C     C_R   0.237672 0.655037 0.020982 -0.123409
C25   C     C_R   0.199690 0.578728 0.054078 -0.024772
C26   C     C_R   0.112810 0.502621 0.027237 -0.019967
C27   C     C_R   0.939949 0.350711 0.973323 -0.118527
C28   C     C_R   0.989476 0.349768 0.031948 -0.114427
C29   C     C_R   0.076046 0.425672 0.059826 -0.063294
C30   C     C_R   0.126979 0.426060 0.119311 0.552206
N2    N     N_R   0.207416 0.503019 0.146835 -0.162548
C31   C     C_R   0.246502 0.578013 0.113483 0.489926
C32   C     C_2   0.763791 0.495159 0.770835 -0.218177
C33   C     C_3   0.715316 0.500102 0.706716 0.258929
C34   C     C_1   0.997820 0.524770 0.684783 0.285982
C35   C     C_2   0.043091 0.523837 0.740520 -0.258871
C36   C     C_2   0.920195 0.506522 0.787327 0.121566
C37   C     C_R   0.398811 0.548539 0.229443 -0.119889
C38   C     C_R   0.430206 0.567063 0.289362 0.288413
C39   C     C_R   0.187529 0.481275 0.313979 0.268220
C40   C     C_R   0.147013 0.470014 0.253404 -0.223218
C41   C     C_R   0.251145 0.506031 0.209736 0.100170
O27   O     O_2   0.102155 0.356888 0.145973 -0.579901
O28   O     O_2   0.321755 0.645442 0.135360 -0.612578
C42   C     C_2   0.858380 0.488587 0.666799 -0.444611
H36   H     H_    0.304536 0.714914 0.040299 0.169767
H37   H     H_    0.490451 0.567687 0.198389 0.169422
H38   H     H_    0.221857 0.716011 0.938813 0.170535
H39   H     H_    0.167835 0.537197 0.752690 0.201024
H40   H     H_    0.670897 0.486907 0.803756 0.173435
H41   H     H_    0.034674 0.434370 0.241048 0.194973
H42   H     H_    0.348797 0.549317 0.377284 0.176039
H43   H     H_    0.848123 0.448491 0.624877 0.158034
C43   C     C_R   0.688813 0.937461 0.531063 -0.164123
C44   C     C_R   0.510726 0.802360 0.497647 0.195773
C45   C     C_R   0.376296 0.769247 0.464216 -0.384485
C46   C     C_R   0.273755 0.829211 0.438615 0.230679
C47   C     C_R   0.314623 0.923438 0.441071 -0.284453
C48   C     C_R   0.454206 0.958594 0.470857 0.078083
C49   C     C_R   0.551856 0.898862 0.500756 -0.014713
H44   H     H_    0.344224 0.696233 0.461853 0.142615
C50   C     C_R   0.634282 0.091278 0.500298 0.001668
C51   C     C_R   0.733068 0.032344 0.530289 -0.099688
C52   C     C_R   0.677349 0.186870 0.500755 0.271595
C53   C     C_R   0.813959 0.221962 0.531217 -0.564650
C54   C     C_R   0.917500 0.164155 0.557044 0.088504
C55   C     C_R   0.874567 0.069943 0.559167 0.509756
C56   C     C_R   0.496414 0.053118 0.470866 -0.132252
H45   H     H_    0.236021 0.969350 0.420519 0.154263
H46   H     H_    0.846665 0.294778 0.531225 0.178360
H47   H     H_    0.762941 0.893791 0.554687 0.196242
H48   H     H_    0.420942 0.096421 0.447272 0.150842
O29   O     O_3   0.644108 0.827786 0.350185 -0.675090
C57   C     C_3   0.721309 0.915185 0.361452 -0.000771
H49   H     H_    0.647342 0.971898 0.348454 0.150896
H50   H     H_    0.842669 0.919706 0.342121 0.207459
H51   H     H_    0.738160 0.927493 0.409128 0.199665
N3    N     N_R   0.000803 0.103958 0.371568 0.248406
O30   O     O_R   0.035086 0.064963 0.320256 -0.421202
O31   O     O_R   0.859376 0.090831 0.394270 -0.513971
O32   O     O_3   0.553306 0.704061 0.705218 -0.638006
C58   C     C_3   0.704732 0.731126 0.730077 -0.117478
H52   H     H_    0.721616 0.807186 0.736629 0.126607
H53   H     H_    0.804654 0.701439 0.703518 0.157817
H54   H     H_    0.711450 0.703473 0.774079 0.155290
O33   O     O_3   0.467668 0.779406 0.274574 -0.699733
C59   C     C_3   0.384222 0.862882 0.274976 -0.169795
H55   H     H_    0.369361 0.883045 0.229314 0.191829
H56   H     H_    0.436294 0.921061 0.303048 0.158814
H57   H     H_    0.265800 0.854180 0.294395 0.182959
O34   O     O_3   0.665396 0.945784 0.241149 -0.634703
C60   C     C_3   0.749495 0.991850 0.197359 -0.117048
H58   H     H_    0.732433 0.955200 0.153254 0.124197
H59   H     H_    0.879496 0.000733 0.208151 0.171179
H60   H     H_    0.701103 0.061522 0.195230 0.171156
N4    N     N_R   0.585349 0.357917 0.326558 0.226025
O35   O     O_R   0.548073 0.368052 0.272055 -0.430229
O36   O     O_R   0.557602 0.423342 0.366374 -0.375467
O37   O     O_3   0.469065 0.190718 0.673698 -0.580977
C61   C     C_3   0.499343 0.100191 0.651075 -0.148889
H61   H     H_    0.482810 0.051305 0.686084 0.146831
H62   H     H_    0.620554 0.095148 0.631849 0.054323
H63   H     H_    0.411427 0.078481 0.616150 0.223135
O38   O     O_3   0.973339 0.015090 0.588778 -0.610079
C62   C     C_3   0.925183 0.017647 0.648205 -0.241200
H64   H     H_    0.909126 0.088985 0.667080 0.146146
H65   H     H_    0.020039 0.988250 0.674396 0.191111
H66   H     H_    0.813007 0.975419 0.653165 0.111455

loop_
_geom_bond_atom_site_label_1
_geom_bond_atom_site_label_2
_geom_bond_distance
_ccdc_geom_bond_type
O5    C6    1.403738 S    
O37   C61   1.411500 S    
P7    C52   1.847521 S    
C21   C22   1.407994 A    
C5    H10   1.107668 S    
C2    C3    1.525824 S    
O16   P7    1.789475 S    
P2    C44   1.876271 S    
C23   C24   1.395553 A    
C15   O24   1.398377 S    
O6    P6    1.760806 S    
C35   H39   1.083450 S    
C53   H46   1.082676 S    
C45   C46   1.400370 A    
C1    C10   1.581908 S    
C16   H32   1.111151 S    
Ba2   O21   2.893446 S    
C61   H61   1.109851 S    
C51   C55   1.424268 A    
O16   Ba2   2.943744 S    
C12   H23   1.106241 S    
C24   H36   1.083295 S    
C60   H58   1.112596 S    
C7    H15   1.108380 S    
C4    H8    1.101175 S    
P1    O1    1.532801 D    
P1    C39   1.870304 S    
C50   C56   1.408094 A    
C8    H16   1.091921 S    
H31   C16   1.104018 S    
O2    Ba2   2.753453 S    
C22   C26   1.427318 A    
C11   C12   1.531642 S    
C18   C22   1.410595 A    
C43   H47   1.074307 S    
P1    Ba1   3.406731 S    
C35   C36   1.504065 S    
C12   H22   1.111023 S    
C2    H3    1.109000 S    
C10   O29   1.431990 S    
C47   H45   1.082881 S    
O19   C13   1.404709 S    
O7    Ba1   2.893199 S    
C44   C49   1.428038 A    
C10   O33   1.422001 S    
C30   O27   1.221095 D    
C6    H13   1.097206 S    
C3    H5    1.105236 S    
C31   O28   1.220738 D    
C11   O22   1.398632 S    
C9    H19   1.105738 S    
O34   C60   1.410315 S    
P4    O13   1.532671 S    
C1    H1    1.106930 S    
C62   H65   1.108291 S    
Ba1   O13   2.752843 S    
C18   C23   1.405723 A    
P3    O11   1.753798 S    
C34   C35   1.328736 D    
C4    C5    1.503159 S    
C48   C56   1.404992 A    
C7    N3    1.449047 S    
C11   N4    1.455178 S    
C21   C27   1.409419 A    
C58   H53   1.111119 S    
C61   H63   1.105659 S    
C62   H66   1.108052 S    
C9    H18   1.110106 S    
P2    Ba1   3.456880 S    
P5    C54   1.855377 S    
C3    H24   1.093694 S    
C5    H11   1.107369 S    
C55   O38   1.377435 S    
O6    C10   1.418008 S    
C39   C40   1.420745 A    
C16   H33   1.109271 S    
C61   H62   1.102667 S    
C25   C26   1.403837 A    
C57   H50   1.103212 S    
O8    Ba1   2.755691 S    
P3    C46   1.858853 S    
C57   H49   1.104963 S    
P1    O5    1.751911 S    
C4    O15   1.404450 S    
C29   C30   1.422873 A    
N4    O35   1.302205 A    
N2    C41   1.479133 S    
C15   H30   1.113767 S    
C58   H54   1.109154 S    
C20   O26   1.221589 D    
C14   H28   1.108930 S    
C13   H25   1.108323 S    
C50   C52   1.420908 A    
P5    O17   1.745622 S    
C11   H20   1.097849 S    
C37   C38   1.398600 A    
O1    Ba1   2.801677 S    
P1    O2    1.532673 S    
C7    H14   1.111122 S    
P7    O22   1.760541 S    
C15   C16   1.540797 S    
C15   O37   1.417922 S    
C17   C39   1.390202 A    
C6    C7    1.521569 S    
H35   C27   1.083179 S    
C20   C21   1.418767 A    
C57   H51   1.098729 S    
P2    O10   1.762817 S    
C59   H55   1.110068 S    
C40   H41   1.080847 S    
P3    O9    1.543966 D    
C43   C49   1.413307 A    
P5    O18   1.544614 D    
C24   C25   1.409726 A    
O13   Ba2   2.966461 S    
C59   H56   1.101150 S    
O11   C2    1.411514 S    
C59   H57   1.086712 S    
C4    H7    1.095256 S    
O2    Ba1   2.965613 S    
C58   H52   1.108906 S    
P8    C33   1.855308 S    
O14   Ba2   2.764966 S    
C13   H26   1.109867 S    
C9    H17   1.105403 S    
P3    O8    1.725891 S    
O12   Ba2   2.802135 S    
C3    H6    1.107276 S    
C33   C42   1.505073 S    
C17   H42   1.082245 S    
O33   C59   1.420755 S    
N3    O31   1.298200 A    
Ba1   O16   2.808094 S    
C44   C45   1.407630 A    
O29   C57   1.409562 S    
C5    H9    1.104909 S    
P4    O12   1.533060 D    
C42   H43   1.087060 S    
C40   C41   1.431995 A    
C53   C54   1.387206 A    
P4    C34   1.825745 S    
C37   C41   1.415777 A    
O38   C62   1.411153 S    
P6    C38   1.836662 S    
O4    P6    1.545567 D    
C60   H60   1.108397 S    
C56   H48   1.077255 S    
C19   N1    1.386339 Am   
C52   C53   1.396550 A    
C1    O34   1.414069 S    
C37   H37   1.081514 S    
C43   C51   1.415053 A    
C14   H29   1.110315 S    
C50   C51   1.420482 A    
C23   H38   1.083292 S    
C26   C29   1.408644 A    
C32   C33   1.526085 S    
N1    C36   1.462917 S    
C27   C28   1.402172 A    
C25   C31   1.412431 A    
O17   Ba2   2.756542 S    
C6    H12   1.098780 S    
Ba1   O20   2.944667 S    
C60   H59   1.112193 S    
C47   C48   1.409614 A    
C46   C47   1.395873 A    
O14   P8    1.768803 S    
C14   H27   1.110114 S    
O3    P6    1.756184 S    
P4    O15   1.748649 S    
C45   H44   1.082105 S    
P7    O21   1.566494 D    
C8    C9    1.531164 S    
P2    O7    1.515137 D    
N1    C20   1.390286 Am   
C32   C36   1.358267 D    
C13   C14   1.519750 S    
P5    O19   1.748559 S    
N4    O36   1.295928 A    
C28   C29   1.409676 A    
C32   H40   1.085821 S    
C17   C38   1.393925 A    
C2    H4    1.109367 S    
Ba1   Ba2   4.611210 S    
C30   N2    1.393961 Am   
P8    O23   1.538363 D    
O3    Ba1   2.765520 S    
H34   C28   1.083140 S    
C54   C55   1.405968 A    
P4    Ba2   3.407307 S    
C19   O25   1.222351 D    
C18   C19   1.414374 A    
C1    H2    1.115296 S    
C62   H64   1.107777 S    
N2    C31   1.399490 Am   
N3    O30   1.300850 A    
C12   H21   1.111292 S    
C8    O32   1.422143 S    
O32   C58   1.415575 S    
P2    O20   1.584029 S    
P8    O24   1.750431 S    
C34   C42   1.311872 D    
C48   C49   1.421375 A    
O10   C8    1.404108 S    
Ba2   O20   2.807466 S    
