data_mof_unit_7679.cif
_audit_creation_date              2012-12-10T17:25:20-0500
_audit_creation_method            fapswitch 2.2
_symmetry_space_group_name_H-M    P1
_symmetry_Int_Tables_number       1
_space_group_crystal_system       triclinic
_cell_length_a                    27.747634
_cell_length_b                    10.940827
_cell_length_c                    9.628416
_cell_angle_alpha                 88.590566
_cell_angle_beta                  91.085235
_cell_angle_gamma                 93.482001
_cell_volume                      2916.28976635

loop_
_atom_site_label
_atom_site_type_symbol
_atom_type_description
_atom_site_fract_x
_atom_site_fract_y
_atom_site_fract_z
_atom_type_partial_charge
C1    C     C_R   0.498632 0.262586 0.501305 0.898570
C2    C     C_R   0.275842 0.510077 0.375223 0.488012
C3    C     C_R   0.252175 0.478478 0.499973 0.197001
C4    C     C_R   0.100402 0.478343 0.504436 -0.108536
C5    C     C_R   0.123458 0.367148 0.504665 -0.046974
C6    C     C_R   0.095742 0.257058 0.490470 -0.175948
C7    C     C_R   0.128284 0.590839 0.494551 -0.190605
C8    C     C_R   0.353724 0.491262 0.494407 -0.163353
C9    C     C_R   0.644319 0.477152 0.504421 -0.126462
C10   C     C_R   0.971387 0.362002 0.542039 -0.020756
C11   C     C_R   0.976133 0.587519 0.537478 -0.108418
C12   C     C_R   0.407333 0.496321 0.498126 0.898200
C13   C     C_R   0.948494 0.474623 0.540774 -0.053771
C14   C     C_R   0.943175 0.254401 0.581672 0.509110
C15   C     C_R   0.892939 0.253164 0.573266 -0.202961
C16   C     C_R   0.869818 0.361990 0.549789 -0.061803
C17   C     C_R   0.897480 0.474035 0.545846 -0.133941
C18   C     C_R   0.874126 0.584923 0.546204 -0.195096
C19   C     C_R   0.823238 0.580404 0.534168 0.588670
C20   C     C_R   0.819436 0.361865 0.537774 0.574829
C21   C     C_R   0.716860 0.409069 0.619793 -0.129980
C22   C     C_R   0.666651 0.410795 0.613130 0.186915
C23   C     C_R   0.495655 0.736870 0.498841 0.912215
C24   C     C_R   0.672827 0.532720 0.398803 -0.264694
C25   C     C_R   0.722897 0.527740 0.404547 -0.087531
C26   C     C_R   0.745298 0.468238 0.516699 0.270984
C27   C     C_R   0.021753 0.362596 0.517028 -0.003046
C28   C     C_R   0.049370 0.476404 0.512245 -0.025463
C29   C     C_R   0.026267 0.588192 0.509291 -0.089584
C30   C     C_R   0.045569 0.255523 0.485150 0.304629
C31   C     C_R   0.104180 0.699947 0.469562 0.212830
C32   C     C_R   0.952765 0.694980 0.572033 0.449001
C33   C     C_R   0.902187 0.695504 0.566393 0.404525
C34   C     C_R   0.591993 0.491988 0.501299 0.834070
C35   C     C_R   0.053596 0.695836 0.465581 0.452429
C36   C     C_R   0.437327 0.118020 0.699729 0.493461
C37   C     C_R   0.419666 0.053852 0.816438 -0.290893
C38   C     C_R   0.418389 0.927144 0.819406 0.213873
C39   C     C_R   0.435011 0.866980 0.704175 0.248355
C40   C     C_R   0.465980 0.930378 0.607203 -0.104888
C41   C     C_R   0.467416 0.060492 0.606496 -0.074769
C42   C     C_R   0.493851 0.128425 0.502800 -0.224544
C43   C     C_R   0.513888 0.067604 0.393310 0.371689
C44   C     C_R   0.505963 0.941828 0.383442 0.360298
C45   C     C_R   0.173953 0.369203 0.506512 0.545169
C46   C     C_R   0.488529 0.870607 0.497135 -0.203019
C47   C     C_R   0.558676 0.674700 0.146847 -0.172125
C48   C     C_R   0.577176 0.780482 0.081411 -0.261357
C49   C     C_R   0.570251 0.795854 0.941166 0.166833
C50   C     C_R   0.557135 0.692300 0.862853 0.452711
C51   C     C_R   0.528509 0.590622 0.925595 0.070245
C52   C     C_R   0.528690 0.587269 0.075336 0.142419
C53   C     C_R   0.472737 0.416806 0.074450 0.029463
C54   C     C_R   0.472992 0.416332 0.927009 -0.001238
C55   C     C_R   0.179153 0.587748 0.501212 0.685820
C56   C     C_R   0.278850 0.451457 0.619905 -0.162770
C57   C     C_R   0.329032 0.457660 0.617216 -0.198283
C58   C     C_R   0.326556 0.519961 0.372597 0.173174
Cu1   Cu    Cu3+1 0.500000 0.499990 0.640660 1.060347
Cu2   Cu    Cu3+1 0.500000 0.500010 0.359340 1.001620
H1    H     H_    0.260592 0.427003 0.715961 0.175813
H2    H     H_    0.656468 0.582749 0.313530 0.167000
H3    H     H_    0.744415 0.572311 0.323119 0.160776
H4    H     H_    0.398952 0.100385 0.890943 0.182831
H5    H     H_    0.450188 0.348535 0.129856 0.134878
H6    H     H_    0.566502 0.670661 0.254881 0.229887
H7    H     H_    0.595814 0.852174 0.140995 0.225875
H8    H     H_    0.450666 0.347793 0.873111 0.159585
H9    H     H_    0.113014 0.172887 0.471985 0.236452
H10   H     H_    0.733923 0.361741 0.705857 0.181674
H11   H     H_    0.872225 0.167536 0.593145 0.210181
H12   H     H_    0.348640 0.435973 0.712113 0.212880
N1    N     N_R   0.200541 0.478282 0.505457 -0.454894
N2    N     N_R   0.797153 0.470078 0.527809 -0.463070
N3    N     N_R   0.500460 0.501210 0.147910 -0.179240
N4    N     N_R   0.500480 0.501290 0.852040 -0.174640
O1    O     O_R   0.500000 0.319640 0.618810 -0.542658
O2    O     O_2   0.792975 0.254293 0.533789 -0.526093
O3    O     O_2   0.207420 0.692180 0.505211 -0.430039
O4    O     O_2   0.799832 0.684981 0.529657 -0.495674
O5    O     O_R   0.500000 0.319660 0.381240 -0.563037
O6    O     O_R   0.430260 0.500010 0.618770 -0.542735
O7    O     O_R   0.430270 0.500030 0.381200 -0.567497
O8    O     O_R   0.500000 0.680340 0.618760 -0.532903
O9    O     O_R   0.500000 0.680360 0.381190 -0.570268
O10   O     O_R   0.569730 0.499970 0.618800 -0.500733
O11   O     O_R   0.569740 0.499990 0.381230 -0.619915
O12   O     O_2   0.196422 0.263138 0.507687 -0.522940
Br1   Br    Br    0.355619 0.581010 0.202073 -0.391397
Br2   Br    Br    0.136776 0.856748 0.424211 -0.314566
O13   O     O_3   0.978145 0.799873 0.617639 -0.471131
C59   C     C_3   0.997824 0.776809 0.751528 -0.249230
H13   H     H_    0.029186 0.718779 0.746952 0.156904
H14   H     H_    0.970454 0.733666 0.823592 0.097100
H15   H     H_    0.011070 0.865398 0.796034 0.197202
O14   O     O_3   0.880791 0.806029 0.576232 -0.493751
C60   C     C_3   0.871176 0.826991 0.716859 -0.140834
H16   H     H_    0.855019 0.744129 0.772204 0.116953
H17   H     H_    0.844741 0.898884 0.720619 0.194941
H18   H     H_    0.904378 0.862271 0.772174 0.158874
O15   O     O_3   0.031411 0.796476 0.410217 -0.472098
C61   C     C_3   0.017294 0.772315 0.271537 -0.185082
H19   H     H_    0.989223 0.695474 0.265951 0.123824
H20   H     H_    0.048839 0.752752 0.207634 0.145641
H21   H     H_    0.001323 0.854909 0.225620 0.210692
O16   O     O_3   0.537837 0.131628 0.286872 -0.551404
C62   C     C_3   0.587672 0.138068 0.319350 -0.156061
H22   H     H_    0.595609 0.187138 0.417941 0.145690
H23   H     H_    0.602023 0.045211 0.325497 0.163913
H24   H     H_    0.606948 0.190676 0.235163 0.200974
O17   O     O_3   0.414805 0.222394 0.658612 -0.607096
C63   C     C_3   0.372662 0.187454 0.579957 -0.304883
H25   H     H_    0.371641 0.093191 0.537431 0.183158
H26   H     H_    0.370021 0.250189 0.488645 0.164017
H27   H     H_    0.340402 0.194814 0.644950 0.207057
O18   O     O_3   0.249174 0.541813 0.258457 -0.524259
C64   C     C_3   0.238406 0.435618 0.180897 -0.225234
H28   H     H_    0.214835 0.367530 0.239475 0.166180
H29   H     H_    0.271778 0.393140 0.148785 0.171096
H30   H     H_    0.218423 0.461818 0.084924 0.199083
Br3   Br    Br    0.377964 0.843262 0.955442 -0.410208
Br4   Br    Br    0.389902 0.744443 0.637017 -0.443259
O19   O     O_3   0.515751 0.889293 0.259868 -0.584034
C65   C     C_3   0.474155 0.893669 0.173734 -0.124059
H31   H     H_    0.465919 0.989772 0.146629 0.171961
H32   H     H_    0.442379 0.843853 0.222667 0.193675
H33   H     H_    0.480810 0.847713 0.075279 0.193597
Br5   Br    Br    0.588939 0.951147 0.854538 -0.448329
O20   O     O_3   0.578751 0.688909 0.735751 -0.531652
C66   C     C_3   0.629299 0.678938 0.755137 -0.234220
H34   H     H_    0.636952 0.590897 0.808700 0.175849
H35   H     H_    0.647320 0.755642 0.813394 0.182038
H36   H     H_    0.646432 0.682628 0.652123 0.182399
Br6   Br    Br    0.630925 0.315961 0.751834 -0.471124
O21   O     O_3   0.963642 0.151803 0.637835 -0.520066
C67   C     C_3   0.974762 0.172241 0.779176 -0.265499
H37   H     H_    0.941813 0.189765 0.838046 0.147013
H38   H     H_    0.002552 0.249065 0.791739 0.152555
H39   H     H_    0.989908 0.088611 0.825149 0.197066
Br7   Br    Br    0.014765 0.118116 0.389307 -0.386135

loop_
_geom_bond_atom_site_label_1
_geom_bond_atom_site_label_2
_ccdc_geom_bond_type
C10   C27   A    
C6    H9    S    
C21   C26   A    
O15   C61   S    
C61   H19   S    
C1    O1    A    
C41   C42   A    
O17   C63   S    
Cu1   O6    S    
C7    C55   A    
C52   N3    A    
Cu1   O1    S    
C63   H26   S    
C60   H16   S    
O21   C67   S    
C53   C54   A    
O18   C64   S    
C40   C46   A    
C39   Br4   S    
C22   Br6   S    
C36   C37   A    
C67   H39   S    
C25   H3    S    
C5    C6    A    
Cu2   O7    S    
C9    C22   A    
C32   O13   S    
C54   H8    S    
O16   C62   S    
C1    O5    A    
C15   C16   A    
C56   C57   A    
C61   H21   S    
C45   N1    A    
C18   C19   A    
C34   O10   A    
C4    C28   A    
C2    O18   S    
C16   C17   A    
C62   H22   S    
C53   H5    S    
C47   H6    S    
C8    C12   S    
C8    C58   A    
Cu1   Cu2   S    
C57   H12   S    
C23   C46   S    
C21   C22   A    
C27   C30   A    
C62   H23   S    
C36   C41   A    
C53   N3    A    
C4    C7    A    
C63   H25   S    
C60   H17   S    
Cu2   O11   S    
C44   C46   A    
C17   C18   A    
C7    C31   A    
C23   O8    A    
C20   N2    A    
C51   C52   A    
O19   C65   S    
C45   O12   S    
C30   Br7   S    
C24   C25   A    
C67   H38   S    
C10   C14   A    
C64   H30   S    
C39   C40   A    
C67   H37   S    
C25   C26   A    
C5    C45   A    
C59   H15   S    
C12   O7    A    
C43   O16   S    
C66   H35   S    
C43   C44   A    
C37   C38   A    
C50   O20   S    
C8    C57   A    
C55   O3    S    
C3    C56   A    
C47   C48   A    
C16   C20   A    
C31   Br2   S    
O14   C60   S    
C36   O17   S    
C59   H14   S    
C50   C51   A    
C12   O6    A    
C51   N4    A    
C61   H20   S    
C65   H33   S    
C54   N4    A    
C40   C41   A    
C6    C30   A    
C11   C32   A    
C9    C34   S    
C62   H24   S    
C31   C35   A    
C66   H36   S    
C42   C43   A    
C33   O14   S    
O13   C59   S    
C37   H4    S    
C65   H32   S    
O20   C66   S    
C49   Br5   S    
C28   C29   A    
C24   H2    S    
C60   H18   S    
C44   O19   S    
C14   C15   A    
C19   N2    A    
C4    C5    A    
C35   O15   S    
C10   C13   A    
Cu2   O9    S    
C2    C58   A    
C9    C24   A    
C47   C52   A    
C20   O2    S    
C15   H11   S    
C29   C35   A    
Cu2   N3    S    
Cu1   O8    S    
C13   C17   A    
C21   H10   S    
C32   C33   A    
C64   H29   S    
C66   H34   S    
Cu1   O10   S    
C64   H28   S    
C11   C13   A    
C38   C39   A    
C48   C49   A    
C59   H13   S    
C26   N2    S    
Cu2   O5    S    
C58   Br1   S    
C2    C3    A    
C34   O11   A    
C48   H7    S    
C19   O4    S    
C3    N1    S    
C18   C33   A    
C38   Br3   S    
C55   N1    A    
C1    C42   S    
C11   C29   A    
C49   C50   A    
C23   O9    A    
C27   C28   A    
C56   H1    S    
Cu1   N4    S    
C63   H27   S    
C14   O21   S    
C65   H31   S    
