data_mof_unit_39273.cif
_audit_creation_date              2012-12-11T16:08:36-0500
_audit_creation_method            fapswitch 2.2
_symmetry_space_group_name_H-M    P1
_symmetry_Int_Tables_number       1
_space_group_crystal_system       triclinic
_cell_length_a                    12.937446
_cell_length_b                    13.347053
_cell_length_c                    27.824269
_cell_angle_alpha                 94.70279
_cell_angle_beta                  89.907584
_cell_angle_gamma                 119.384643
_cell_volume                      4168.24907844

loop_
_atom_site_label
_atom_site_type_symbol
_atom_type_description
_atom_site_fract_x
_atom_site_fract_y
_atom_site_fract_z
_atom_type_partial_charge
C1    C     C_R   0.628407 0.897126 0.427224 0.541922
C2    C     C_R   0.598911 0.262278 0.222632 -0.119855
C3    C     C_R   0.586838 0.248332 0.271981 -0.013758
C4    C     C_R   0.672105 0.332717 0.306293 0.043040
C5    C     C_R   0.695195 0.359528 0.206556 0.002843
C6    C     C_1   0.701379 0.377712 0.155907 -0.056979
C7    C     C_1   0.658770 0.312113 0.357109 -0.042766
C8    C     C_1   0.706470 0.400461 0.114515 -0.007517
C9    C     C_R   0.251529 0.785799 0.341580 -0.012292
C10   C     C_R   0.199654 0.754592 0.295463 0.020444
C11   C     C_R   0.163559 0.740586 0.196843 0.012670
C12   C     C_R   0.603087 0.225642 0.441595 0.539039
C13   C     C_R   0.189794 0.662318 0.216134 -0.130898
C14   C     C_R   0.206512 0.668348 0.265335 -0.133393
C15   C     C_R   0.155291 0.739331 0.147494 -0.125175
C16   C     C_R   0.116684 0.807941 0.127538 -0.008044
C17   C     C_R   0.155675 0.904203 0.358879 -0.020354
C18   C     C_R   0.133768 0.897762 0.308540 0.028942
C19   C     C_R   0.155064 0.821416 0.277251 0.042286
C20   C     C_R   0.097913 0.969885 0.288357 -0.116089
C21   C     C_R   0.089331 0.970627 0.238279 -0.011741
C22   C     C_R   0.110901 0.894165 0.207322 -0.003625
C23   C     C_R   0.273103 0.877364 0.424653 0.532230
C24   C     C_R   0.141445 0.817862 0.227180 0.049910
C25   C     C_R   0.099889 0.889071 0.157011 -0.130494
C26   C     C_R   0.222832 0.854540 0.374973 0.038545
C27   C     C_R   0.686984 0.968212 0.347502 -0.031779
C28   C     C_R   0.715792 0.955769 0.299970 0.009165
C29   C     C_R   0.717003 0.924427 0.199607 -0.010640
C30   C     C_R   0.773890 0.035819 0.223308 -0.112982
C31   C     C_R   0.778610 0.052099 0.273009 -0.013503
C32   C     C_R   0.715741 0.908747 0.149269 -0.021061
C33   C     C_R   0.676891 0.797590 0.127202 -0.018753
C34   C     C_R   0.626728 0.899157 0.565216 0.555914
C35   C     C_R   0.618862 0.764475 0.355785 -0.057319
C36   C     C_R   0.620902 0.746572 0.305150 -0.020400
C37   C     C_R   0.669700 0.842978 0.277429 0.019971
C38   C     C_R   0.571403 0.634874 0.281449 -0.108056
C39   C     C_R   0.566015 0.617248 0.231097 -0.005731
C40   C     C_R   0.615796 0.713930 0.203640 0.023701
C41   C     C_R   0.668137 0.826957 0.226912 0.034245
C42   C     C_R   0.620076 0.700962 0.153573 -0.148292
C43   C     C_R   0.648541 0.875195 0.376618 -0.007048
C44   C     C_R   0.715210 0.264184 0.654681 -0.126069
C45   C     C_R   0.603793 0.227803 0.578153 0.554302
C46   C     C_R   0.738961 0.302889 0.703661 0.035410
C47   C     C_R   0.767707 0.368326 0.803333 -0.004534
C48   C     C_R   0.813938 0.300012 0.783344 -0.101798
C49   C     C_R   0.799615 0.265829 0.733825 0.014420
C50   C     C_R   0.776609 0.395955 0.853127 -0.122038
C51   C     C_R   0.725243 0.459670 0.873576 -0.000207
C52   C     C_R   0.612572 0.373330 0.644273 -0.027450
C53   C     C_R   0.634842 0.413333 0.693733 -0.003417
C54   C     C_R   0.695606 0.375546 0.723475 0.037170
C55   C     C_R   0.593192 0.485930 0.714798 -0.129986
C56   C     C_R   0.271806 0.879302 0.563398 0.546145
C57   C     C_R   0.605428 0.515265 0.764416 -0.131448
C58   C     C_R   0.661628 0.475157 0.794017 0.010913
C59   C     C_R   0.709427 0.407339 0.773494 0.054593
C60   C     C_R   0.668883 0.499957 0.844015 -0.141228
C61   C     C_R   0.647623 0.293560 0.625649 -0.014149
C62   C     C_1   0.223473 0.862589 0.610347 -0.001148
C63   C     C_R   0.065726 0.780782 0.720685 -0.002476
C64   C     C_R   0.052222 0.773594 0.770428 -0.103582
C65   C     C_R   0.264365 0.903510 0.786681 0.009839
C66   C     C_R   0.279244 0.910100 0.736321 0.012580
C67   C     C_1   0.638750 0.280878 0.397379 -0.012364
C68   C     C_R   0.179822 0.848734 0.703431 0.024493
C69   C     C_R   0.149899 0.833280 0.803189 0.032506
C70   C     C_1   0.129139 0.818027 0.853748 -0.043374
C71   C     C_1   0.197384 0.853940 0.652013 -0.043962
C72   C     C_1   0.102952 0.798808 0.894878 -0.004073
C73   C     C_1   0.641144 0.866340 0.611592 -0.001206
C74   C     C_R   0.759444 0.860433 0.726904 -0.122476
C75   C     C_R   0.763794 0.851579 0.776492 -0.124546
C76   C     C_R   0.550571 0.775850 0.778398 -0.003498
C77   C     C_R   0.546922 0.785394 0.728623 -0.100779
C78   C     C_R   0.770028 0.431681 0.289991 0.019988
C79   C     C_R   0.651159 0.827722 0.702843 0.020005
C80   C     C_R   0.660118 0.810410 0.802674 0.013036
C81   C     C_1   0.669051 0.800025 0.853681 -0.056207
C82   C     C_1   0.647598 0.845767 0.652593 -0.049710
C83   C     C_1   0.684777 0.790318 0.895431 -0.012275
C84   C     C_R   0.063743 0.772291 0.079035 0.546165
C85   C     C_R   0.717376 0.442439 0.067734 0.559099
C86   C     C_R   0.718853 0.781591 0.080361 0.551142
C87   C     C_R   0.056559 0.766195 0.941311 0.536630
C88   C     C_R   0.733001 0.488441 0.925637 0.555055
C89   C     C_R   0.780142 0.443960 0.240133 -0.085816
C90   C     C_R   0.716615 0.776068 0.942853 0.540512
Cr1   Cr    Cr6+3 0.416430 0.829200 0.492370 1.046055
Cr2   Cr    Cr6+3 0.674630 0.087020 0.504170 1.022289
Cr3   Cr    Cr6+3 0.408920 0.083740 0.503490 1.052038
Cr4   Cr    Cr6+3 0.914010 0.832750 0.013970 1.043407
Cr5   Cr    Cr6+3 0.922310 0.578600 0.003000 1.039278
Cr6   Cr    Cr6+3 0.656280 0.574630 0.003870 1.027942
H1    H     H_    0.083217 0.031062 0.311178 0.125935
H2    H     H_    0.818813 0.111275 0.203385 0.154325
H3    H     H_    0.588242 0.615821 0.135153 0.144732
H4    H     H_    0.533060 0.560232 0.301990 0.135163
H5    H     H_    0.853971 0.520356 0.227522 0.124112
H6    H     H_    0.820825 0.365218 0.876025 0.137301
H7    H     H_    0.742397 0.204067 0.639346 0.145350
H8    H     H_    0.858861 0.270846 0.806700 0.115040
H9    H     H_    0.630982 0.550779 0.860053 0.123449
H10   H     H_    0.568512 0.567350 0.779790 0.130232
H11   H     H_    0.547336 0.517525 0.693411 0.137602
H12   H     H_    0.532310 0.197760 0.196681 0.127379
H13   H     H_    0.964811 0.720271 0.783872 0.116692
H14   H     H_    0.840726 0.894187 0.707487 0.115507
H15   H     H_    0.848439 0.877018 0.794507 0.119972
H16   H     H_    0.463064 0.760725 0.710011 0.127760
H17   H     H_    0.169443 0.677591 0.124648 0.137361
H18   H     H_    0.201370 0.599208 0.193160 0.121857
H19   H     H_    0.231049 0.609359 0.279567 0.128713
H20   H     H_    0.069645 0.941751 0.140827 0.155563
O1    O     O_R   0.296680 0.802170 0.437540 -0.524598
O2    O     O_R   0.662610 0.183990 0.557860 -0.508779
O3    O     O_R   0.500730 0.201280 0.562180 -0.486714
O4    O     O_R   0.312500 0.978850 0.548170 -0.492099
O5    O     O_3   0.499990 0.999990 0.500010 -0.258175
O6    O     O_R   0.820790 0.857990 0.068830 -0.492992
O7    O     O_R   0.016700 0.827330 0.062850 -0.502827
O8    O     O_R   0.041970 0.673520 0.060040 -0.515051
O9    O     O_R   0.817980 0.483660 0.048840 -0.481302
O10   O     O_R   0.637200 0.461990 0.052510 -0.510587
O11   O     O_R   0.664790 0.681920 0.057970 -0.509786
O12   O     O_R   0.525380 0.838530 0.443500 -0.503581
O13   O     O_R   0.815840 0.852920 0.961840 -0.498160
O14   O     O_R   0.012100 0.822630 0.963670 -0.499088
O15   O     O_R   0.037010 0.668460 0.953040 -0.507136
O16   O     O_R   0.813390 0.478970 0.949660 -0.500279
O17   O     O_R   0.632250 0.456930 0.945520 -0.498949
O18   O     O_R   0.660200 0.677230 0.958780 -0.514665
O19   O     O_3   0.830870 0.661990 0.006950 -0.276392
O20   O     O_R   0.702130 0.995190 0.446810 -0.513789
O21   O     O_R   0.661770 0.181390 0.458760 -0.515829
O22   O     O_R   0.499820 0.198480 0.455280 -0.487212
O23   O     O_R   0.311660 0.976250 0.449080 -0.499969
O24   O     O_R   0.297580 0.804960 0.544440 -0.501484
O25   O     O_R   0.526220 0.841130 0.542590 -0.479603
O26   O     O_R   0.703030 0.997990 0.553710 -0.514145
C91   C     C_3   0.864946 0.525760 0.323933 -0.380298
H21   H     H_    0.869015 0.609376 0.319039 0.131195
H22   H     H_    0.848925 0.509473 0.362393 0.147418
H23   H     H_    0.952394 0.533378 0.315664 0.152321
C92   C     C_1   0.064030 0.054722 0.219766 0.185230
N1    N     N_1   0.044880 0.122650 0.204833 -0.302440
C93   C     C_3   0.112445 0.966717 0.394080 -0.381816
H24   H     H_    0.108217 0.940671 0.431167 0.144362
H25   H     H_    0.171538 0.061457 0.394495 0.156385
H26   H     H_    0.020263 0.944132 0.383489 0.124151
C94   C     C_1   0.756720 0.005817 0.120100 0.217174
N2    N     N_1   0.789230 0.083087 0.096904 -0.281416
C95   C     C_3   0.666679 0.068188 0.362442 -0.333947
H27   H     H_    0.586445 0.039876 0.383903 0.141631
H28   H     H_    0.746621 0.138381 0.382706 0.183205
H29   H     H_    0.646365 0.101391 0.330732 0.129640
C96   C     C_1   0.855108 0.168177 0.295102 0.196444
N3    N     N_1   0.916457 0.261070 0.312553 -0.305444
C97   C     C_3   0.505344 0.494816 0.207734 -0.398290
H30   H     H_    0.471089 0.430285 0.234764 0.142531
H31   H     H_    0.429122 0.479753 0.184057 0.139766
H32   H     H_    0.568994 0.479877 0.185976 0.142228
C98   C     C_1   0.579377 0.669758 0.385965 0.182505
N4    N     N_1   0.547904 0.594188 0.410056 -0.286027
C99   C     C_3   0.846760 0.187611 0.714541 -0.394806
H33   H     H_    0.772302 0.103780 0.698908 0.156087
H34   H     H_    0.911407 0.229132 0.686427 0.133013
H35   H     H_    0.892824 0.169109 0.743286 0.132289
C100  C     C_1   0.553369 0.412762 0.612772 0.208055
N5    N     N_1   0.506271 0.444373 0.587655 -0.279893
C101  C     C_3   0.958293 0.714647 0.686589 -0.394167
H36   H     H_    0.875691 0.666433 0.706212 0.137285
H37   H     H_    0.947172 0.775412 0.665033 0.134447
H38   H     H_    0.969721 0.651479 0.661864 0.146368
C102  C     C_3   0.367677 0.970201 0.823192 -0.378055
H39   H     H_    0.453929 0.021757 0.806644 0.148681
H40   H     H_    0.350783 0.030670 0.847299 0.138556
H41   H     H_    0.376921 0.909542 0.845450 0.161706
C103  C     C_1   0.396382 0.978294 0.717977 0.187953
N6    N     N_1   0.489759 0.032432 0.703261 -0.312540
C104  C     C_1   0.441178 0.728663 0.803540 0.179358
N7    N     N_1   0.353365 0.690427 0.823628 -0.299873
C105  C     C_1   0.485905 0.145609 0.286596 0.178572
N8    N     N_1   0.405571 0.063150 0.298444 -0.307635
C106  C     C_3   0.358255 0.769693 0.350115 -0.340386
H42   H     H_    0.399817 0.761178 0.316228 0.122880
H43   H     H_    0.428971 0.849267 0.369568 0.156986
H44   H     H_    0.333790 0.692854 0.370010 0.166239

loop_
_geom_bond_atom_site_label_1
_geom_bond_atom_site_label_2
_ccdc_geom_bond_type
C45   O2    A    
Cr5   O8    S    
C91   H23   S    
C66   C68   A    
C100  N5    T    
C34   O25   A    
C40   C41   A    
C98   N4    T    
C95   H28   S    
C85   O9    A    
C35   C36   A    
C1    O12   A    
C104  N7    T    
C97   H32   S    
C97   H30   S    
C64   H13   S    
C93   H24   S    
C99   H34   S    
C101  H36   S    
C84   O7    A    
C46   C49   A    
Cr4   O14   S    
C17   C26   A    
C21   C92   S    
C87   O14   A    
C23   O23   A    
C36   C37   A    
Cr3   O5    S    
C88   O17   A    
C49   C99   S    
C29   C32   A    
C52   C61   A    
C93   H25   S    
C5    C6    S    
C56   O24   A    
C65   C69   A    
C58   C60   A    
C14   H19   S    
C48   H8    S    
C11   C24   A    
C16   C84   S    
C17   C18   A    
C18   C19   A    
C23   C26   S    
C87   O15   A    
Cr2   O2    S    
C106  H44   S    
Cr3   O22   S    
C81   C83   T    
C90   O13   A    
C11   C15   A    
C1    C43   S    
C20   H1    S    
C92   N1    T    
C102  H40   S    
C22   C25   A    
C86   O6    A    
Cr1   O1    S    
Cr3   O4    S    
C47   C50   A    
C76   C104  S    
Cr2   O26   S    
C75   C80   A    
C18   C20   A    
C13   H18   S    
C2    H12   S    
C27   C28   A    
C89   H5    S    
Cr4   O7    S    
C45   O3    A    
C40   C42   A    
C57   H10   S    
C86   O11   A    
C13   C14   A    
C95   H29   S    
Cr5   O15   S    
C56   O4    A    
C85   O10   A    
Cr2   O20   S    
C4    C7    S    
Cr2   O21   S    
C3    C105  S    
C52   C100  S    
C97   H31   S    
C44   H7    S    
C44   C46   A    
C9    C26   A    
C63   C101  S    
Cr6   O19   S    
C57   C58   A    
C54   C59   A    
C53   C55   A    
C78   C89   A    
C27   C95   S    
C38   C39   A    
C12   C67   S    
Cr4   O13   S    
Cr1   O12   S    
C47   C48   A    
C76   C77   A    
C38   H4    S    
C74   C75   A    
C25   H20   S    
C39   C40   A    
C12   O22   A    
Cr6   O18   S    
C50   C51   A    
C58   C59   A    
C103  N6    T    
C47   C59   A    
C8    C85   S    
C32   C94   S    
Cr6   O11   S    
C55   H11   S    
C77   H16   S    
C33   C86   S    
C4    C78   A    
C29   C30   A    
Cr3   O23   S    
Cr5   O9    S    
C96   N3    T    
C10   C19   A    
C102  H41   S    
C46   C54   A    
Cr5   O19   S    
Cr4   O19   S    
C77   C79   A    
Cr6   O10   S    
C64   C69   A    
Cr1   O24   S    
C101  H37   S    
C99   H35   S    
Cr4   O6    S    
C48   C49   A    
C66   C103  S    
C50   H6    S    
C74   C79   A    
C55   C57   A    
C10   C14   A    
Cr5   O16   S    
C22   C24   A    
C93   H26   S    
C2    C5    A    
C39   C97   S    
C33   C42   A    
C3    C4    A    
C1    O20   A    
C73   C82   T    
C99   H33   S    
C72   C87   S    
C35   C43   A    
C52   C53   A    
C9    C10   A    
C101  H38   S    
C16   C25   A    
C91   H22   S    
C83   C90   S    
C63   C68   A    
C34   O26   A    
C29   C41   A    
C15   H17   S    
C28   C31   A    
C17   C93   S    
C76   C80   A    
C80   C81   S    
C9    C106  S    
C51   C88   S    
C23   O1    A    
C79   C82   S    
C6    C8    T    
C53   C54   A    
Cr6   O17   S    
C44   C61   A    
C84   O8    A    
C30   H2    S    
C75   H15   S    
C21   C22   A    
C36   C38   A    
C19   C24   A    
C94   N2    T    
C106  H42   S    
C78   C91   S    
C32   C33   A    
C11   C13   A    
C105  N8    T    
C30   C31   A    
C65   C102  S    
C28   C37   A    
C68   C71   S    
C90   O18   A    
C15   C16   A    
C45   C61   S    
C35   C98   S    
C62   C71   T    
C2    C3    A    
C56   C62   S    
C65   C66   A    
C37   C41   A    
C69   C70   S    
C31   C96   S    
C106  H43   S    
C34   C73   S    
C7    C67   T    
C63   C64   A    
C27   C43   A    
C20   C21   A    
C102  H39   S    
Cr1   O5    S    
C95   H27   S    
C88   O16   A    
C12   O21   A    
C70   C72   T    
C51   C60   A    
Cr3   O3    S    
C74   H14   S    
Cr2   O5    S    
C5    C89   A    
C60   H9    S    
C91   H21   S    
C42   H3    S    
Cr1   O25   S    
