data_mof_unit_38743.cif
_audit_creation_date              2013-03-05T15:50:32-0500
_audit_creation_method            fapswitch 2.2
_symmetry_space_group_name_H-M    P1
_symmetry_Int_Tables_number       1
_space_group_crystal_system       triclinic
_cell_length_a                    8.284757
_cell_length_b                    15.212093
_cell_length_c                    17.459898
_cell_angle_alpha                 97.678205
_cell_angle_beta                  95.677373
_cell_angle_gamma                 98.358771
_cell_volume                      2141.77588547

loop_
_atom_site_label
_atom_site_type_symbol
_atom_site_description
_atom_site_fract_x
_atom_site_fract_y
_atom_site_fract_z
_atom_type_partial_charge
P1    P     P_3+3 0.994810 0.708030 0.567580 0.485293
O1    O     O_2   0.167760 0.722240 0.545330 -0.355362
O2    O     O_3   0.895630 0.608830 0.542770 -0.407465
O3    O     O_3   0.383340 0.666720 0.405900 -0.375007
O4    O     O_2   0.317873 0.824888 0.467624 -0.355208
O5    O     O_3   0.023697 0.739336 0.668599 -0.551601
O6    O     O_3   0.355272 0.809664 0.321027 -0.478888
H1    H     H_    0.489983 0.722869 0.263554 0.066242
C1    C     C_3   0.404648 0.811622 0.189109 -0.880340
H2    H     H_    0.285971 0.767004 0.168323 0.299617
H3    H     H_    0.386246 0.882819 0.191976 0.255671
P2    P     P_3+3 0.329370 0.428660 0.324010 0.493570
P3    P     P_3+3 0.906020 0.614741 0.265205 0.534377
O7    O     O_2   0.160650 0.456070 0.313260 -0.376880
O8    O     O_3   0.956180 0.620960 0.366010 -0.312705
O9    O     O_2   0.996621 0.541964 0.226344 -0.369447
O10   O     O_3   0.296105 0.314834 0.283365 -0.578821
O11   O     O_3   0.000530 0.713449 0.236981 -0.475829
C2    C     C_3   0.899646 0.779442 0.252085 0.319126
H4    H     H_    0.891569 0.794211 0.315967 -0.015466
H5    H     H_    0.774606 0.757540 0.219566 -0.021640
C3    C     C_3   0.970359 0.865666 0.223747 0.213819
H6    H     H_    0.092848 0.892571 0.256842 0.141069
C4    C     C_3   0.853944 0.305340 0.286465 0.159498
H7    H     H_    0.977261 0.331782 0.316831 0.061617
C5    C     C_3   0.878537 0.244021 0.212376 0.201425
H8    H     H_    0.945836 0.286478 0.174066 0.043758
H9    H     H_    0.956925 0.193787 0.229087 0.102312
Ba1   Ba    Ba6+2 0.159600 0.544390 0.464780 1.584863
C6    C     C_3   0.059529 0.667456 0.705033 0.311536
H10   H     H_    0.183274 0.654323 0.693130 0.004089
H11   H     H_    0.965125 0.606628 0.684800 0.094901
C7    C     C_3   0.058329 0.692841 0.792641 0.183615
H12   H     H_    0.158151 0.750421 0.815186 0.105962
H13   H     H_    0.086478 0.635305 0.821856 -0.024629
C8    C     C_3   0.280022 0.256830 0.338681 0.312117
H14   H     H_    0.157922 0.254926 0.359333 0.067297
H15   H     H_    0.375740 0.277565 0.389117 0.161263
C9    C     C_3   0.296979 0.163276 0.299076 -0.682605
H16   H     H_    0.239214 0.151653 0.237269 0.192583
H17   H     H_    0.429938 0.158335 0.298124 0.222988
P4    P     P_3+3 0.815490 0.291960 0.432360 0.454078
O12   O     O_2   0.642530 0.277700 0.454650 -0.380440
O13   O     O_3   0.914670 0.391160 0.457170 -0.385595
O14   O     O_3   0.426950 0.333280 0.594040 -0.353013
O15   O     O_3   0.759851 0.254683 0.332227 -0.579989
P5    P     P_3+3 0.881025 0.387697 0.736027 0.500456
O16   O     O_3   0.389270 0.546240 0.592370 -0.436121
O17   O     O_3   0.854110 0.379030 0.633930 -0.363890
O18   O     O_2   0.739090 0.431596 0.767962 -0.371303
O19   O     O_3   0.842033 0.277736 0.757553 -0.509110
Ba2   Ba    Ba6+2 0.650580 0.455600 0.535150 1.614762
P6    P     P_3+3 0.428469 0.783392 0.411226 0.473038
C10   C     C_3   0.470035 0.793813 0.269039 0.383481
H18   H     H_    0.588821 0.839376 0.288446 0.006891
H19   H     H_    0.493454 0.797952 0.147183 0.198473
O20   O     O_3   0.421020 0.453750 0.407560 -0.417700
C11   C     C_3   0.573904 0.729426 0.645048 0.493796
H20   H     H_    0.689016 0.706429 0.630290 0.097198
H21   H     H_    0.477139 0.708876 0.594603 0.114797
C12   C     C_3   0.601709 0.831293 0.661794 -1.013696
H22   H     H_    0.695683 0.855188 0.713156 0.287011
H23   H     H_    0.644719 0.860537 0.611044 0.227105
H24   H     H_    0.483657 0.854096 0.673507 0.253204
P7    P     P_3+3 0.479126 0.577983 0.689822 0.450102
O21   O     O_2   0.649640 0.543870 0.686710 -0.343845
O22   O     O_3   0.525661 0.695119 0.711400 -0.566753
H25   H     H_    0.885395 0.914770 0.237076 0.018451
C13   C     C_3   0.881632 0.219282 0.695118 0.514649
H26   H     H_    0.796381 0.218468 0.641388 0.141286
H27   H     H_    0.010148 0.240685 0.684150 0.022905
C14   C     C_3   0.864991 0.123496 0.713829 -1.022703
H28   H     H_    0.737817 0.087840 0.693892 0.255152
H29   H     H_    0.947786 0.084383 0.681264 0.230788
H30   H     H_    0.895966 0.123859 0.777470 0.293088
P8    P     P_3+3 0.387767 0.214984 0.589823 0.496159
C15   C     C_3   0.323473 0.194834 0.728540 0.171691
H31   H     H_    0.206395 0.155465 0.698241 0.044578
O23   O     O_2   0.506265 0.175668 0.536880 -0.375644
O24   O     O_3   0.451122 0.187588 0.681593 -0.510242
H32   H     H_    0.311253 0.267401 0.742181 0.092384
C16   C     C_3   0.360022 0.157039 0.805058 0.224744
H33   H     H_    0.486175 0.187923 0.833073 0.064906
C17   C     C_R   0.647763 0.826677 0.447848 0.123992
H34   H     H_    0.684183 0.694860 0.470347 0.161009
H35   H     H_    0.513296 0.958618 0.389977 0.219586
C18   C     C_R   0.894162 0.792038 0.517714 0.332699
C19   C     C_R   0.070709 0.228078 0.519852 -0.479476
C20   C     C_R   0.170840 0.169076 0.546200 0.149698
C21   C     C_R   0.109267 0.077772 0.537826 -0.236270
C22   C     C_R   0.946982 0.043819 0.502393 0.040688
C23   C     C_R   0.851474 0.106031 0.470131 0.033127
C24   C     C_R   0.879706 0.949242 0.495025 0.037924
C25   C     C_R   0.719073 0.918725 0.454858 -0.020663
C26   C     C_R   0.632779 0.980415 0.422208 -0.198854
C27   C     C_R   0.697396 0.071256 0.428921 -0.036636
C28   C     C_R   0.963914 0.884107 0.527678 -0.249359
C29   C     C_R   0.739106 0.764694 0.476029 -0.498613
C30   C     C_R   0.915116 0.200776 0.478888 0.151540
H36   H     H_    0.081934 0.902837 0.562446 0.157332
H37   H     H_    0.191673 0.035283 0.558871 0.160249
H38   H     H_    0.623725 0.113901 0.401458 0.192677
H39   H     H_    0.536039 0.560465 0.860275 0.126804
H40   H     H_    0.709965 0.589847 0.109884 0.143418
C31   C     C_R   0.572315 0.561283 0.283446 -0.389526
C32   C     C_R   0.429132 0.499371 0.257013 0.397701
C33   C     C_R   0.372239 0.483927 0.176761 -0.198615
C34   C     C_R   0.468017 0.522542 0.123686 0.088752
C35   C     C_R   0.627298 0.568855 0.150723 -0.239526
C36   C     C_R   0.682711 0.584211 0.230678 0.211766
C37   C     C_R   0.411136 0.529706 0.838574 -0.259743
C38   C     C_R   0.353910 0.526166 0.759565 0.268592
C39   C     C_R   0.086276 0.449182 0.780734 0.233844
C40   C     C_R   0.141764 0.454657 0.860136 -0.232023
C41   C     C_R   0.304389 0.495279 0.889591 0.118727
C42   C     C_1   0.360866 0.502587 0.972148 0.003037
C43   C     C_1   0.408870 0.510338 0.041107 -0.002538
C44   C     C_R   0.191144 0.488973 0.732865 -0.412428
H41   H     H_    0.059213 0.427182 0.898487 0.141390
H42   H     H_    0.257074 0.439840 0.155696 0.139422
H43   H     H_    0.612577 0.577410 0.345255 0.169828
H44   H     H_    0.143552 0.495630 0.674657 0.182583
O25   O     O_3   0.723586 0.199545 0.174246 -0.541221
C45   C     C_3   0.745725 0.145475 0.105089 -0.101024
H45   H     H_    0.823979 0.183738 0.068155 0.120206
H46   H     H_    0.623645 0.121529 0.069988 0.160385
H47   H     H_    0.798389 0.085320 0.119440 0.103847
O26   O     O_3   0.904152 0.718742 0.805434 -0.546385
C46   C     C_3   0.849639 0.686657 0.872688 -0.099302
H48   H     H_    0.936640 0.716075 0.925814 0.122155
H49   H     H_    0.832061 0.611398 0.865332 0.123684
H50   H     H_    0.728725 0.707731 0.880810 0.150866
C47   C     C_2   0.213251 0.091087 0.338995 1.000369
O27   O     O_2   0.295046 0.048990 0.378442 -0.643386
O28   O     O_R   0.041172 0.070840 0.329124 -0.826925
H51   H     H_    0.999893 0.015506 0.352529 0.307360
C48   C     C_2   0.243643 0.184784 0.862318 0.920116
O29   O     O_2   0.161841 0.127823 0.892186 -0.592343
O30   O     O_R   0.231099 0.275955 0.882311 -0.832875
H52   H     H_    0.146839 0.285176 0.919928 0.327812
O31   O     O_3   0.335243 0.061325 0.790565 -0.590844
C49   C     C_3   0.479933 0.027642 0.773727 -0.082703
H53   H     H_    0.594873 0.067987 0.807078 0.124263
H54   H     H_    0.485973 0.021119 0.710124 0.160337
H55   H     H_    0.471877 0.959197 0.790476 0.151739
C50   C     C_2   0.132246 0.321589 0.537296 1.123069
O32   O     O_2   0.133608 0.359448 0.602905 -0.680662
O33   O     O_R   0.215998 0.362554 0.483905 -0.788218
H56   H     H_    0.293093 0.416959 0.511210 0.398890
O34   O     O_3   0.987860 0.847456 0.143561 -0.572630
C51   C     C_3   0.948604 0.919527 0.105677 -0.183654
H57   H     H_    0.019345 0.985480 0.135221 0.131243
H58   H     H_    0.813429 0.920862 0.102364 0.127368
H59   H     H_    0.981604 0.909075 0.045422 0.174807
C52   C     C_2   0.764239 0.380669 0.269142 1.035456
O35   O     O_2   0.690576 0.380975 0.204365 -0.614797
O36   O     O_R   0.755848 0.449133 0.329024 -0.782975
H60   H     H_    0.701956 0.428342 0.374528 0.332017

loop_
_geom_bond_atom_site_label_1
_geom_bond_atom_site_label_2
_geom_bond_distance
_ccdc_geom_bond_type
P1    C18   1.884137 S    
P2    C32   1.864816 S    
C31   C36   1.402448 A    
C3    O34   1.416358 S    
O36   H60   1.013354 S    
C27   H38   1.078715 S    
P2    Ba1   3.371373 S    
C52   O36   1.388198 S    
C37   C38   1.404984 A    
P8    O23   1.542238 D    
O26   C46   1.419509 S    
C40   C41   1.413334 A    
O28   H51   1.014087 S    
P5    O17   1.759203 S    
C15   H31   1.106465 S    
C34   C35   1.406457 A    
C48   O30   1.405655 S    
C5    H8    1.122471 S    
C24   C25   1.423762 A    
C21   H37   1.077503 S    
P3    O11   1.744383 S    
P6    C17   1.858227 S    
O4    P6    1.545378 D    
C8    H14   1.104792 S    
C2    H5    1.113219 S    
C4    C5    1.539461 S    
O11   C2    1.411638 S    
C16   C48   1.517753 S    
C13   H26   1.114591 S    
C16   O31   1.424963 S    
C44   H44   1.076308 S    
H40   C35   1.083217 S    
O3    P6    1.747728 S    
O2    Ba2   2.839097 S    
O12   Ba2   2.866392 S    
C32   C33   1.410620 A    
C11   H21   1.109053 S    
C41   C42   1.455211 S    
C23   C27   1.395434 A    
C42   C43   1.214672 T    
H39   C37   1.080549 S    
P1    O1    1.514337 D    
P4    O15   1.757917 S    
C51   H59   1.109818 S    
C13   H27   1.110188 S    
H34   C29   1.080642 S    
C26   C27   1.392529 A    
P7    O22   1.748665 S    
P2    O10   1.752708 S    
C51   H57   1.116730 S    
O10   C8    1.395747 S    
O16   P7    1.762897 S    
C1    H2    1.108441 S    
O3    Ba1   2.800198 S    
C4    C52   1.500889 S    
P8    C20   1.876124 S    
C18   C29   1.389861 A    
O13   Ba2   2.908261 S    
C11   C12   1.517120 S    
C48   O29   1.225557 D    
C49   H55   1.113131 S    
C25   C26   1.405042 A    
P4    O13   1.591981 S    
C14   H30   1.114500 S    
P1    Ba1   3.400164 S    
O8    Ba1   2.775490 S    
P5    O18   1.548586 D    
C50   O33   1.377062 S    
C3    H6    1.109612 S    
C50   O32   1.209671 D    
Ba1   O16   2.777226 S    
P1    O5    1.747546 S    
O25   C45   1.410843 S    
C2    C3    1.521771 S    
O33   H56   1.000412 S    
C14   H29   1.119474 S    
H35   C26   1.072844 S    
H1    C10   1.108399 S    
C9    H16   1.116725 S    
P5    O19   1.754576 S    
O14   Ba2   2.799643 S    
C11   H20   1.104454 S    
C7    O26   1.419839 S    
P1    O2    1.591982 S    
C12   H24   1.112634 S    
P7    C38   1.857140 S    
P3    C36   1.859174 S    
C22   C24   1.449245 A    
C15   H32   1.119182 S    
C33   C34   1.410281 A    
O17   Ba2   2.776149 S    
C12   H23   1.109839 S    
C7    H12   1.113076 S    
C31   H43   1.081814 S    
C1    H19   1.109410 S    
C17   C25   1.422700 A    
C4    H7    1.096823 S    
C1    H3    1.110759 S    
C3    H25   1.116446 S    
C45   H47   1.116359 S    
P2    O20   1.548559 S    
O5    C6    1.389714 S    
Ba1   O20   2.918596 S    
P7    O21   1.577549 D    
P3    O8    1.754639 S    
Ba1   O13   2.838533 S    
C47   O27   1.222852 D    
C49   H54   1.108406 S    
C5    O25   1.416670 S    
O6    P6    1.748530 S    
O7    Ba1   2.803946 S    
C24   C28   1.437622 A    
C33   H42   1.083520 S    
C22   C23   1.452933 A    
C28   H36   1.077537 S    
Ba2   O21   2.804139 S    
C45   H46   1.114364 S    
C39   C40   1.404330 A    
C9    C47   1.500518 S    
C15   O24   1.408437 S    
P5    C39   1.858905 S    
C10   H18   1.112041 S    
C19   C50   1.420850 S    
C6    C7    1.528151 S    
O34   C51   1.414264 S    
C34   C43   1.454523 S    
C8    C9    1.528931 S    
P8    O24   1.758446 S    
P2    O7    1.517037 D    
C14   H28   1.111879 S    
O30   H52   1.016334 S    
O19   C13   1.408277 S    
C31   C32   1.399240 A    
C5    H9    1.121248 S    
C4    O15   1.397498 S    
C46   H50   1.111615 S    
C2    H4    1.118556 S    
C8    H15   1.103951 S    
C46   H48   1.114994 S    
C17   C29   1.400562 A    
O31   C49   1.412074 S    
C6    H11   1.113687 S    
O2    Ba1   2.907504 S    
C21   C22   1.416084 A    
C6    H10   1.106677 S    
C40   H41   1.083097 S    
C15   C16   1.543688 S    
O14   P8    1.771762 S    
C7    H13   1.111649 S    
C51   H58   1.118934 S    
C12   H22   1.111292 S    
C19   C30   1.388615 A    
Ba2   O20   2.776678 S    
C39   C44   1.394889 A    
C11   O22   1.402421 S    
O16   Ba2   2.917825 S    
O1    Ba1   2.865895 S    
C19   C20   1.398813 A    
C9    H17   1.116543 S    
C16   H33   1.116688 S    
P4    O12   1.514707 D    
P3    O9    1.546316 D    
C35   C36   1.403218 A    
C52   O35   1.231785 D    
C47   O28   1.402333 S    
C38   C44   1.392528 A    
C49   H53   1.116871 S    
C37   C41   1.412686 A    
C1    C10   1.519398 S    
C13   C14   1.525321 S    
O6    C10   1.401779 S    
C46   H49   1.121118 S    
C20   C21   1.391297 A    
P4    C30   1.940763 S    
C23   C30   1.443204 A    
P4    Ba2   3.400642 S    
C45   H45   1.117257 S    
C18   C28   1.416132 A    
Ba1   Ba2   4.575118 S    
