data_mof_unit_6132.cif
_audit_creation_date              2012-12-10T20:28:44-0500
_audit_creation_method            fapswitch 2.2
_symmetry_space_group_name_H-M    P1
_symmetry_Int_Tables_number       1
_space_group_crystal_system       triclinic
_cell_length_a                    10.670279
_cell_length_b                    10.614908
_cell_length_c                    9.905009
_cell_angle_alpha                 89.572414
_cell_angle_beta                  91.689708
_cell_angle_gamma                 91.401868
_cell_volume                      1121.03225889

loop_
_atom_site_label
_atom_site_type_symbol
_atom_type_description
_atom_site_fract_x
_atom_site_fract_y
_atom_site_fract_z
_atom_type_partial_charge
C1    C     C_R   0.501274 0.260705 0.500537 0.905223
C2    C     C_R   0.403630 0.932937 0.428753 -0.193126
C3    C     C_R   0.498946 0.871049 0.500740 -0.024236
C4    C     C_R   0.259646 0.494035 0.497451 0.886229
C5    C     C_R   0.581479 0.937173 0.586627 -0.108377
C6    C     C_3   0.719970 0.929562 0.615537 0.169982
C7    C     C_3   0.722661 0.074520 0.610223 0.542717
C8    C     C_R   0.452357 0.398853 0.070898 0.117191
C9    C     C_R   0.544232 0.601784 0.070793 0.447511
C10   C     C_R   0.539559 0.602780 0.927714 -0.059856
C11   C     C_R   0.452961 0.398248 0.928146 0.067617
C12   C     C_R   0.060608 0.432115 0.600634 -0.209245
C13   C     C_3   0.503657 0.267562 0.927218 -0.036875
C14   C     C_3   0.502653 0.269545 0.081010 0.186135
C15   C     C_R   0.501687 0.739432 0.499720 0.875047
C16   C     C_R   0.740149 0.510388 0.503212 0.842642
C17   C     C_R   0.108364 0.336232 0.688294 0.418820
C18   C     C_R   0.049933 0.309865 0.811106 0.251882
C19   C     C_R   0.945588 0.380577 0.848089 0.278368
C20   C     C_R   0.900100 0.473118 0.760021 0.460091
C21   C     C_R   0.943840 0.480560 0.625841 -0.179345
C22   C     C_3   0.121558 0.527136 0.156248 -0.689985
C23   C     C_R   0.125285 0.485267 0.490498 -0.100581
C24   C     C_3   0.760213 0.117097 0.361629 -0.700315
C25   C     C_3   0.449078 0.046018 0.872545 -0.651363
C26   C     C_R   0.060870 0.551926 0.386798 0.206416
C27   C     C_R   0.933666 0.565789 0.396057 -0.210604
C28   C     C_R   0.874181 0.526845 0.512693 -0.115285
C29   C     C_R   0.583026 0.065398 0.584449 0.062277
C30   C     C_R   0.497853 0.129070 0.502511 -0.087366
C31   C     C_R   0.401834 0.063405 0.431725 -0.196674
H1    H     H_    0.575879 0.684087 0.873657 0.169873
H2    H     H_    0.158145 0.432515 0.181942 0.253163
H3    H     H_    0.181971 0.570837 0.078501 0.227547
H4    H     H_    0.776862 0.781643 0.526641 0.315394
H5    H     H_    0.841526 0.109461 0.757109 0.344361
H6    H     H_    0.833399 0.220569 0.524855 0.223740
H7    H     H_    0.845454 0.118277 0.300067 0.246394
H8    H     H_    0.701973 0.196995 0.328389 0.213121
H9    H     H_    0.707159 0.027648 0.342271 0.282413
H10   H     H_    0.647502 0.668997 0.214714 0.372441
H11   H     H_    0.322812 0.191096 0.884895 0.337144
H12   H     H_    0.598989 0.264587 0.885053 0.203785
H13   H     H_    0.418034 0.002503 0.968370 0.241798
H14   H     H_    0.551837 0.035388 0.865219 0.248007
H15   H     H_    0.400760 0.994188 0.788384 0.243376
H16   H     H_    0.462268 0.111451 0.166733 0.342385
H17   H     H_    0.210959 0.260044 0.554227 0.307465
H18   H     H_    0.087383 0.239610 0.988537 0.336710
H19   H     H_    0.891864 0.271439 0.994791 0.337560
H20   H     H_    0.824495 0.637175 0.753343 0.319534
H21   H     H_    0.597661 0.267452 0.130475 0.104082
H22   H     H_    0.881405 0.607315 0.312057 0.172474
H23   H     H_    0.328914 0.112744 0.376112 0.188536
H24   H     H_    0.332829 0.880926 0.369797 0.164156
H25   H     H_    0.742856 0.889024 0.717168 0.105958
H26   H     H_    0.094593 0.696481 0.251271 0.229349
H27   H     H_    0.024502 0.516900 0.113672 0.268442
N1    N     N_R   0.499160 0.499140 0.142800 -0.185816
N2    N     N_R   0.499160 0.499180 0.857150 -0.138064
N3    N     N_2   0.123105 0.606477 0.274451 -0.295980
N4    N     N_2   0.797197 0.131823 0.502892 -0.277591
N5    N     N_2   0.415420 0.177262 0.865128 -0.213156
O1    O     O_R   0.500020 0.316790 0.614690 -0.565228
O2    O     O_3   0.752285 0.128201 0.736557 -0.832280
O3    O     O_3   0.602791 0.702588 0.134050 -0.755978
O4    O     O_3   0.414524 0.186304 0.137331 -0.746748
O5    O     O_3   0.206161 0.261158 0.653908 -0.707740
O6    O     O_3   0.098707 0.216542 0.893077 -0.743941
O7    O     O_3   0.883847 0.360752 0.967241 -0.748285
O8    O     O_3   0.821968 0.561172 0.812233 -0.702420
O9    O     O_R   0.500000 0.316760 0.385350 -0.616688
O10   O     O_R   0.316770 0.500020 0.614690 -0.588812
O11   O     O_R   0.316760 0.499980 0.385350 -0.589836
O12   O     O_R   0.500000 0.683240 0.614650 -0.643288
O13   O     O_R   0.499980 0.683210 0.385310 -0.602578
O14   O     O_R   0.683240 0.500020 0.614650 -0.581464
O15   O     O_R   0.683230 0.499980 0.385310 -0.642446
O16   O     O_3   0.783739 0.873761 0.510569 -0.747471
Zn1   Zn    Zn3+2 0.500010 0.500020 0.653130 1.000564
Zn2   Zn    Zn3+2 0.499990 0.499980 0.346870 0.971120

loop_
_geom_bond_atom_site_label_1
_geom_bond_atom_site_label_2
_ccdc_geom_bond_type
C16   C28   S    
C15   O12   A    
C7    C29   S    
C19   C20   A    
H6    N4    S    
C12   C23   A    
C26   C27   A    
C26   N3    S    
C18   C19   A    
C2    H24   S    
C8    N1    A    
C30   C31   A    
C24   H8    S    
C16   O14   A    
C25   N5    S    
C23   C26   A    
C9    O3    S    
C14   H21   S    
C12   C17   A    
C24   H7    S    
C14   O4    S    
C20   O8    S    
O12   Zn1   S    
C4    O11   A    
O9    Zn2   S    
C18   O6    S    
C15   O13   A    
H18   O6    S    
C13   C14   S    
O1    Zn1   S    
H20   O8    S    
C25   H13   S    
H16   O4    S    
C5    C29   A    
C22   H3    S    
C1    O9    A    
C4    C23   S    
H5    O2    S    
C12   C21   A    
C2    C31   A    
C9    N1    A    
C10   N2    A    
C7    N4    S    
C29   C30   A    
C7    O2    S    
C13   N5    S    
C17   C18   A    
H17   O5    S    
C4    O10   A    
H10   O3    S    
C21   C28   A    
C8    C14   S    
O11   Zn2   S    
C11   N2    A    
C1    O1    A    
C25   H14   S    
C13   H12   S    
C3    C15   S    
C9    C10   A    
O14   Zn1   S    
C22   H2    S    
N2    Zn1   S    
C17   O5    S    
C24   N4    S    
N1    Zn2   S    
C6    H25   S    
C3    C5    A    
O13   Zn2   S    
C22   H27   S    
C27   H22   S    
H26   N3    S    
C6    C7    S    
C2    C3    A    
H19   O7    S    
C22   N3    S    
C11   C13   S    
O15   Zn2   S    
C6    O16   S    
C5    C6    S    
C8    C11   A    
C25   H15   S    
H4    O16   S    
C1    C30   S    
C24   H9    S    
O10   Zn1   S    
C16   O15   A    
C31   H23   S    
C10   H1    S    
C20   C21   A    
C27   C28   A    
C19   O7    S    
H11   N5    S    
