data_mof_unit_57983.cif
_audit_creation_date              2012-12-10T17:09:53-0500
_audit_creation_method            fapswitch 2.2
_symmetry_space_group_name_H-M    P1
_symmetry_Int_Tables_number       1
_space_group_crystal_system       triclinic
_cell_length_a                    10.812939
_cell_length_b                    12.977958
_cell_length_c                    11.730056
_cell_angle_alpha                 99.117902
_cell_angle_beta                  93.450051
_cell_angle_gamma                 89.697554
_cell_volume                      1622.31721709

loop_
_atom_site_label
_atom_site_type_symbol
_atom_type_description
_atom_site_fract_x
_atom_site_fract_y
_atom_site_fract_z
_atom_type_partial_charge
C1    C     C_R   0.490973 0.299737 0.479416 0.772865
C2    C     C_R   0.074909 0.405435 0.538908 0.078766
C3    C     C_R   0.129761 0.491376 0.500984 -0.078912
C4    C     C_R   0.057942 0.567096 0.457520 -0.201430
C5    C     C_R   0.930535 0.561991 0.456086 -0.190804
C6    C     C_R   0.871822 0.480304 0.496475 -0.092782
C7    C     C_R   0.500302 0.814011 0.533161 -0.051427
C8    C     C_R   0.481598 0.186818 0.468610 -0.037432
C9    C     C_R   0.436402 0.018698 0.352071 -0.214437
C10   C     C_R   0.444025 0.126617 0.362081 -0.191411
C11   C     C_R   0.510289 0.138790 0.565467 -0.253354
C12   C     C_R   0.262777 0.500842 0.500687 0.785168
C13   C     C_R   0.505064 0.030909 0.555673 0.171613
C14   C     C_R   0.467813 0.970332 0.448155 0.178490
C15   C     C_R   0.464055 0.862281 0.438122 -0.274910
C16   C     C_R   0.536109 0.874535 0.640085 -0.191315
C17   C     C_R   0.537986 0.982628 0.651401 -0.218139
C18   C     C_R   0.398208 0.391539 0.022702 -0.339475
C19   C     C_R   0.406350 0.403324 0.144710 0.053931
C20   C     C_R   0.541748 0.548392 0.154114 0.308627
C21   C     C_R   0.537486 0.537657 0.031866 0.086802
C22   C     C_R   0.464126 0.459060 0.965332 0.021989
C23   C     C_R   0.500807 0.700667 0.520858 0.808583
C24   C     C_R   0.458183 0.451424 0.843088 0.035855
C25   C     C_R   0.595599 0.594936 0.854083 0.068852
C26   C     C_R   0.604026 0.605613 0.974723 -0.310603
C27   C     C_R   0.737183 0.489790 0.498594 0.783346
C28   C     C_R   0.149584 0.325522 0.575823 -0.188743
C29   C     C_R   0.097310 0.238704 0.609014 -0.210221
C30   C     C_R   0.970042 0.227897 0.603567 -0.084912
C31   C     C_R   0.892877 0.304196 0.566366 0.126622
C32   C     C_R   0.943433 0.397278 0.535482 0.047866
Cu1   Cu    Cu3+1 0.509250 0.507730 0.615930 0.928808
Cu2   Cu    Cu3+1 0.490750 0.492270 0.384070 0.930722
H1    H     H_    0.101070 0.631844 0.426657 0.142848
H2    H     H_    0.566638 0.028252 0.734275 0.136047
H3    H     H_    0.420258 0.162897 0.286683 0.151790
H4    H     H_    0.539167 0.185012 0.648017 0.155686
H5    H     H_    0.400890 0.391868 0.790277 0.120106
H6    H     H_    0.646778 0.647625 0.811417 0.128390
H7    H     H_    0.340816 0.329851 0.973666 0.146082
H8    H     H_    0.662412 0.667285 0.022264 0.170461
H9    H     H_    0.355569 0.350226 0.187153 0.133662
H10   H     H_    0.249418 0.327739 0.577670 0.147475
H11   H     H_    0.155982 0.178321 0.636704 0.148310
H12   H     H_    0.930348 0.158148 0.626800 0.149282
H13   H     H_    0.876978 0.624021 0.425248 0.138116
H14   H     H_    0.432781 0.816136 0.356437 0.141236
H15   H     H_    0.563929 0.838388 0.714692 0.152808
H16   H     H_    0.407529 0.973140 0.269228 0.136401
N1    N     N_R   0.523180 0.519350 0.790130 -0.181466
N2    N     N_R   0.476820 0.480650 0.209890 -0.190658
O1    O     O_R   0.506570 0.354460 0.582000 -0.610521
O2    O     O_R   0.490940 0.341410 0.386200 -0.590412
O3    O     O_R   0.327470 0.506530 0.597920 -0.581650
O4    O     O_R   0.311840 0.493480 0.402120 -0.577993
O5    O     O_R   0.509060 0.658590 0.613800 -0.586727
O6    O     O_R   0.493430 0.645540 0.418000 -0.597763
O7    O     O_R   0.688160 0.506520 0.597880 -0.584593
O8    O     O_R   0.672530 0.493470 0.402080 -0.588043
N3    N     N_3   0.611452 0.635014 0.216513 -0.625901
H17   H     H_    0.551748 0.694981 0.246736 0.229752
H18   H     H_    0.672406 0.613903 0.280354 0.263709
N4    N     N_3   0.764678 0.279852 0.555780 -0.611834
H19   H     H_    0.722460 0.328522 0.621193 0.259329
H20   H     H_    0.730421 0.288271 0.472726 0.217474

loop_
_geom_bond_atom_site_label_1
_geom_bond_atom_site_label_2
_ccdc_geom_bond_type
Cu1   O3    S    
C11   H4    S    
Cu1   O5    S    
C9    C14   A    
C25   N1    A    
Cu2   O4    S    
C29   C30   A    
C17   H2    S    
C13   C14   A    
Cu1   N1    S    
C1    C8    S    
C11   C13   A    
C9    C10   A    
Cu2   N2    S    
C31   C32   A    
C27   O7    A    
C13   C17   A    
C1    O2    A    
N4    H19   S    
C24   N1    A    
C7    C15   A    
C2    C3    A    
C4    H1    S    
Cu1   O7    S    
C12   O4    A    
C21   C22   A    
C20   C21   A    
Cu2   O8    S    
C5    H13   S    
N3    H17   S    
C15   H14   S    
C8    C11   A    
C7    C23   S    
C5    C6    A    
C31   N4    S    
C2    C32   A    
C28   C29   A    
C21   C26   A    
C19   H9    S    
Cu2   O2    S    
C23   O6    A    
C27   O8    A    
C10   H3    S    
C25   H6    S    
Cu1   O1    S    
C30   C31   A    
C8    C10   A    
Cu2   O6    S    
C22   C24   A    
C12   O3    A    
C16   C17   A    
C3    C4    A    
C24   H5    S    
Cu1   Cu2   S    
C16   H15   S    
C26   H8    S    
C28   H10   S    
C20   N2    A    
C18   C19   A    
C18   H7    S    
C20   N3    S    
C23   O5    A    
C1    O1    A    
C14   C15   A    
C7    C16   A    
C2    C28   A    
C3    C12   S    
C25   C26   A    
C18   C22   A    
C19   N2    A    
C30   H12   S    
N3    H18   S    
C9    H16   S    
C6    C27   S    
C29   H11   S    
C4    C5    A    
C6    C32   A    
N4    H20   S    
