data_mof_unit_25211.cif
_audit_creation_date              2013-03-05T15:50:56-0500
_audit_creation_method            fapswitch 2.2
_symmetry_space_group_name_H-M    P1
_symmetry_Int_Tables_number       1
_space_group_crystal_system       triclinic
_cell_length_a                    12.130403
_cell_length_b                    12.596614
_cell_length_c                    15.763139
_cell_angle_alpha                 92.501476
_cell_angle_beta                  86.764945
_cell_angle_gamma                 93.741392
_cell_volume                      2397.74433915

loop_
_atom_site_label
_atom_site_type_symbol
_atom_site_description
_atom_site_fract_x
_atom_site_fract_y
_atom_site_fract_z
_atom_type_partial_charge
O1    O     O_R   0.421690 0.658830 0.504140 -0.620687
O2    O     O_R   0.609320 0.646410 0.494190 -0.627919
C1    C     C_R   0.522145 0.701814 0.496694 0.874574
O3    O     O_R   0.406150 0.506210 0.627840 -0.598717
O4    O     O_R   0.593770 0.493790 0.617880 -0.652856
C2    C     C_R   0.500472 0.500261 0.661162 0.867812
Zn1   Zn    Zn3+2 0.374720 0.508290 0.506640 1.008441
Zn2   Zn    Zn3+2 0.625280 0.491710 0.493360 0.923156
O5    O     O_R   0.390680 0.353590 0.505810 -0.582948
O6    O     O_R   0.578310 0.341170 0.495860 -0.661375
O7    O     O_R   0.406230 0.506210 0.382120 -0.538415
O8    O     O_R   0.593850 0.493790 0.372160 -0.628094
C3    C     C_R   0.478822 0.303307 0.517794 0.902018
C4    C     C_R   0.499566 0.499568 0.338785 0.934560
C5    C     C_3   0.422079 0.585073 0.955577 0.099112
C6    C     C_3   0.625855 0.517990 0.945220 -0.154851
C7    C     C_3   0.619133 0.532552 0.046655 -0.202095
H1    H     H_    0.677073 0.478951 0.071873 0.177244
C8    C     C_1   0.498604 0.497789 0.250341 -0.140373
C9    C     C_3   0.500450 0.493569 0.916057 -0.028595
C10   C     C_3   0.410505 0.569838 0.054624 -0.076207
C11   C     C_3   0.499537 0.494092 0.083036 0.120310
C12   C     C_3   0.470651 0.374143 0.048946 -0.040920
C13   C     C_3   0.451160 0.377438 0.948010 -0.186334
C14   C     C_1   0.498643 0.495994 0.175209 0.015067
C15   C     C_1   0.500899 0.495076 0.824220 0.066197
C16   C     C_1   0.501137 0.497575 0.749304 -0.057852
H2    H     H_    0.329721 0.526840 0.069004 0.147172
C17   C     C_R   0.467952 0.197304 0.552927 -0.179534
C18   C     C_R   0.535925 0.817625 0.501626 -0.128945
C19   C     C_R   0.647445 0.985116 0.494597 0.225550
C20   C     C_R   0.632522 0.875632 0.470480 0.164433
C21   C     C_R   0.448096 0.870065 0.541348 -0.257127
C22   C     C_R   0.455436 0.978910 0.556994 0.037846
C23   C     C_R   0.558680 0.035150 0.540232 0.099746
C24   C     C_R   0.564496 0.144086 0.559760 -0.107268
C25   C     C_R   0.365727 0.145787 0.579755 0.096393
C26   C     C_R   0.360858 0.034135 0.586213 0.023177
H3    H     H_    0.371730 0.825059 0.557827 0.217957
N1    N     N_R   0.207800 0.519340 0.515510 -0.128770
N2    N     N_R   0.792190 0.480660 0.484490 -0.106257
C27   C     C_R   0.956581 0.434145 0.401061 -0.132075
C28   C     C_R   0.840677 0.426764 0.415813 0.212541
C29   C     C_R   0.857885 0.534012 0.544245 0.246073
C30   C     C_R   0.975956 0.526184 0.539608 0.035190
C31   C     C_R   0.024224 0.473739 0.467108 -0.102018
C32   C     C_R   0.139517 0.458591 0.463648 0.141198
C33   C     C_R   0.164434 0.576263 0.582651 -0.068671
C34   C     C_R   0.049799 0.571487 0.601716 -0.111135
H4    H     H_    0.220396 0.614967 0.627257 0.175297
C35   C     C_3   0.398001 0.674449 0.109258 -0.860454
H5    H     H_    0.329420 0.718220 0.086709 0.247262
H6    H     H_    0.374899 0.657370 0.176647 0.253094
H7    H     H_    0.474152 0.727648 0.107375 0.270499
C36   C     C_2   0.305690 0.578410 0.920869 0.446735
H8    H     H_    0.232387 0.573298 0.963685 0.069244
O9    O     O_2   0.292264 0.583762 0.844945 -0.526636
C37   C     C_2   0.566921 0.305458 0.068359 0.421869
H9    H     H_    0.620506 0.270945 0.019116 0.101530
O10   O     O_2   0.588486 0.290442 0.141558 -0.561347
C38   C     C_2   0.656354 0.195903 0.608776 0.480217
H10   H     H_    0.667602 0.281779 0.616081 0.108819
O11   O     O_2   0.715437 0.142659 0.647854 -0.546604
C39   C     C_3   0.267311 0.208868 0.609041 -0.778702
H11   H     H_    0.221445 0.172978 0.664721 0.247067
H12   H     H_    0.293409 0.290640 0.631994 0.274719
H13   H     H_    0.210575 0.211726 0.556573 0.209671
C40   C     C_3   0.750723 0.051369 0.464103 -0.869182
H14   H     H_    0.804519 0.010859 0.415842 0.238579
H15   H     H_    0.727116 0.124797 0.435088 0.230149
H16   H     H_    0.803955 0.072797 0.517715 0.276115
C41   C     C_2   0.255572 0.977272 0.616695 0.374453
H17   H     H_    0.177005 0.001615 0.597069 0.078164
O12   O     O_2   0.255529 0.906329 0.667080 -0.558347
C42   C     C_3   0.713966 0.824468 0.407023 -0.849088
H18   H     H_    0.726663 0.872738 0.349657 0.237681
H19   H     H_    0.794011 0.817236 0.436498 0.251295
H20   H     H_    0.683809 0.745550 0.381137 0.247306
C43   C     C_2   0.178065 0.359691 0.420486 0.497975
H21   H     H_    0.128742 0.285547 0.429206 -0.015428
O13   O     O_2   0.258252 0.359891 0.370606 -0.515759
C44   C     C_3   0.465570 0.700182 0.932758 -0.783732
H22   H     H_    0.480949 0.706644 0.863027 0.235846
H23   H     H_    0.403560 0.759196 0.951822 0.240932
H24   H     H_    0.540403 0.728234 0.964714 0.274516
C45   C     C_2   0.004938 0.411818 0.313239 0.401907
H25   H     H_    0.970021 0.348166 0.272618 0.085265
O14   O     O_2   0.082555 0.468064 0.284093 -0.530636
C46   C     C_2   0.017021 0.601396 0.690819 0.448493
H26   H     H_    0.049929 0.675951 0.719361 0.104478
O15   O     O_2   0.960686 0.539171 0.734970 -0.514806
C47   C     C_3   0.773061 0.361108 0.352622 -0.786438
H27   H     H_    0.810005 0.283470 0.338711 0.186970
H28   H     H_    0.688828 0.338871 0.375927 0.294207
H29   H     H_    0.770902 0.403925 0.292675 0.243824
C48   C     C_3   0.806141 0.607032 0.611336 -0.757674
H30   H     H_    0.729704 0.637226 0.593134 0.271708
H31   H     H_    0.787413 0.565131 0.671292 0.262120
H32   H     H_    0.859517 0.680837 0.621502 0.192917
C49   C     C_2   0.698290 0.427287 0.914561 0.407774
H33   H     H_    0.694322 0.395998 0.849615 0.132038
O16   O     O_2   0.770557 0.397080 0.957038 -0.529819
C50   C     C_2   0.688375 0.610708 0.899854 0.522489
H34   H     H_    0.652781 0.649871 0.849172 0.027371
O17   O     O_2   0.784736 0.636544 0.914189 -0.457409
C51   C     C_2   0.661773 0.637502 0.089928 0.465298
H35   H     H_    0.670644 0.639633 0.158131 0.055776
O18   O     O_2   0.688201 0.718768 0.052679 -0.537857
C52   C     C_2   0.328234 0.360953 0.928344 0.444130
H36   H     H_    0.262701 0.377165 0.975414 0.057704
O19   O     O_2   0.300194 0.336566 0.856323 -0.497203
C53   C     C_2   0.498582 0.280095 0.899655 0.422780
H37   H     H_    0.493105 0.203962 0.929866 0.071051
O20   O     O_2   0.529481 0.280871 0.824595 -0.559055
C54   C     C_3   0.368594 0.319500 0.099775 -0.810727
H38   H     H_    0.387544 0.303227 0.165941 0.295963
H39   H     H_    0.295593 0.367710 0.107390 0.226068
H40   H     H_    0.343782 0.241463 0.068536 0.221806

loop_
_geom_bond_atom_site_label_1
_geom_bond_atom_site_label_2
_geom_bond_distance
_ccdc_geom_bond_type
C12   C37   1.549599 S    
C36   H8    1.085774 S    
N1    C32   1.370797 A    
C23   C24   1.391284 A    
C13   C53   1.541558 S    
C32   C43   1.483135 S    
C20   C42   1.518967 S    
C53   O20   1.221061 D    
C30   C31   1.412227 A    
Zn1   O7    1.977780 S    
C17   C24   1.398402 A    
C15   C16   1.182541 T    
C21   H3    1.078962 S    
C9    C15   1.448281 S    
C3    C17   1.463004 S    
C52   O19   1.224100 D    
O4    C2    1.293440 A    
Zn2   O6    1.945535 S    
O7    C4    1.294444 A    
C45   O14   1.221502 D    
C51   H35   1.085496 S    
C37   O10   1.222753 D    
C54   H38   1.111105 S    
C48   H32   1.108764 S    
N1    C33   1.353189 A    
C22   C23   1.415411 A    
C27   C31   1.415486 A    
C38   O11   1.221290 D    
O5    C3    1.304491 A    
C49   H33   1.083322 S    
C9    C13   1.633201 S    
C40   H14   1.103862 S    
C54   H39   1.104169 S    
C11   C14   1.451533 S    
C48   H31   1.107737 S    
Zn1   N1    2.035165 S    
C27   C45   1.495158 S    
C46   O15   1.220559 D    
C6    C9    1.620351 S    
C33   H4    1.083362 S    
O1    Zn1   1.945535 S    
C10   C11   1.582324 S    
N2    C28   1.376557 A    
C19   C40   1.525673 S    
O3    Zn1   1.970764 S    
C49   O16   1.222133 D    
C53   H37   1.085768 S    
C7    H1    1.106699 S    
C5    C44   1.560267 S    
C5    C9    1.622943 S    
C26   C41   1.488780 S    
C35   H5    1.110305 S    
C39   H13   1.108632 S    
Zn2   N2    2.035043 S    
C41   O12   1.221167 D    
C43   O13   1.215688 D    
C45   H25   1.083398 S    
C6    C49   1.531649 S    
C37   H9    1.079128 S    
C47   H29   1.110696 S    
O1    C1    1.301972 A    
C5    C36   1.538626 S    
C1    C18   1.456674 S    
C42   H18   1.109594 S    
C25   C26   1.411698 A    
C29   C48   1.507977 S    
C6    C50   1.531898 S    
C2    C16   1.391781 S    
C30   C34   1.438742 A    
Zn2   O8    1.970765 S    
C54   H40   1.111403 S    
C48   H30   1.082716 S    
C47   H28   1.089365 S    
C21   C22   1.380439 A    
C50   O17   1.223533 D    
C42   H19   1.110454 S    
O3    C2    1.293475 A    
C33   C34   1.403955 A    
C10   H2    1.105170 S    
O8    C4    1.293146 A    
C44   H23   1.112075 S    
C36   O9    1.222240 D    
N2    C29   1.390502 A    
C19   C23   1.426764 A    
C27   C28   1.409751 A    
C24   C38   1.490925 S    
C10   C35   1.553507 S    
C25   C39   1.516350 S    
C29   C30   1.439579 A    
Zn1   O5    1.970227 S    
C31   C32   1.421491 A    
C18   C21   1.394248 A    
C22   C26   1.424378 A    
C4    C8    1.394062 S    
C19   C20   1.417294 A    
O2    Zn2   1.970227 S    
C13   C52   1.539104 S    
C28   C47   1.510190 S    
C34   C46   1.477530 S    
C41   H17   1.085238 S    
O6    C3    1.302163 A    
O4    Zn2   1.977780 S    
C44   H24   1.093991 S    
C7    C11   1.583313 S    
C35   H7    1.105042 S    
C39   H11   1.109499 S    
O2    C1    1.302332 A    
C52   H36   1.079604 S    
C18   C20   1.415145 A    
C6    C7    1.599527 S    
C51   O18   1.218133 D    
C40   H16   1.105855 S    
C47   H27   1.110299 S    
C38   H10   1.083369 S    
C8    C14   1.183516 T    
C42   H20   1.105685 S    
C12   C13   1.624393 S    
C12   C54   1.572695 S    
C43   H21   1.085434 S    
C5    C10   1.578635 S    
C40   H15   1.110395 S    
C44   H22   1.110102 S    
C17   C25   1.413282 A    
C50   H34   1.081295 S    
C11   C12   1.604923 S    
C35   H6    1.109818 S    
C46   H26   1.085453 S    
C7    C51   1.533757 S    
C39   H12   1.109031 S    
