data_mof_unit_9059.cif
_audit_creation_date              2012-12-11T16:24:06-0500
_audit_creation_method            fapswitch 2.2
_symmetry_space_group_name_H-M    P1
_symmetry_Int_Tables_number       1
_space_group_crystal_system       triclinic
_cell_length_a                    14.721805
_cell_length_b                    14.705258
_cell_length_c                    33.194677
_cell_angle_alpha                 95.677101
_cell_angle_beta                  95.842311
_cell_angle_gamma                 61.412295
_cell_volume                      6266.98422621

loop_
_atom_site_label
_atom_site_type_symbol
_atom_type_description
_atom_site_fract_x
_atom_site_fract_y
_atom_site_fract_z
_atom_type_partial_charge
C1    C     C_R   0.391308 0.699484 0.445987 0.546134
C2    C     C_R   0.338671 0.349552 0.308016 0.039166
C3    C     C_R   0.417747 0.265865 0.328180 -0.111386
C4    C     C_R   0.434367 0.274385 0.370141 -0.126406
C5    C     C_R   0.400785 0.285048 0.162594 -0.097991
C6    C     C_R   0.391129 0.266759 0.120483 0.206185
C7    C     C_R   0.203304 0.354294 0.124174 -0.166387
C8    C     C_R   0.214268 0.372699 0.165738 -0.118842
C9    C     C_R   0.312785 0.335090 0.185086 -0.002424
C10   C     C_1   0.322861 0.341600 0.228370 -0.002265
C11   C     C_1   0.329758 0.345385 0.264724 -0.004489
C12   C     C_R   0.406170 0.386446 0.433967 0.537887
C13   C     C_R   0.290918 0.297288 0.101239 0.008644
C14   C     C_R   0.666643 0.422865 0.398111 -0.023174
C15   C     C_R   0.688355 0.490606 0.378953 -0.111640
C16   C     C_R   0.700838 0.479105 0.337139 0.230807
C17   C     C_R   0.687720 0.399639 0.313619 0.025217
C18   C     C_R   0.664337 0.333268 0.332890 -0.157073
C19   C     C_R   0.653746 0.344769 0.374582 -0.140690
C20   C     C_R   0.749990 0.342465 0.190772 0.349787
C21   C     C_R   0.703721 0.379656 0.269788 0.367631
C22   C     C_R   0.784286 0.406413 0.130078 -0.103070
C23   C     C_R   0.650619 0.437841 0.442019 0.559049
C24   C     C_R   0.837497 0.387267 0.095167 -0.122389
C25   C     C_R   0.895475 0.203362 0.097404 -0.113257
C26   C     C_R   0.843205 0.222394 0.132645 -0.076009
C27   C     C_R   0.789573 0.323839 0.149979 0.050388
C28   C     C_R   0.895889 0.285339 0.079136 0.018483
C29   C     C_R   0.372810 0.752024 0.408270 0.027728
C30   C     C_R   0.280364 0.777997 0.384390 -0.120863
C31   C     C_R   0.272710 0.801345 0.344220 -0.115910
C32   C     C_R   0.357038 0.799908 0.327331 0.035033
C33   C     C_R   0.445516 0.784321 0.352338 -0.109054
C34   C     C_R   0.392955 0.702122 0.561023 0.589805
C35   C     C_R   0.453536 0.760169 0.392535 -0.131718
C36   C     C_R   0.354122 0.810575 0.201815 0.349135
C37   C     C_R   0.355249 0.806242 0.283314 0.353110
C38   C     C_R   0.265289 0.819294 0.133238 -0.110791
C39   C     C_R   0.242102 0.855386 0.094367 -0.123067
C40   C     C_R   0.386080 0.893579 0.102993 -0.123506
C41   C     C_R   0.409184 0.857602 0.141934 -0.116372
C42   C     C_R   0.345601 0.825244 0.158122 0.035609
C43   C     C_R   0.299045 0.897718 0.079750 0.024512
C44   C     C_R   0.370809 0.365148 0.585368 -0.026479
C45   C     C_R   0.406133 0.387243 0.548636 0.553356
C46   C     C_R   0.276338 0.439080 0.602268 0.184283
C47   C     C_R   0.265989 0.442306 0.643959 -0.135020
C48   C     C_R   0.345551 0.370136 0.668691 -0.035063
C49   C     C_R   0.430236 0.287175 0.650657 -0.089262
C50   C     C_R   0.441795 0.281062 0.609072 -0.027635
C51   C     C_R   0.328365 0.376614 0.794130 0.351731
C52   C     C_R   0.339469 0.376521 0.713024 0.356505
C53   C     C_R   0.223265 0.418807 0.854393 -0.113697
C54   C     C_R   0.209480 0.391188 0.891405 -0.126553
C55   C     C_R   0.389417 0.258845 0.895480 -0.114992
C56   C     C_R   0.701485 0.413276 0.562659 0.554871
C57   C     C_R   0.403374 0.286877 0.858624 -0.107939
C58   C     C_R   0.319193 0.363821 0.836806 0.035073
C59   C     C_R   0.291283 0.307822 0.911334 0.023825
C60   C     C_R   0.753978 0.379610 0.602873 0.010924
C61   C     C_R   0.782327 0.444631 0.628866 -0.114907
C62   C     C_R   0.810171 0.424379 0.669756 -0.101137
C63   C     C_R   0.810359 0.338923 0.684983 0.033241
C64   C     C_R   0.788532 0.270306 0.658897 -0.091906
C65   C     C_R   0.760848 0.290222 0.618008 -0.108259
C66   C     C_R   0.882941 0.213913 0.823363 -0.106241
C67   C     C_R   0.372381 0.367244 0.392195 0.023363
C68   C     C_R   0.910995 0.202485 0.864747 -0.127180
C69   C     C_R   0.871751 0.383119 0.873455 -0.119389
C70   C     C_R   0.843475 0.394372 0.832127 -0.106774
C71   C     C_R   0.852081 0.309041 0.806889 0.042034
C72   C     C_1   0.836889 0.317502 0.763826 -0.006688
C73   C     C_1   0.825616 0.326023 0.727782 -0.006929
C74   C     C_R   0.909294 0.286069 0.889923 0.021907
C75   C     C_R   0.375358 0.753398 0.602219 -0.016008
C76   C     C_R   0.323058 0.724875 0.627051 -0.175899
C77   C     C_R   0.316099 0.753785 0.668164 -0.030555
C78   C     C_R   0.288591 0.448297 0.371881 -0.109132
C79   C     C_R   0.362922 0.814273 0.685434 0.018976
C80   C     C_R   0.410375 0.850713 0.660549 0.213449
C81   C     C_R   0.418671 0.817891 0.618642 -0.006495
C82   C     C_R   0.416936 0.846385 0.836983 -0.132306
C83   C     C_R   0.395402 0.866551 0.878203 0.005194
C84   C     C_R   0.211815 0.931645 0.857957 -0.145193
C85   C     C_R   0.234744 0.909637 0.817496 -0.093490
C86   C     C_R   0.336560 0.869745 0.806899 0.035117
C87   C     C_1   0.356204 0.850878 0.764752 0.078195
C88   C     C_1   0.363346 0.835357 0.728698 0.128800
C89   C     C_R   0.272118 0.439474 0.329906 -0.094394
C90   C     C_R   0.290466 0.914247 0.888761 0.040467
C91   C     C_R   0.962755 0.264230 0.045482 0.544659
C92   C     C_R   0.273304 0.260431 0.059661 0.573803
C93   C     C_R   0.259440 0.958805 0.043562 0.552979
C94   C     C_R   0.962326 0.267865 0.930787 0.545520
C95   C     C_R   0.270995 0.264566 0.945436 0.550230
C96   C     C_R   0.257176 0.963430 0.929366 0.583496
Cr1   Cr    Cr6+3 0.576280 0.580550 0.506370 1.068436
Cr2   Cr    Cr6+3 0.346780 0.572400 0.496520 1.123653
Cr3   Cr    Cr6+3 0.576960 0.347070 0.497150 1.035312
Cr4   Cr    Cr6+3 0.087320 0.083240 0.984860 1.032118
Cr5   Cr    Cr6+3 0.087720 0.316210 0.996740 1.026883
Cr6   Cr    Cr6+3 0.317350 0.090340 0.995890 1.124287
H1    H     H_    0.634852 0.292688 0.388353 0.150215
H2    H     H_    0.835535 0.452072 0.081451 0.141844
H3    H     H_    0.654039 0.272097 0.315530 0.139852
H4    H     H_    0.743512 0.485514 0.142579 0.151536
H5    H     H_    0.939548 0.123992 0.085604 0.137558
H6    H     H_    0.848027 0.157248 0.147120 0.155095
H7    H     H_    0.216356 0.773529 0.395820 0.146021
H8    H     H_    0.525502 0.741301 0.410359 0.131817
H9    H     H_    0.175616 0.856053 0.076824 0.140422
H10   H     H_    0.476895 0.257868 0.178084 0.156618
H11   H     H_    0.202467 0.815568 0.325909 0.146419
H12   H     H_    0.510859 0.784876 0.340325 0.164302
H13   H     H_    0.216181 0.792699 0.144584 0.145067
H14   H     H_    0.432180 0.924634 0.092283 0.151866
H15   H     H_    0.472596 0.861629 0.160182 0.145840
H16   H     H_    0.133022 0.431012 0.903078 0.135775
H17   H     H_    0.196065 0.502012 0.657137 0.175740
H18   H     H_    0.487383 0.225833 0.669078 0.186238
H19   H     H_    0.469195 0.195774 0.311318 0.125506
H20   H     H_    0.157220 0.479248 0.838570 0.142660
H21   H     H_    0.454191 0.195271 0.910470 0.148928
H22   H     H_    0.478769 0.243860 0.846184 0.147181
H23   H     H_    0.939864 0.126701 0.876465 0.129209
H24   H     H_    0.889609 0.147501 0.803980 0.126404
H25   H     H_    0.788710 0.203845 0.670469 0.150365
H26   H     H_    0.739230 0.238741 0.598846 0.167054
H27   H     H_    0.777584 0.514110 0.618184 0.154423
H28   H     H_    0.819271 0.468416 0.819575 0.120261
H29   H     H_    0.869487 0.448922 0.892030 0.135837
H30   H     H_    0.499467 0.210657 0.384911 0.138593
H31   H     H_    0.827301 0.477728 0.689816 0.135292
H32   H     H_    0.496241 0.811848 0.828303 0.112022
H33   H     H_    0.291261 0.674421 0.614597 0.169986
H34   H     H_    0.172281 0.926437 0.794303 0.155117
H35   H     H_    0.131118 0.968002 0.864889 0.131665
H36   H     H_    0.239706 0.520885 0.387975 0.145635
H37   H     H_    0.145811 0.412093 0.183054 0.144138
H38   H     H_    0.125650 0.379259 0.110480 0.149877
H39   H     H_    0.210353 0.504355 0.314380 0.135386
H40   H     H_    0.696830 0.552047 0.396804 0.158912
N1    N     N_R   0.690124 0.440612 0.205982 -0.197681
N2    N     N_R   0.249493 0.439657 0.730896 -0.207304
N3    N     N_R   0.424259 0.316037 0.736653 -0.210627
N4    N     N_R   0.418790 0.315854 0.776322 -0.214103
N5    N     N_R   0.666891 0.458729 0.244657 -0.123498
N6    N     N_R   0.759947 0.281130 0.254244 -0.219092
N7    N     N_R   0.782887 0.262916 0.215515 -0.217476
N8    N     N_R   0.280088 0.799282 0.218544 -0.224843
N9    N     N_R   0.280883 0.796742 0.258454 -0.226514
N10   N     N_R   0.430113 0.816408 0.266637 -0.179379
N11   N     N_R   0.429163 0.819218 0.226646 -0.199144
N12   N     N_R   0.243974 0.439327 0.770685 -0.213488
O1    O     O_R   0.679450 0.499830 0.463150 -0.494865
O2    O     O_R   0.356040 0.477400 0.534170 -0.423171
O3    O     O_R   0.495910 0.323070 0.537100 -0.538219
O4    O     O_R   0.663920 0.359620 0.542290 -0.493916
O5    O     O_3   0.500010 0.500010 0.500010 -0.295701
O6    O     O_R   0.170070 0.978950 0.027680 -0.518452
O7    O     O_R   0.001760 0.175230 0.026640 -0.496354
O8    O     O_R   0.984760 0.333570 0.037150 -0.517448
O9    O     O_R   0.183410 0.309240 0.041890 -0.515317
O10   O     O_R   0.340240 0.172500 0.045430 -0.432420
O11   O     O_R   0.309670 0.000990 0.032050 -0.486154
O12   O     O_R   0.480650 0.664000 0.464630 -0.511123
O13   O     O_R   0.168330 0.982130 0.939200 -0.525690
O14   O     O_R   0.000140 0.178170 0.944610 -0.502331
O15   O     O_R   0.983010 0.336750 0.948660 -0.515327
O16   O     O_R   0.181800 0.312190 0.959860 -0.505070
O17   O     O_R   0.338500 0.175680 0.956950 -0.496736
O18   O     O_R   0.308050 0.003930 0.950020 -0.456421
O19   O     O_3   0.164130 0.163270 0.992500 -0.265333
O20   O     O_R   0.323930 0.675950 0.455370 -0.511378
O21   O     O_R   0.354700 0.475360 0.451930 -0.490383
O22   O     O_R   0.494470 0.320860 0.448390 -0.531475
O23   O     O_R   0.662580 0.357570 0.460050 -0.485463
O24   O     O_R   0.680900 0.502040 0.551870 -0.501933
O25   O     O_R   0.481990 0.666040 0.546870 -0.476409
O26   O     O_R   0.325370 0.678160 0.544080 -0.471457
S1    S     S_3+6 0.505525 0.205891 0.093587 0.036178
O27   O     O_2   0.485364 0.252810 0.053291 -0.228768
O28   O     O_2   0.591314 0.219431 0.117288 -0.284800
O29   O     O_3   0.542807 0.078478 0.085792 -0.481259
H41   H     H_    0.546981 0.054170 0.113040 0.325398
S2    S     S_3+6 0.740310 0.560483 0.316518 0.034406
O30   O     O_2   0.830713 0.495908 0.290875 -0.211810
O31   O     O_2   0.652468 0.636956 0.290448 -0.266993
O32   O     O_3   0.776336 0.625656 0.353569 -0.495382
H42   H     H_    0.711099 0.687139 0.361439 0.331781
S3    S     S_3+6 0.165995 0.522516 0.572259 0.037799
O33   O     O_2   0.166616 0.623437 0.569303 -0.237187
O34   O     O_2   0.165772 0.473456 0.530325 -0.257504
O35   O     O_3   0.057344 0.547173 0.593825 -0.488569
H43   H     H_    0.059353 0.478854 0.593773 0.346290
C97   C     C_2   0.526446 0.184493 0.591226 0.266681
H44   H     H_    0.520531 0.161558 0.559401 0.152892
O36   O     O_2   0.602742 0.128067 0.612068 -0.506164
C98   C     C_2   0.484657 0.834281 0.908617 0.238629
H45   H     H_    0.559266 0.820785 0.899729 0.101667
O37   O     O_2   0.477752 0.817490 0.943166 -0.482065
S4    S     S_3+6 0.458338 0.937772 0.681241 0.002826
O38   O     O_2   0.410362 0.993251 0.720150 -0.261657
O39   O     O_2   0.573752 0.876339 0.689169 -0.292681
O40   O     O_3   0.432083 0.027721 0.647967 -0.511447
H46   H     H_    0.478313 0.058139 0.657301 0.381354
C99   C     C_2   0.472960 0.850218 0.592437 0.314616
H47   H     H_    0.540873 0.857082 0.604428 0.172425
O41   O     O_2   0.440900 0.871927 0.557449 -0.477935
C100  C     C_2   0.260653 0.715626 0.691417 0.253996
H48   H     H_    0.241803 0.656269 0.677468 0.124901
O42   O     O_2   0.232652 0.750816 0.725443 -0.501304

loop_
_geom_bond_atom_site_label_1
_geom_bond_atom_site_label_2
_ccdc_geom_bond_type
C8    C9    A    
C66   C68   A    
C87   C88   T    
C51   N12   A    
C52   N3    A    
Cr2   O21   S    
C23   O1    A    
C93   O6    A    
C41   C42   A    
C74   C94   S    
C36   C42   S    
C46   S3    S    
C40   H14   S    
S3    O34   D    
N3    N4    A    
Cr1   O24   S    
C7    C8    A    
C4    H30   S    
C56   O24   A    
O40   H46   S    
O29   H41   S    
C25   C28   A    
N1    N5    A    
C33   H12   S    
C29   C30   A    
S4    O39   D    
C8    H37   S    
Cr1   O5    S    
C62   H31   S    
Cr5   O8    S    
Cr3   O23   S    
C55   C59   A    
C53   H20   S    
C94   O15   A    
C85   C86   A    
C5    C6    A    
Cr2   O20   S    
Cr1   O25   S    
C49   H18   S    
C68   C74   A    
Cr1   O12   S    
C70   H28   S    
C20   N7    A    
C18   C19   A    
C49   C50   A    
C56   O4    A    
C43   C93   S    
Cr5   O19   S    
C40   C43   A    
C80   S4    S    
Cr3   O22   S    
C66   C71   A    
C53   C54   A    
C16   C17   A    
S4    O40   S    
C91   O8    A    
Cr5   O15   S    
Cr4   O7    S    
C9    C10   S    
C50   C97   S    
C61   C62   A    
C61   H27   S    
C34   C75   S    
C12   O22   A    
C92   O10   A    
C47   H17   S    
O35   H43   S    
C93   O11   A    
C98   H45   S    
C63   C64   A    
C20   N1    A    
C34   O25   A    
O32   H42   S    
C67   C78   A    
C84   C90   A    
C37   N9    A    
C2    C11   S    
C78   H36   S    
C83   C98   S    
C79   C88   S    
C76   H33   S    
C44   C46   A    
C36   N11   A    
Cr2   O2    S    
C54   C59   A    
S1    O28   D    
C78   C89   A    
Cr6   O18   S    
C38   C39   A    
C12   C67   S    
C55   H21   S    
C1    O20   A    
C23   O23   A    
S4    O38   D    
C6    S1    S    
C99   H47   S    
C21   N6    A    
Cr5   O9    S    
C45   O3    A    
C84   C85   A    
C72   C73   T    
C97   O36   D    
C94   O14   A    
C45   O2    A    
C86   C87   S    
C80   C81   A    
C39   C43   A    
C63   C73   S    
C51   N4    A    
C25   C26   A    
S1    O27   D    
C19   H1    S    
C90   C96   S    
C17   C21   S    
C56   C60   S    
C60   C61   A    
C24   H2    S    
C30   H7    S    
C14   C23   S    
C82   H32   S    
C2    C89   A    
C75   C76   A    
C65   H26   S    
C5    C9    A    
C62   C63   A    
C15   H40   S    
Cr4   O6    S    
C47   C48   A    
C14   C15   A    
C7    C13   A    
C30   C31   A    
C69   H29   S    
C64   H25   S    
C1    C29   S    
C17   C18   A    
C26   C27   A    
C96   O13   A    
Cr5   O16   S    
C39   H9    S    
C51   C58   S    
C52   N2    A    
C32   C37   S    
N6    N7    A    
C76   C77   A    
C34   O26   A    
C70   C71   A    
C35   H8    S    
C77   C100  S    
C59   C95   S    
C12   O21   A    
C92   O9    A    
C40   C41   A    
C5    H10   S    
C60   C65   A    
C100  H48   S    
Cr6   O11   S    
C100  O42   D    
C22   C27   A    
C55   C57   A    
C13   C92   S    
C22   C24   A    
Cr3   O5    S    
C37   N10   A    
S2    O31   D    
C3    C4    A    
C54   H16   S    
C21   N5    A    
C44   C45   S    
C25   H5    S    
C99   O41   D    
S1    O29   S    
C44   C50   A    
Cr6   O17   S    
C83   C90   A    
C46   C47   A    
C48   C49   A    
N8    N9    A    
C14   C19   A    
C31   C32   A    
C75   C81   A    
C24   C28   A    
C97   H44   S    
C84   H35   S    
C4    C67   A    
C53   C58   A    
C38   C42   A    
C20   C27   S    
C29   C35   A    
C81   C99   S    
Cr4   O14   S    
C64   C65   A    
S2    O32   S    
Cr3   O3    S    
C2    C3    A    
S3    O35   S    
C71   C72   S    
C22   H4    S    
C32   C33   A    
C6    C13   A    
C82   C86   A    
C38   H13   S    
C36   N8    A    
C57   C58   A    
C7    H38   S    
C95   O17   A    
C1    O12   A    
C89   H39   S    
C15   C16   A    
Cr4   O13   S    
C33   C35   A    
C28   C91   S    
Cr1   O1    S    
N2    N12   A    
C69   C70   A    
S3    O33   D    
C95   O16   A    
C18   H3    S    
C10   C11   T    
C85   H34   S    
C79   C80   A    
C77   C79   A    
C66   H24   S    
C48   C52   S    
Cr2   O5    S    
Cr6   O10   S    
C82   C83   A    
C96   O18   A    
Cr3   O4    S    
Cr6   O19   S    
Cr4   O19   S    
C98   O37   D    
C69   C74   A    
C91   O7    A    
C16   S2    S    
N10   N11   A    
C41   H15   S    
S2    O30   D    
Cr2   O26   S    
C68   H23   S    
C31   H11   S    
C26   H6    S    
C3    H19   S    
C57   H22   S    
