data_mof_unit_22385.cif
_audit_creation_date              2012-12-10T18:50:00-0500
_audit_creation_method            fapswitch 2.2
_symmetry_space_group_name_H-M    P1
_symmetry_Int_Tables_number       1
_space_group_crystal_system       triclinic
_cell_length_a                    10.809307
_cell_length_b                    9.806286
_cell_length_c                    10.686547
_cell_angle_alpha                 90.328458
_cell_angle_beta                  90.612221
_cell_angle_gamma                 90.434712
_cell_volume                      1132.64854855

loop_
_atom_site_label
_atom_site_type_symbol
_atom_type_description
_atom_site_fract_x
_atom_site_fract_y
_atom_site_fract_z
_atom_type_partial_charge
C1    C     C_R   0.259585 0.499693 0.500289 1.018872
C2    C     C_R   0.558056 0.929016 0.593669 -0.000583
C3    C     C_R   0.441497 0.927035 0.406659 -0.004298
C4    C     C_R   0.441639 0.071055 0.406497 0.003654
C5    C     C_R   0.490381 0.499649 0.258259 0.983738
C6    C     C_R   0.739925 0.500807 0.499008 0.994034
C7    C     C_R   0.493243 0.499902 0.742114 0.866815
C8    C     C_3   0.427289 0.635545 0.071850 0.262958
C9    C     C_3   0.410076 0.372511 0.071967 0.251241
C10   C     C_3   0.414329 0.627490 0.927392 -0.140000
C11   C     C_3   0.422051 0.363700 0.927718 -0.101952
C12   C     C_3   0.626719 0.505457 0.933266 0.255484
C13   C     C_3   0.619840 0.488093 0.077266 -0.552869
C14   C     C_3   0.484248 0.499373 0.122225 -0.139671
C15   C     C_3   0.487661 0.498921 0.878794 0.029559
C16   C     C_3   0.279720 0.637748 0.878544 -0.636058
C17   C     C_3   0.302455 0.311248 0.859959 -0.741890
C18   C     C_3   0.693107 0.643399 0.905191 -0.783430
C19   C     C_3   0.712567 0.393015 0.878772 -0.787550
C20   C     C_R   0.060913 0.389714 0.444596 0.371513
C21   C     C_R   0.064503 0.613246 0.551301 0.323426
C22   C     C_R   0.933619 0.396210 0.435655 0.316707
C23   C     C_R   0.937024 0.611563 0.554430 0.332093
C24   C     C_R   0.871934 0.503065 0.496321 -0.388842
C25   C     C_R   0.126847 0.500027 0.499823 -0.385572
C26   C     C_R   0.558206 0.073141 0.593594 -0.032452
Cl1   Cl    Cl    0.289419 0.690739 0.151864 -0.554111
Cl2   Cl    Cl    0.253399 0.369642 0.127240 -0.506198
Cl3   Cl    Cl    0.132874 0.241627 0.383534 -0.419278
Cl4   Cl    Cl    0.141236 0.759621 0.615375 -0.503590
Cl5   Cl    Cl    0.854152 0.273711 0.340367 -0.483857
Cl6   Cl    Cl    0.862652 0.747204 0.634337 -0.544697
H1    H     H_    0.494398 0.718996 0.094202 0.107229
H2    H     H_    0.604217 0.875149 0.668586 0.155932
H3    H     H_    0.250737 0.746202 0.878734 0.276744
H4    H     H_    0.270908 0.598585 0.781531 0.222467
H5    H     H_    0.213377 0.581910 0.937639 0.293907
H6    H     H_    0.314357 0.295464 0.758368 0.247221
H7    H     H_    0.277396 0.209656 0.898142 0.265584
H8    H     H_    0.221223 0.376633 0.872349 0.264248
H9    H     H_    0.653065 0.730840 0.956094 0.205099
H10   H     H_    0.791953 0.640114 0.934773 0.275230
H11   H     H_    0.690661 0.665775 0.804142 0.274397
H12   H     H_    0.451903 0.277999 0.110751 0.112702
H13   H     H_    0.806599 0.401532 0.921413 0.265707
H14   H     H_    0.680521 0.288061 0.898498 0.214564
H15   H     H_    0.723583 0.404225 0.776201 0.237698
H16   H     H_    0.394643 0.871754 0.332327 0.191199
H17   H     H_    0.395185 0.124951 0.331744 0.180741
H18   H     H_    0.459000 0.720990 0.889932 0.166060
H19   H     H_    0.485986 0.278440 0.909627 0.151519
H20   H     H_    0.679553 0.564985 0.126656 0.213756
H21   H     H_    0.657016 0.387239 0.106388 0.225763
H22   H     H_    0.604810 0.128775 0.668267 0.137619
N1    N     N_R   0.499970 0.857200 0.499970 -0.093224
N2    N     N_R   0.499970 0.142800 0.499970 -0.094289
O1    O     O_R   0.316750 0.614620 0.499990 -0.556089
O2    O     O_R   0.316750 0.385380 0.499990 -0.590844
O3    O     O_R   0.499970 0.614670 0.314790 -0.622195
O4    O     O_R   0.499970 0.385330 0.314790 -0.621308
O5    O     O_R   0.683220 0.614710 0.500010 -0.575752
O6    O     O_R   0.683220 0.385290 0.500010 -0.583119
O7    O     O_R   0.500010 0.614660 0.685200 -0.640373
O8    O     O_R   0.500010 0.385340 0.685200 -0.653311
Zn1   Zn    Zn3+2 0.499980 0.653120 0.500000 1.030679
Zn2   Zn    Zn3+2 0.499980 0.346880 0.500000 1.011244

loop_
_geom_bond_atom_site_label_1
_geom_bond_atom_site_label_2
_ccdc_geom_bond_type
C9    C14   S    
C19   H13   S    
C1    O1    A    
C13   H20   S    
C21   Cl4   S    
C4    H17   S    
C12   C15   S    
C16   H5    S    
C23   C24   A    
C6    C24   S    
C23   Cl6   S    
C6    O6    A    
C22   C24   A    
C7    C15   S    
C11   C15   S    
C19   H14   S    
O4    Zn2   S    
C2    C26   A    
O8    Zn2   S    
C10   C16   S    
C18   H11   S    
O3    Zn1   S    
C1    C25   S    
C9    C11   S    
C7    O7    A    
C5    C14   S    
C16   H4    S    
C22   Cl5   S    
C21   C25   A    
N2    Zn2   S    
C26   H22   S    
C6    O5    A    
C16   H3    S    
N1    Zn1   S    
C20   C22   A    
C2    N1    A    
C13   H21   S    
C20   Cl3   S    
C18   H10   S    
C21   C23   A    
O7    Zn1   S    
C13   C14   S    
C19   H15   S    
C7    O8    A    
C11   H19   S    
C20   C25   A    
O6    Zn2   S    
C3    C4    A    
C10   H18   S    
O5    Zn1   S    
C3    H16   S    
C12   C13   S    
C12   C19   S    
C8    C10   S    
C17   H7    S    
C18   H9    S    
C12   C18   S    
C8    Cl1   S    
C5    O3    A    
C11   C17   S    
C9    H12   S    
C8    C14   S    
C8    H1    S    
C5    O4    A    
C2    H2    S    
C1    O2    A    
C3    N1    A    
O2    Zn2   S    
C4    N2    A    
C17   H6    S    
C9    Cl2   S    
O1    Zn1   S    
C10   C15   S    
C17   H8    S    
C26   N2    A    
