data_mof_unit_40429.cif
_audit_creation_date              2013-03-05T16:41:05-0500
_audit_creation_method            fapswitch 2.2
_symmetry_space_group_name_H-M    P1
_symmetry_Int_Tables_number       1
_space_group_crystal_system       triclinic
_cell_length_a                    8.583739
_cell_length_b                    10.694856
_cell_length_c                    9.890454
_cell_angle_alpha                 89.517681
_cell_angle_beta                  98.41586
_cell_angle_gamma                 90.199241
_cell_volume                      898.150797935

loop_
_atom_site_label
_atom_site_type_symbol
_atom_site_description
_atom_site_fract_x
_atom_site_fract_y
_atom_site_fract_z
_atom_type_partial_charge
O1    O     O_R   0.500020 0.316790 0.614690 -0.617281
O2    O     O_R   0.500000 0.316760 0.385350 -0.622406
C1    C     C_R   0.502065 0.260143 0.500738 0.924485
O3    O     O_R   0.271760 0.500010 0.587850 -0.607712
O4    O     O_R   0.271740 0.499970 0.358500 -0.627274
C2    C     C_R   0.201335 0.500184 0.464263 0.996136
Zn1   Zn    Zn3+2 0.500010 0.500020 0.653130 0.962013
Zn2   Zn    Zn3+2 0.499990 0.499980 0.346870 0.955095
O5    O     O_R   0.500000 0.683240 0.614650 -0.619368
O6    O     O_R   0.499980 0.683210 0.385310 -0.624562
O7    O     O_R   0.728260 0.500030 0.641500 -0.633454
O8    O     O_R   0.728240 0.499990 0.412150 -0.627495
C3    C     C_R   0.503146 0.739701 0.499985 0.866498
C4    C     C_R   0.798621 0.501582 0.535578 0.969668
C5    C     C_2   0.036235 0.498450 0.444930 -0.337227
H1    H     H_    0.975053 0.487960 0.341290 0.161303
C6    C     C_2   0.963535 0.507123 0.554156 -0.328023
H2    H     H_    0.024661 0.519597 0.657224 0.160679
C7    C     C_R   0.474705 0.061908 0.615122 0.013906
C8    C     C_R   0.517063 0.128311 0.504493 -0.049598
C9    C     C_R   0.580618 0.065969 0.400899 -0.161929
H3    H     H_    0.623064 0.116669 0.318211 0.168235
C10   C     C_R   0.581045 0.936430 0.400179 -0.194999
H4    H     H_    0.623393 0.887934 0.317005 0.165504
C11   C     C_R   0.518545 0.871315 0.503401 -0.055006
C12   C     C_R   0.476511 0.934313 0.614747 0.079614
C13   C     C_3   0.329509 0.921959 0.678194 -0.521707
C14   C     C_3   0.325862 0.063807 0.678315 0.144871
H5    H     H_    0.231475 0.876918 0.609418 0.224373
H6    H     H_    0.353234 0.880486 0.782599 0.184002
H7    H     H_    0.342564 0.102840 0.782914 0.096185
C15   C     C_R   0.362708 0.486470 0.054221 0.212423
N1    N     N_R   0.498950 0.499140 0.142680 -0.107076
C16   C     C_R   0.633726 0.524392 0.088468 -0.129327
H8    H     H_    0.742379 0.542555 0.155516 0.146995
C17   C     C_R   0.633781 0.524244 0.944840 -0.123203
H9    H     H_    0.742465 0.542050 0.904836 0.150685
N2    N     N_R   0.498950 0.499180 0.857030 -0.108110
C18   C     C_R   0.362459 0.486667 0.911767 0.186332
C19   C     C_3   0.254245 0.376706 0.895466 -0.448475
C20   C     C_3   0.254060 0.377469 0.048693 -0.500231
H10   H     H_    0.137339 0.399230 0.837074 0.218554
H11   H     H_    0.312086 0.293474 0.859910 0.221186
H12   H     H_    0.138086 0.403055 0.077813 0.204110
H13   H     H_    0.310271 0.293513 0.101940 0.226616
N3    N     N_R   0.190866 0.116174 0.587836 0.226397
O9    O     O_R   0.101892 0.198698 0.634619 -0.418799
O10   O     O_R   0.156951 0.080097 0.461482 -0.402602

loop_
_geom_bond_atom_site_label_1
_geom_bond_atom_site_label_2
_geom_bond_distance
_ccdc_geom_bond_type
O4    Zn2   1.979346 S    
C15   C20   1.486711 S    
C14   H7    1.108389 S    
C5    C6    1.328348 D    
C13   H5    1.112662 S    
C7    C8    1.391161 A    
Zn2   O8    1.971090 S    
C14   N3    1.466208 S    
C15   N1    1.361194 A    
C17   N2    1.368624 A    
C6    H2    1.085120 S    
C11   C12   1.388309 A    
C1    C8    1.415918 S    
C9    H3    1.083491 S    
C13   H6    1.111691 S    
Zn1   O7    1.979346 S    
C7    C14   1.502498 S    
C4    C6    1.401638 S    
C3    C11   1.413557 S    
C12   C13   1.494206 S    
N2    C18   1.366387 A    
O3    Zn1   1.971091 S    
O3    C2    1.281877 A    
C19   C20   1.515806 S    
O7    C4    1.283508 A    
Zn1   N2    2.017959 S    
O8    C4    1.280595 A    
O2    C1    1.285261 A    
C16   C17   1.420628 A    
Zn2   N1    2.018340 S    
C10   C11   1.400282 A    
C9    C10   1.385506 A    
O4    C2    1.282392 A    
C20   H12   1.111744 S    
N3    O10   1.302383 A    
C10   H4    1.083451 S    
C5    H1    1.087689 S    
C18   C19   1.491169 S    
N1    C16   1.369580 A    
C8    C9    1.403428 A    
Zn2   O6    1.999301 S    
C16   H8    1.080363 S    
C15   C18   1.408604 A    
C13   C14   1.517493 S    
Zn1   O5    1.992979 S    
C7    C12   1.364787 A    
O5    C3    1.284065 A    
N3    O9    1.300519 A    
C17   H9    1.081061 S    
C20   H13   1.112226 S    
C2    C5    1.402086 S    
O1    Zn1   1.999302 S    
C19   H11   1.105442 S    
O2    Zn2   1.992978 S    
C19   H10   1.108270 S    
O1    C1    1.286432 A    
O6    C3    1.286291 A    
