data_mof_unit_47589.cif
_audit_creation_date              2012-12-10T16:43:25-0500
_audit_creation_method            fapswitch 2.2
_symmetry_space_group_name_H-M    P1
_symmetry_Int_Tables_number       1
_space_group_crystal_system       triclinic
_cell_length_a                    10.838561
_cell_length_b                    8.669918
_cell_length_c                    7.537522
_cell_angle_alpha                 102.068973
_cell_angle_beta                  96.796749
_cell_angle_gamma                 94.504958
_cell_volume                      683.870993885

loop_
_atom_site_label
_atom_site_type_symbol
_atom_type_description
_atom_site_fract_x
_atom_site_fract_y
_atom_site_fract_z
_atom_type_partial_charge
C1    C     C_R   0.488792 0.200150 0.454866 0.850347
C2    C     C_R   0.086144 0.599774 0.663396 0.082255
C3    C     C_R   0.131653 0.529352 0.500848 -0.096707
C4    C     C_R   0.048808 0.457672 0.343666 -0.220683
C5    C     C_R   0.921640 0.449254 0.348241 -0.197780
C6    C     C_R   0.874502 0.499956 0.513453 -0.106581
C7    C     C_2   0.467693 0.032715 0.435966 -0.293167
C8    C     C_2   0.513532 0.968436 0.571150 -0.347088
C9    C     C_R   0.263916 0.511484 0.500126 0.744527
C10   C     C_R   0.503792 0.799970 0.546112 0.891880
C11   C     C_R   0.738280 0.498093 0.503315 0.828759
C12   C     C_R   0.164421 0.702009 0.812580 -0.142920
C13   C     C_R   0.123839 0.745199 0.982509 -0.140331
C14   C     C_R   0.006041 0.685681 0.006857 -0.148788
C15   C     C_R   0.924965 0.594424 0.857830 -0.107534
C16   C     C_R   0.959134 0.564249 0.678408 0.078122
Cu1   Cu    Cu3+1 0.513920 0.517380 0.684380 1.039953
Cu2   Cu    Cu3+1 0.486080 0.482620 0.315620 1.037693
H1    H     H_    0.082275 0.406219 0.216797 0.173107
H2    H     H_    0.256981 0.750474 0.798945 0.166595
H3    H     H_    0.185426 0.820310 0.096750 0.143039
H4    H     H_    0.976822 0.711041 0.141491 0.176291
H5    H     H_    0.839748 0.543157 0.891317 0.201129
H6    H     H_    0.859953 0.398037 0.222112 0.166722
H7    H     H_    0.410167 0.962702 0.314300 0.189399
H8    H     H_    0.563203 0.039868 0.699550 0.179180
H9    H     H_    0.415205 0.359303 0.949346 0.183601
N1    N     N_2   0.465100 0.456430 0.038520 -0.194921
N2    N     N_2   0.534900 0.543570 0.961480 0.081825
O1    O     O_R   0.509050 0.286130 0.619770 -0.616468
O2    O     O_R   0.485540 0.256780 0.308360 -0.582654
O3    O     O_R   0.331410 0.514680 0.655740 -0.609287
O4    O     O_R   0.307900 0.485330 0.344330 -0.597985
O5    O     O_R   0.514460 0.743220 0.691640 -0.526613
O6    O     O_R   0.490950 0.713870 0.380230 -0.504282
O7    O     O_R   0.692100 0.514670 0.655670 -0.577708
O8    O     O_R   0.668590 0.485320 0.344260 -0.538057
S1    S     S_3+6 0.614143 0.728444 0.067590 0.130879
O9    O     O_2   0.520955 0.847339 0.086041 -0.321638
O10   O     O_2   0.691417 0.736699 0.248172 -0.295562
O11   O     O_3   0.713491 0.783291 0.931549 -0.525623
H10   H     H_    0.744092 0.895522 0.988336 0.347075

loop_
_geom_bond_atom_site_label_1
_geom_bond_atom_site_label_2
_ccdc_geom_bond_type
N2    S1    S    
C9    O4    A    
Cu2   N1    S    
C10   O6    A    
C3    C9    S    
Cu1   O7    S    
C2    C16   A    
O11   H10   S    
C7    H7    S    
C2    C12   A    
C12   H2    S    
C15   H5    S    
C2    C3    A    
C13   H3    S    
C7    C8    D    
C10   O5    A    
C13   C14   A    
S1    O10   D    
Cu1   O1    S    
C14   H4    S    
C5    C6    A    
C5    H6    S    
C1    O1    A    
Cu2   O8    S    
Cu1   Cu2   S    
S1    O9    D    
Cu2   O4    S    
Cu1   O5    S    
C6    C16   A    
C3    C4    A    
Cu1   N2    S    
C1    O2    A    
C8    H8    S    
C12   C13   A    
S1    O11   S    
C8    C10   S    
Cu2   O6    S    
C6    C11   S    
C11   O8    A    
Cu1   O3    S    
C14   C15   A    
N1    N2    D    
Cu2   O2    S    
C9    O3    A    
C1    C7    S    
C4    H1    S    
C15   C16   A    
C4    C5    A    
H9    N1    S    
C11   O7    A    
