data_mof_unit_59056.cif
_audit_creation_date              2012-12-10T21:06:17-0500
_audit_creation_method            fapswitch 2.2
_symmetry_space_group_name_H-M    P1
_symmetry_Int_Tables_number       1
_space_group_crystal_system       triclinic
_cell_length_a                    15.053979
_cell_length_b                    15.841431
_cell_length_c                    16.762076
_cell_angle_alpha                 89.820731
_cell_angle_beta                  94.231457
_cell_angle_gamma                 89.645685
_cell_volume                      3986.36405835

loop_
_atom_site_label
_atom_site_type_symbol
_atom_type_description
_atom_site_fract_x
_atom_site_fract_y
_atom_site_fract_z
_atom_type_partial_charge
C1    C     C_R   0.500261 0.338907 0.500024 0.915318
C2    C     C_R   0.499742 0.661090 0.499923 0.912992
C3    C     C_R   0.501421 0.912986 0.494637 0.101776
C4    C     C_R   0.498675 0.086938 0.501002 0.102377
C5    C     C_R   0.419949 0.955800 0.486626 -0.251837
C6    C     C_R   0.580177 0.044132 0.508676 -0.251928
C7    C     C_1   0.499544 0.824069 0.496399 -0.062090
C8    C     C_1   0.500455 0.175879 0.500769 -0.062178
C9    C     C_1   0.500868 0.250655 0.500404 -0.183358
C10   C     C_1   0.499085 0.749318 0.498191 -0.179538
C11   C     C_R   0.958215 0.439015 0.545725 0.032569
C12   C     C_R   0.041647 0.559455 0.452063 0.031980
C13   C     C_R   0.905146 0.499636 0.501378 0.019374
C14   C     C_R   0.094786 0.499578 0.497244 0.017601
C15   C     C_R   0.947902 0.559236 0.455342 -0.239663
C16   C     C_R   0.052030 0.439815 0.543072 -0.239772
C17   C     C_1   0.807139 0.500035 0.500272 0.049032
C18   C     C_1   0.192815 0.499697 0.498996 0.049651
C19   C     C_R   0.511305 0.500439 0.654032 0.874734
C20   C     C_R   0.488672 0.503980 0.346070 0.876520
C21   C     C_R   0.517878 0.513383 0.739980 -0.046917
C22   C     C_R   0.482070 0.523637 0.261119 -0.043495
C23   C     C_R   0.441535 0.536369 0.777509 -0.231393
C24   C     C_R   0.559550 0.542624 0.223874 -0.230251
C25   C     C_R   0.447541 0.555372 0.857947 -0.179510
C26   C     C_R   0.554189 0.567017 0.144684 -0.180644
C27   C     C_R   0.530435 0.550957 0.902810 0.269399
C28   C     C_R   0.470924 0.570926 0.100358 0.270009
C29   C     C_R   0.607884 0.528818 0.865135 -0.000055
C30   C     C_R   0.392022 0.557373 0.138788 0.002433
C31   C     C_R   0.600848 0.509896 0.783619 -0.268381
C32   C     C_R   0.398513 0.532750 0.219166 -0.273247
C33   C     C_R   0.582731 0.956416 0.505180 0.011809
C34   C     C_R   0.417405 0.043508 0.490010 0.011510
H1    H     H_    0.615723 0.579692 0.117287 0.159280
H2    H     H_    0.386635 0.571510 0.885114 0.164332
H3    H     H_    0.660281 0.493428 0.754152 0.159446
H4    H     H_    0.338331 0.521682 0.249229 0.157690
H5    H     H_    0.641858 0.079315 0.516087 0.152764
H6    H     H_    0.358254 0.920631 0.479287 0.152822
N1    N     N_2   0.536589 0.557716 0.986918 -0.198764
N2    N     N_2   0.465375 0.576421 0.016055 -0.204942
N3    N     N_1   0.270550 0.500020 0.500020 -0.089109
N4    N     N_1   0.729450 0.499980 0.499980 -0.088922
O1    O     O_R   0.573650 0.378020 0.500000 -0.603861
O2    O     O_R   0.426350 0.621980 0.500000 -0.606264
O3    O     O_R   0.426310 0.378020 0.499960 -0.607065
O4    O     O_R   0.573690 0.621980 0.500040 -0.608308
O5    O     O_R   0.581880 0.499230 0.616150 -0.617080
O6    O     O_R   0.418120 0.500770 0.383850 -0.617742
O7    O     O_R   0.434550 0.499230 0.616110 -0.619507
O8    O     O_R   0.565450 0.500770 0.383890 -0.619581
Zn1   Zn    Zn3+2 0.598370 0.500000 0.500020 0.974343
Zn2   Zn    Zn3+2 0.401630 0.500000 0.499980 0.973346
H7    H     H_    0.624668 0.538854 0.255871 0.168349
H8    H     H_    0.376952 0.540568 0.744593 0.169636
C35   C     C_R   0.696299 0.523513 0.910467 0.130065
C36   C     C_R   0.749501 0.450685 0.905803 -0.161231
C37   C     C_R   0.832924 0.445753 0.948212 -0.131129
C38   C     C_R   0.863916 0.513327 0.995634 -0.112776
C39   C     C_R   0.811670 0.586081 0.000506 -0.149562
C40   C     C_R   0.728287 0.591371 0.958039 -0.144817
H9    H     H_    0.725869 0.397355 0.870221 0.117704
H10   H     H_    0.873403 0.389385 0.944534 0.127681
H11   H     H_    0.928340 0.509273 0.028661 0.116798
H12   H     H_    0.835858 0.638476 0.037091 0.128702
H13   H     H_    0.688972 0.648514 0.961849 0.128928
C41   C     C_R   0.302694 0.566396 0.095429 0.116155
C42   C     C_R   0.237269 0.504320 0.102687 -0.165334
C43   C     C_R   0.152719 0.513930 0.063124 -0.137469
C44   C     C_R   0.132585 0.585476 0.016151 -0.110428
C45   C     C_R   0.196908 0.647629 0.008765 -0.144671
C46   C     C_R   0.281502 0.638376 0.048282 -0.154053
H14   H     H_    0.251806 0.448213 0.138478 0.128538
H15   H     H_    0.102811 0.465831 0.068846 0.122795
H16   H     H_    0.067135 0.592833 0.985544 0.123527
H17   H     H_    0.181104 0.703218 0.972649 0.128655
H18   H     H_    0.330063 0.687823 0.042839 0.130500
C47   C     C_R   0.670298 0.912046 0.513258 0.122899
C48   C     C_R   0.731422 0.929090 0.578648 -0.163943
C49   C     C_R   0.813607 0.887090 0.586681 -0.135322
C50   C     C_R   0.835652 0.828062 0.529480 -0.110800
C51   C     C_R   0.775796 0.811310 0.463833 -0.130166
C52   C     C_R   0.693634 0.853332 0.455425 -0.131574
H19   H     H_    0.715067 0.974199 0.623816 0.125055
H20   H     H_    0.860137 0.900168 0.637405 0.126315
H21   H     H_    0.899166 0.795446 0.535959 0.117714
H22   H     H_    0.793149 0.765867 0.419364 0.124167
H23   H     H_    0.648421 0.840319 0.403716 0.126701
C53   C     C_R   0.329854 0.087823 0.481402 0.122215
C54   C     C_R   0.269627 0.071275 0.415249 -0.164070
C55   C     C_R   0.187466 0.113253 0.406601 -0.136633
C56   C     C_R   0.164553 0.171753 0.463950 -0.112952
C57   C     C_R   0.223496 0.187975 0.530371 -0.129630
C58   C     C_R   0.305643 0.145975 0.539386 -0.131168
H24   H     H_    0.286683 0.026575 0.369970 0.125886
H25   H     H_    0.141637 0.100581 0.355282 0.126343
H26   H     H_    0.101078 0.204370 0.456963 0.117513
H27   H     H_    0.205452 0.233002 0.574953 0.125502
H28   H     H_    0.350164 0.158573 0.591657 0.126891
H29   H     H_    0.092174 0.393758 0.577782 0.139350
H30   H     H_    0.907757 0.605124 0.420418 0.138314
C59   C     C_R   0.917387 0.373313 0.594384 0.107893
C60   C     C_R   0.936933 0.287554 0.582607 -0.159091
C61   C     C_R   0.897515 0.225293 0.627336 -0.134544
C62   C     C_R   0.838603 0.248071 0.684321 -0.115449
C63   C     C_R   0.819438 0.333172 0.697018 -0.126622
C64   C     C_R   0.858954 0.395663 0.652672 -0.134031
H31   H     H_    0.981759 0.268888 0.538118 0.118471
H32   H     H_    0.912380 0.159350 0.617580 0.128028
H33   H     H_    0.807895 0.199795 0.718694 0.119876
H34   H     H_    0.773892 0.350733 0.741172 0.117919
H35   H     H_    0.844055 0.461353 0.663869 0.125589
C65   C     C_R   0.082113 0.622490 0.400300 0.110865
C66   C     C_R   0.064549 0.709004 0.409564 -0.160586
C67   C     C_R   0.102191 0.768488 0.360494 -0.137885
C68   C     C_R   0.157001 0.742110 0.301460 -0.110768
C69   C     C_R   0.174131 0.656189 0.291255 -0.121823
C70   C     C_R   0.136853 0.596491 0.340331 -0.142530
H36   H     H_    0.022373 0.730374 0.455163 0.119049
H37   H     H_    0.088827 0.835062 0.368226 0.128084
H38   H     H_    0.185969 0.788224 0.263459 0.122708
H39   H     H_    0.216026 0.635878 0.245108 0.139270
H40   H     H_    0.150041 0.530075 0.331125 0.122703

loop_
_geom_bond_atom_site_label_1
_geom_bond_atom_site_label_2
_ccdc_geom_bond_type
C7    C10   T    
C61   H32   S    
C56   C57   A    
C27   C29   A    
C63   H34   S    
C14   C18   S    
C4    C8    S    
C65   C66   A    
C53   C54   A    
C23   H8    S    
C70   H40   S    
C2    O2    A    
C24   H7    S    
C21   C31   A    
C37   H10   S    
O6    Zn2   S    
C22   C32   A    
C40   H13   S    
C19   C21   S    
C24   C26   A    
C3    C7    S    
C60   H31   S    
C62   C63   A    
C3    C33   A    
C50   H21   S    
C67   C68   A    
N1    N2    D    
C28   N2    S    
C27   N1    S    
C69   C70   A    
C20   O6    A    
C45   H17   S    
C54   H24   S    
C39   H12   S    
C8    C9    T    
C63   C64   A    
C43   C44   A    
C32   H4    S    
C65   C70   A    
C45   C46   A    
C39   C40   A    
C51   H22   S    
O1    Zn1   S    
C37   C38   A    
C47   C52   A    
C42   C43   A    
N4    Zn1   S    
C60   C61   A    
C55   H25   S    
C49   C50   A    
C12   C65   S    
C62   H33   S    
O4    Zn1   S    
C4    C34   A    
C67   H37   S    
C35   C40   A    
C1    C9    S    
C4    C6    A    
C54   C55   A    
C58   H28   S    
C41   C42   A    
C2    O4    A    
C36   C37   A    
C31   H3    S    
C38   C39   A    
C64   H35   S    
C68   H38   S    
C34   C53   S    
C48   H19   S    
C11   C16   A    
C19   O5    A    
N3    Zn2   S    
C51   C52   A    
C12   C15   A    
C46   H18   S    
C5    C34   A    
O2    Zn2   S    
C42   H14   S    
C59   C64   A    
O3    Zn2   S    
C12   C14   A    
C38   H11   S    
C66   H36   S    
C13   C15   A    
C33   C47   S    
C14   C16   A    
C52   H23   S    
C20   C22   S    
C2    C10   S    
C59   C60   A    
O8    Zn1   S    
C36   H9    S    
C1    O3    A    
C49   H20   S    
C29   C35   S    
C48   C49   A    
C3    C5    A    
C53   C58   A    
C25   C27   A    
C61   C62   A    
C26   C28   A    
C6    C33   A    
C13   C17   S    
O7    Zn2   S    
C21   C23   A    
C41   C46   A    
C17   N4    T    
C44   C45   A    
C29   C31   A    
C68   C69   A    
C30   C32   A    
C11   C13   A    
C1    O1    A    
C35   C36   A    
C44   H16   S    
C57   H27   S    
O5    Zn1   S    
C28   C30   A    
C55   C56   A    
C22   C24   A    
C69   H39   S    
C23   C25   A    
C15   H30   S    
C57   C58   A    
C26   H1    S    
C25   H2    S    
C47   C48   A    
C19   O7    A    
C16   H29   S    
C20   O8    A    
C50   C51   A    
C5    H6    S    
C43   H15   S    
C6    H5    S    
C11   C59   S    
C18   N3    T    
C56   H26   S    
C30   C41   S    
C66   C67   A    
