data_mof_unit_57599.cif
_audit_creation_date              2012-12-10T17:18:58-0500
_audit_creation_method            fapswitch 2.2
_symmetry_space_group_name_H-M    P1
_symmetry_Int_Tables_number       1
_space_group_crystal_system       triclinic
_cell_length_a                    10.197618
_cell_length_b                    10.865515
_cell_length_c                    13.650646
_cell_angle_alpha                 91.969869
_cell_angle_beta                  99.375464
_cell_angle_gamma                 96.333916
_cell_volume                      1481.09560234

loop_
_atom_site_label
_atom_site_type_symbol
_atom_type_description
_atom_site_fract_x
_atom_site_fract_y
_atom_site_fract_z
_atom_type_partial_charge
C1    C     C_R   0.053941 0.732303 0.494213 0.955769
C2    C     C_R   0.946059 0.267697 0.505787 0.955768
C3    C     C_R   0.545244 0.666318 0.039781 -0.224661
C4    C     C_R   0.454757 0.333684 0.960218 -0.224661
C5    C     C_R   0.424822 0.713313 0.012437 -0.239908
C6    C     C_R   0.575181 0.286690 0.987562 -0.239907
C7    C     C_2   0.084375 0.864268 0.489412 -0.401614
C8    C     C_2   0.915626 0.135732 0.510590 -0.401614
C9    C     C_2   0.990890 0.935056 0.506612 -0.168500
C10   C     C_2   0.009113 0.064945 0.493393 -0.168499
C11   C     C_2   0.430384 0.511687 0.507658 -0.150130
C12   C     C_2   0.569616 0.488314 0.492341 -0.150129
C13   C     C_R   0.092103 0.511185 0.685377 0.878160
C14   C     C_R   0.907897 0.488815 0.314623 0.878161
C15   C     C_R   0.143212 0.530156 0.791291 -0.092648
C16   C     C_R   0.856788 0.469845 0.208708 -0.092648
C17   C     C_R   0.201370 0.691839 0.920584 -0.212893
C18   C     C_R   0.798634 0.308165 0.079413 -0.212892
C19   C     C_R   0.112220 0.635575 0.840103 -0.217808
C20   C     C_R   0.887782 0.364428 0.159896 -0.217808
C21   C     C_R   0.247794 0.464251 0.834675 -0.081925
C22   C     C_R   0.752207 0.535751 0.165325 -0.081925
C23   C     C_R   0.334723 0.517503 0.921577 0.044202
C24   C     C_R   0.665279 0.482500 0.078422 0.044203
C25   C     C_R   0.318171 0.639423 0.954863 0.165965
C26   C     C_R   0.681832 0.360580 0.045135 0.165964
C27   C     C_R   0.446537 0.462039 0.969636 0.057317
C28   C     C_R   0.553464 0.537963 0.030364 0.057318
H1    H     H_    0.418797 0.810630 0.029071 0.145401
H2    H     H_    0.581205 0.189373 0.970927 0.145400
H3    H     H_    0.969702 0.315344 0.192588 0.154642
H4    H     H_    0.030300 0.684658 0.807410 0.154642
H5    H     H_    0.185585 0.782237 0.949493 0.135238
H6    H     H_    0.814419 0.217767 0.050503 0.135238
H7    H     H_    0.630718 0.732244 0.068660 0.166820
H8    H     H_    0.369283 0.267759 0.931340 0.166821
H9    H     H_    0.102597 0.103010 0.471416 0.195289
H10   H     H_    0.897407 0.896991 0.528590 0.195288
H11   H     H_    0.821517 0.097091 0.531088 0.141725
H12   H     H_    0.178483 0.902909 0.468913 0.141726
H13   H     H_    0.579742 0.414021 0.439912 0.163384
H14   H     H_    0.420258 0.585981 0.560086 0.163385
H15   H     H_    0.664074 0.623863 0.587972 0.156201
H16   H     H_    0.335926 0.376136 0.412029 0.156201
N1    N     N_2   0.322180 0.446120 0.460900 -0.188279
N2    N     N_2   0.677820 0.553880 0.539100 -0.188279
O1    O     O_R   0.935190 0.693030 0.507870 -0.602649
O2    O     O_R   0.064810 0.306970 0.492130 -0.602650
O3    O     O_R   0.142080 0.658430 0.482770 -0.617725
O4    O     O_R   0.857920 0.341570 0.517230 -0.617724
O5    O     O_R   0.969700 0.527180 0.651960 -0.618687
O6    O     O_R   0.030300 0.472820 0.348040 -0.618687
O7    O     O_R   0.176600 0.492580 0.626860 -0.595201
O8    O     O_R   0.823400 0.507420 0.373140 -0.595202
Zn1   Zn    Zn3+2 0.861850 0.523100 0.516760 0.937309
Zn2   Zn    Zn3+2 0.138150 0.476900 0.483240 0.937309
C29   C     C_R   0.723211 0.645877 0.222831 0.114777
C30   C     C_R   0.814768 0.754040 0.237057 -0.195507
C31   C     C_R   0.787689 0.857510 0.290633 -0.114891
C32   C     C_R   0.671394 0.852571 0.332921 -0.123470
C33   C     C_R   0.581184 0.744396 0.320929 -0.138389
C34   C     C_R   0.606626 0.641295 0.265995 -0.058284
H17   H     H_    0.905681 0.758625 0.205256 0.123559
H18   H     H_    0.857153 0.941473 0.299595 0.144728
H19   H     H_    0.651373 0.932522 0.375136 0.118262
H20   H     H_    0.491481 0.740440 0.354116 0.127645
H21   H     H_    0.536145 0.557879 0.257189 0.116775
C35   C     C_R   0.276789 0.354125 0.777170 0.114779
C36   C     C_R   0.393375 0.358708 0.734008 -0.058285
C37   C     C_R   0.418817 0.255606 0.679075 -0.138392
C38   C     C_R   0.328608 0.147432 0.667084 -0.123473
C39   C     C_R   0.212313 0.142494 0.709370 -0.114895
C40   C     C_R   0.185233 0.245964 0.762945 -0.195507
H22   H     H_    0.463854 0.442123 0.742813 0.116776
H23   H     H_    0.508521 0.259561 0.645890 0.127647
H24   H     H_    0.348629 0.067481 0.624871 0.118264
H25   H     H_    0.142850 0.058532 0.700408 0.144730
H26   H     H_    0.094321 0.241380 0.794744 0.123559

loop_
_geom_bond_atom_site_label_1
_geom_bond_atom_site_label_2
_ccdc_geom_bond_type
C4    H8    S    
C18   C26   A    
C22   C29   S    
C29   C34   A    
C15   C19   A    
C31   H18   S    
C12   H13   S    
C34   H21   S    
C10   H9    S    
C3    C28   A    
C24   C26   A    
C38   H24   S    
C11   H14   S    
O2    Zn2   S    
C2    O4    A    
C13   O5    A    
C33   H20   S    
C14   O6    A    
N1    Zn2   S    
C35   C36   A    
N2    Zn1   S    
C7    H12   S    
C37   C38   A    
C8    H11   S    
C23   C27   A    
C9    C10   S    
C5    H1    S    
C16   C20   A    
C31   C32   A    
C36   C37   A    
C17   H5    S    
C19   H4    S    
C13   O7    A    
C12   N2    D    
C1    O1    A    
O5    Zn1   S    
C2    O2    A    
C30   C31   A    
C32   C33   A    
C39   H25   S    
C3    H7    S    
C40   H26   S    
C36   H22   S    
C18   H6    S    
C5    C25   A    
C4    C6    A    
C14   O8    A    
C32   H19   S    
C21   C23   A    
C21   C35   S    
C14   C16   S    
C11   N1    D    
C27   C28   A    
C4    C27   A    
H16   N1    S    
O1    Zn1   S    
O7    Zn2   S    
C30   H17   S    
C7    C9    D    
O8    Zn1   S    
C16   C22   A    
C6    H2    S    
C1    C7    S    
C2    C8    S    
C24   C28   A    
C39   C40   A    
C3    C5    A    
C18   C20   A    
C11   C12   S    
O3    Zn2   S    
O4    Zn1   S    
C17   C25   A    
C13   C15   S    
C35   C40   A    
C38   C39   A    
C29   C30   A    
C6    C26   A    
C9    H10   S    
C17   C19   A    
C22   C24   A    
C23   C25   A    
C33   C34   A    
H15   N2    S    
C15   C21   A    
C8    C10   D    
C37   H23   S    
C1    O3    A    
O6    Zn2   S    
C20   H3    S    
