data_mof_unit_12737.cif
_audit_creation_date              2012-12-11T15:48:51-0500
_audit_creation_method            fapswitch 2.2
_symmetry_space_group_name_H-M    P1
_symmetry_Int_Tables_number       1
_space_group_crystal_system       triclinic
_cell_length_a                    10.947189
_cell_length_b                    10.96775
_cell_length_c                    18.824272
_cell_angle_alpha                 90.419298
_cell_angle_beta                  90.035899
_cell_angle_gamma                 60.334988
_cell_volume                      1963.86161957

loop_
_atom_site_label
_atom_site_type_symbol
_atom_type_description
_atom_site_fract_x
_atom_site_fract_y
_atom_site_fract_z
_atom_type_partial_charge
C1    C     C_R   0.239515 0.645557 0.610374 0.567334
C2    C     C_R   0.577228 0.143795 0.710459 -0.187025
C3    C     C_R   0.573759 0.150046 0.783517 -0.185220
C4    C     C_R   0.654557 0.623602 0.600201 0.600012
C5    C     C_3   0.932839 0.100821 0.786371 0.299844
C6    C     C_3   0.927853 0.108382 0.705814 0.301969
C7    C     C_R   0.673240 0.166853 0.672706 -0.024140
C8    C     C_R   0.178806 0.669173 0.834665 0.002426
C9    C     C_R   0.154341 0.576160 0.794107 -0.001612
C10   C     C_R   0.163199 0.573391 0.720406 0.069716
C11   C     C_R   0.210260 0.765344 0.725336 -0.170374
C12   C     C_3   0.654578 0.561112 0.799453 -0.060711
C13   C     C_R   0.208887 0.762964 0.799084 -0.149487
C14   C     C_3   0.230711 0.420125 0.797853 -0.282042
C15   C     C_3   0.237679 0.417695 0.717455 -0.245821
C16   C     C_R   0.629921 0.226261 0.602062 0.549732
C17   C     C_R   0.193856 0.666057 0.684597 0.026490
C18   C     C_R   0.652192 0.658483 0.165258 0.015388
C19   C     C_R   0.749516 0.538022 0.201891 0.100513
C20   C     C_R   0.743180 0.529520 0.274305 0.040908
C21   C     C_R   0.528074 0.749984 0.277267 -0.154281
C22   C     C_R   0.533345 0.758570 0.202723 -0.161143
C23   C     C_3   0.699209 0.673258 0.811926 -0.007574
C24   C     C_3   0.906989 0.467521 0.204306 -0.242395
C25   C     C_3   0.898403 0.456827 0.283635 -0.279421
C26   C     C_R   0.640912 0.640042 0.313981 0.008003
C27   C     C_R   0.654784 0.148813 0.177604 0.034938
C28   C     C_R   0.225133 0.647469 0.400207 0.551475
C29   C     C_R   0.581920 0.101021 0.219251 -0.018919
C30   C     C_R   0.583283 0.107802 0.292137 0.003821
C31   C     C_R   0.749029 0.192142 0.284767 -0.140925
C32   C     C_R   0.744780 0.187950 0.211010 0.313003
C33   C     C_3   0.430150 0.142643 0.216907 -0.265564
C34   C     C_3   0.670002 0.649624 0.675630 0.064349
C35   C     C_3   0.432101 0.145315 0.297161 -0.253939
C36   C     C_R   0.658342 0.164026 0.325804 -0.036920
C37   C     C_R   0.165853 0.667546 0.179193 0.021147
C38   C     C_R   0.192869 0.763131 0.216143 0.017798
C39   C     C_R   0.201878 0.758608 0.288177 0.034069
C40   C     C_R   0.638087 0.618430 0.390076 0.548155
C41   C     C_R   0.184207 0.548773 0.289538 -0.165155
C42   C     C_R   0.177630 0.551037 0.215348 -0.173807
C43   C     C_3   0.117405 0.921212 0.217839 -0.238709
C44   C     C_3   0.127896 0.913839 0.297688 -0.276246
C45   C     C_3   0.825346 0.602905 0.692349 0.165271
C46   C     C_R   0.187005 0.659098 0.326568 0.023030
C47   C     C_R   0.701952 0.100548 0.895453 0.544364
C48   C     C_R   0.724113 0.688284 0.887979 0.551763
C49   C     C_R   0.118642 0.705973 0.905883 0.535511
C50   C     C_R   0.674912 0.106943 0.104057 0.579294
C51   C     C_R   0.695103 0.688638 0.096932 0.546237
C52   C     C_R   0.618106 0.227965 0.395379 0.555533
C53   C     C_R   0.095807 0.708925 0.111646 0.538236
C54   C     C_3   0.586875 0.816094 0.780109 -0.166901
C55   C     C_3   0.578186 0.805542 0.698891 0.232564
C56   C     C_3   0.624138 0.558724 0.719446 -0.232029
C57   C     C_3   0.839360 0.627618 0.771381 -0.231925
C58   C     C_R   0.681464 0.154497 0.822811 -0.032476
C59   C     C_R   0.777174 0.178918 0.785334 -0.015512
C60   C     C_R   0.771258 0.187977 0.711292 -0.000693
Cr1   Cr    Cr6+3 0.392960 0.397920 0.502240 1.037495
Cr2   Cr    Cr6+3 0.398340 0.708480 0.501250 1.077214
Cr3   Cr    Cr6+3 0.708670 0.393570 0.496460 1.062484
Cr4   Cr    Cr6+3 0.937650 0.938540 0.007610 1.081563
Cr5   Cr    Cr6+3 0.625330 0.937370 0.994520 1.020751
Cr6   Cr    Cr6+3 0.937940 0.625230 0.001190 1.032406
F1    F     F_    0.986440 0.179417 0.817195 -0.598771
F2    F     F_    0.979495 0.191315 0.679034 -0.587677
F3    F     F_    0.438768 0.860688 0.679766 -0.645459
F4    F     F_    0.825778 0.224968 0.172401 -0.662780
F5    F     F_    0.871859 0.676464 0.651256 -0.666802
H1    H     H_    0.617108 0.896220 0.792302 0.099671
H2    H     H_    0.482360 0.850688 0.804895 0.206148
H3    H     H_    0.223775 0.840295 0.828102 0.186081
H4    H     H_    0.164479 0.378184 0.819292 0.183980
H5    H     H_    0.334010 0.380161 0.824301 0.139093
H6    H     H_    0.345038 0.375890 0.696116 0.162550
H7    H     H_    0.173428 0.376819 0.691927 0.192754
H8    H     H_    0.439412 0.830861 0.306083 0.128066
H9    H     H_    0.450420 0.846588 0.175208 0.120570
H10   H     H_    0.943669 0.541269 0.189295 0.151417
H11   H     H_    0.959573 0.364214 0.176557 0.202404
H12   H     H_    0.681437 0.448998 0.700248 0.136457
H13   H     H_    0.942755 0.347139 0.302151 0.151483
H14   H     H_    0.933322 0.521451 0.313910 0.137079
H15   H     H_    0.812962 0.230689 0.309065 0.153490
H16   H     H_    0.411432 0.060004 0.194645 0.142364
H17   H     H_    0.365193 0.247478 0.192918 0.137030
H18   H     H_    0.362636 0.250976 0.319315 0.163470
H19   H     H_    0.419291 0.060503 0.321656 0.131955
H20   H     H_    0.182252 0.464615 0.317887 0.121001
H21   H     H_    0.169327 0.469368 0.187181 0.115574
H22   H     H_    0.007018 0.969399 0.199793 0.211258
H23   H     H_    0.924982 0.528455 0.793547 0.150096
H24   H     H_    0.618044 0.869582 0.672684 0.173804
H25   H     H_    0.180185 0.964397 0.193295 0.141309
H26   H     H_    0.196566 0.952740 0.319606 0.137654
H27   H     H_    0.024588 0.954886 0.324854 0.140112
H28   H     H_    0.869468 0.710286 0.777811 0.158524
H29   H     H_    0.743300 0.456421 0.814596 0.197522
H30   H     H_    0.510493 0.596577 0.710467 0.182582
H31   H     H_    0.558653 0.575837 0.895520 0.242946
H32   H     H_    0.504227 0.512388 0.829846 0.233232
H33   H     H_    0.893378 0.489096 0.680322 0.209408
H34   H     H_    0.496514 0.131153 0.683621 0.174692
H35   H     H_    0.491918 0.137063 0.808524 0.165762
H36   H     H_    0.974400 0.994636 0.808486 0.090063
H37   H     H_    0.968619 0.005675 0.678124 0.086342
H38   H     H_    0.231158 0.841638 0.700592 0.239483
N1    N     N_3   0.530706 0.589736 0.841860 -0.636405
O1    O     O_R   0.507380 0.255700 0.581440 -0.527067
O2    O     O_R   0.837170 0.593410 0.915250 -0.507268
O3    O     O_R   0.065200 0.635530 0.931570 -0.501775
O4    O     O_R   0.280320 0.527350 0.578930 -0.497287
O5    O     O_R   0.068260 0.828890 0.091840 -0.519463
O6    O     O_R   0.798870 0.057410 0.079340 -0.448847
O7    O     O_R   0.584930 0.080350 0.076780 -0.530846
O8    O     O_R   0.626960 0.809650 0.067060 -0.503409
O9    O     O_R   0.816040 0.596610 0.076510 -0.512621
O10   O     O_R   0.045610 0.638500 0.081060 -0.516397
O11   O     O_3   0.833640 0.833710 0.001100 -0.272823
O12   O     O_R   0.524480 0.695810 0.424040 -0.510312
O13   O     O_R   0.260510 0.739590 0.584590 -0.490977
O14   O     O_R   0.532300 0.695080 0.573820 -0.444342
O15   O     O_R   0.744840 0.503500 0.576370 -0.499027
O16   O     O_R   0.699120 0.276560 0.571960 -0.476843
O17   O     O_R   0.498940 0.256500 0.419860 -0.517520
O18   O     O_R   0.272500 0.528080 0.429150 -0.506132
O19   O     O_R   0.252060 0.740380 0.423010 -0.517522
O20   O     O_R   0.736390 0.504290 0.414790 -0.517168
O21   O     O_R   0.691300 0.277290 0.422170 -0.515027
O22   O     O_3   0.499990 0.499990 0.499980 -0.283468
O23   O     O_R   0.089400 0.825690 0.930570 -0.516382
O24   O     O_R   0.818460 0.054440 0.929850 -0.478958
O25   O     O_R   0.606060 0.077150 0.915510 -0.534318
O26   O     O_R   0.646550 0.806680 0.917570 -0.507574

loop_
_geom_bond_atom_site_label_1
_geom_bond_atom_site_label_2
_ccdc_geom_bond_type
C49   O3    A    
C21   C26   A    
C34   C56   S    
C8    C13   A    
Cr4   O6    S    
Cr6   O3    S    
C11   H38   S    
C50   O7    A    
C41   C42   A    
C2    C7    A    
C5    F1    S    
C12   N1    S    
C53   O10   A    
C15   H6    S    
C12   C23   S    
C45   C57   S    
C37   C38   A    
C4    O15   A    
C23   C54   S    
H32   N1    S    
C33   H17   S    
C56   H30   S    
C28   O19   A    
C10   C15   S    
C31   C36   A    
C5    C6    S    
C15   H7    S    
C45   F5    S    
C20   C25   S    
C10   C17   A    
Cr4   O11   S    
C57   H28   S    
C29   C33   S    
C51   O8    A    
C27   C29   A    
C4    O14   A    
C18   C19   A    
Cr3   O20   S    
C37   C42   A    
C24   H11   S    
C49   O23   A    
Cr1   O22   S    
C33   C35   S    
Cr4   O23   S    
C44   H27   S    
C19   C20   A    
C8    C9    A    
C25   H13   S    
C51   O9    A    
C41   C46   A    
Cr5   O11   S    
C9    C10   A    
C42   H21   S    
C36   C52   S    
C27   C50   S    
C37   C53   S    
C6    F2    S    
C34   C55   S    
C31   H15   S    
Cr6   O10   S    
C21   C22   A    
Cr2   O19   S    
Cr2   O14   S    
Cr2   O13   S    
C52   O17   A    
C18   C51   S    
C4    C34   S    
C3    H35   S    
Cr4   O24   S    
C5    C59   S    
Cr5   O26   S    
C6    C60   S    
C24   C25   S    
C55   H24   S    
C9    C14   S    
C32   F4    S    
C58   C59   A    
C14   H5    S    
C24   H10   S    
C1    O13   A    
C29   C30   A    
C45   H33   S    
Cr2   O22   S    
C54   H2    S    
C44   H26   S    
C31   C32   A    
Cr5   O8    S    
C28   C46   S    
C21   H8    S    
C25   H14   S    
C43   H25   S    
Cr6   O11   S    
C47   O25   A    
Cr1   O17   S    
C34   C45   S    
C12   C56   S    
Cr3   O22   S    
Cr5   O25   S    
C39   C46   A    
C30   C35   S    
C7    C16   S    
C48   O2    A    
Cr3   O21   S    
C57   H23   S    
C43   C44   S    
H31   N1    S    
C1    O4    A    
Cr1   O1    S    
C35   H18   S    
C7    C60   A    
Cr2   O12   S    
C56   H12   S    
C5    H36   S    
C23   C57   S    
C40   O20   A    
C54   C55   S    
C11   C17   A    
Cr5   O7    S    
C23   C48   S    
C41   H20   S    
C27   C32   A    
C18   C22   A    
C52   O21   A    
C48   O26   A    
C39   C44   S    
C40   O12   A    
C2    H34   S    
C1    C17   S    
C30   C36   A    
Cr6   O9    S    
C14   H4    S    
C55   F3    S    
C2    C3    A    
C33   H16   S    
C22   H9    S    
C38   C43   S    
C47   O24   A    
C47   C58   S    
C11   C13   A    
C26   C40   S    
C38   C39   A    
C20   C26   A    
C43   H22   S    
C19   C24   S    
Cr1   O18   S    
C50   O6    A    
C35   H19   S    
C12   H29   S    
Cr3   O16   S    
C3    C58   A    
C28   O18   A    
C59   C60   A    
C54   H1    S    
C13   H3    S    
Cr3   O15   S    
Cr1   O4    S    
Cr4   O5    S    
C6    H37   S    
C14   C15   S    
Cr6   O2    S    
C16   O16   A    
C8    C49   S    
C53   O5    A    
C16   O1    A    
