data_mof_unit_15576.cif
_audit_creation_date              2012-12-11T15:24:32-0500
_audit_creation_method            fapswitch 2.2
_symmetry_space_group_name_H-M    P1
_symmetry_Int_Tables_number       1
_space_group_crystal_system       triclinic
_cell_length_a                    23.069462
_cell_length_b                    6.977124
_cell_length_c                    20.665863
_cell_angle_alpha                 89.989012
_cell_angle_beta                  93.183723
_cell_angle_gamma                 90.000638
_cell_volume                      3321.21224391

loop_
_atom_site_label
_atom_site_type_symbol
_atom_type_description
_atom_site_fract_x
_atom_site_fract_y
_atom_site_fract_z
_atom_type_partial_charge
O1    O     O_R   0.188030 0.379840 0.189340 -0.538681
O2    O     O_R   0.811970 0.620160 0.810660 -0.538685
O3    O     O_R   0.311970 0.879840 0.310660 -0.538614
O4    O     O_R   0.688030 0.120160 0.689340 -0.538592
O5    O     O_R   0.307090 0.708420 0.185790 -0.526907
O6    O     O_R   0.692910 0.291580 0.814210 -0.526894
O7    O     O_R   0.192910 0.208420 0.314210 -0.526901
O8    O     O_R   0.807090 0.791580 0.685790 -0.526881
C1    C     C_R   0.326699 0.541413 0.170850 0.733865
C2    C     C_R   0.673302 0.458588 0.829152 0.733936
C3    C     C_R   0.173302 0.041391 0.329150 0.733548
C4    C     C_R   0.826697 0.958608 0.670849 0.733449
O9    O     O_R   0.188180 0.709480 0.181650 -0.540808
O10   O     O_R   0.811820 0.290520 0.818350 -0.540811
O11   O     O_R   0.311820 0.209480 0.318350 -0.540768
O12   O     O_R   0.688180 0.790520 0.681650 -0.540763
O13   O     O_R   0.192210 0.880960 0.306500 -0.540911
O14   O     O_R   0.807790 0.119040 0.693500 -0.540904
O15   O     O_R   0.307790 0.380960 0.193500 -0.541017
O16   O     O_R   0.692210 0.619040 0.806500 -0.541049
C5    C     C_R   0.167979 0.540775 0.165864 0.711643
C6    C     C_R   0.832021 0.459225 0.834136 0.711624
C7    C     C_R   0.332028 0.040756 0.334128 0.711639
C8    C     C_R   0.667972 0.959244 0.665870 0.711581
O17   O     O_3   0.251460 0.546730 0.290970 -0.370280
O18   O     O_3   0.748540 0.453270 0.709030 -0.370246
O19   O     O_3   0.248540 0.046730 0.209030 -0.370400
O20   O     O_3   0.751460 0.953270 0.790970 -0.370414
V1    V     V_3+5 0.249730 0.821120 0.242400 1.510737
V2    V     V_3+5 0.750270 0.178880 0.757600 1.510772
V3    V     V_3+5 0.250270 0.321120 0.257600 1.510724
V4    V     V_3+5 0.749730 0.678880 0.742400 1.510786
C9    C     C_R   0.562323 0.007827 0.636577 -0.107651
C10   C     C_R   0.437689 0.992625 0.363424 -0.107645
C11   C     C_R   0.937768 0.505602 0.863349 -0.107723
C12   C     C_R   0.062232 0.494398 0.136651 -0.107721
C13   C     C_R   0.618449 0.969292 0.616874 -0.145774
C14   C     C_R   0.381541 0.030712 0.383138 -0.145782
C15   C     C_R   0.881540 0.469231 0.883136 -0.145712
C16   C     C_R   0.118460 0.530769 0.116864 -0.145717
C17   C     C_R   0.627688 0.942183 0.550907 -0.107980
C18   C     C_R   0.372257 0.057314 0.449119 -0.107864
C19   C     C_R   0.872181 0.444378 0.949176 -0.107866
C20   C     C_R   0.127819 0.555622 0.050824 -0.107869
C21   C     C_R   0.581678 0.976271 0.503131 0.022942
C22   C     C_R   0.418292 0.023534 0.496900 0.022966
C23   C     C_R   0.918255 0.478352 0.996885 0.022982
C24   C     C_R   0.081745 0.521647 0.003115 0.022981
C25   C     C_R   0.523827 0.993577 0.523493 0.044429
C26   C     C_R   0.476154 0.006498 0.476533 0.044408
C27   C     C_R   0.976163 0.493545 0.976518 0.044310
C28   C     C_R   0.023837 0.506454 0.023482 0.044311
C29   C     C_R   0.513697 0.997695 0.590888 0.021009
C30   C     C_R   0.486303 0.002580 0.409135 0.021044
C31   C     C_R   0.986349 0.495635 0.909115 0.021132
C32   C     C_R   0.013650 0.504364 0.090885 0.021133
C33   C     C_R   0.591510 0.999224 0.436203 -0.115336
C34   C     C_R   0.408487 0.000627 0.563846 -0.115366
C35   C     C_R   0.908447 0.503167 0.063744 -0.115269
C36   C     C_R   0.091553 0.496832 0.936256 -0.115268
C37   C     C_R   0.544459 0.013361 0.389916 -0.114998
C38   C     C_R   0.455554 0.986868 0.610130 -0.114985
C39   C     C_R   0.955504 0.516941 0.110037 -0.114911
C40   C     C_R   0.044496 0.483058 0.889963 -0.114910
C41   C     C_3   0.043927 0.099831 0.528466 0.692247
C42   C     C_3   0.956075 0.900167 0.471536 0.692211
C43   C     C_3   0.456094 0.599963 0.971556 0.692154
C44   C     C_3   0.543917 0.400060 0.028458 0.692175
C45   C     C_3   0.021021 0.906631 0.552906 -0.241757
C46   C     C_3   0.978980 0.093368 0.447096 -0.241768
C47   C     C_3   0.478965 0.406767 0.947102 -0.241799
C48   C     C_3   0.521045 0.593256 0.052912 -0.241783
C49   C     C_1   0.872231 0.964429 0.625320 -0.111908
C50   C     C_1   0.127769 0.035570 0.374680 -0.111779
C51   C     C_1   0.627767 0.464380 0.874680 -0.111307
C52   C     C_1   0.372238 0.535626 0.125326 -0.111386
C53   C     C_3   0.980773 0.171936 0.517164 -0.231104
C54   C     C_3   0.019228 0.828063 0.482837 -0.231087
C55   C     C_3   0.519259 0.671948 0.982849 -0.231049
C56   C     C_3   0.480751 0.328076 0.017165 -0.231071
C57   C     C_3   0.957792 0.978734 0.541670 -0.100491
C58   C     C_3   0.042209 0.021264 0.458331 -0.100498
C59   C     C_3   0.542206 0.478749 0.958329 -0.100511
C60   C     C_3   0.457804 0.521274 0.041685 -0.100505
C61   C     C_1   0.910668 0.967840 0.587537 0.108120
C62   C     C_1   0.089333 0.032159 0.412464 0.108155
C63   C     C_1   0.589328 0.467815 0.912461 0.108239
C64   C     C_1   0.410680 0.532199 0.087549 0.108225
C65   C     C_1   0.556587 0.066795 0.703367 0.299623
N1    N     N_1   0.552632 0.114477 0.756601 -0.321741
C66   C     C_1   0.443452 0.934205 0.296583 0.299399
N2    N     N_1   0.447424 0.886965 0.243308 -0.321517
C67   C     C_1   0.943647 0.562288 0.796349 0.298966
N3    N     N_1   0.947705 0.608147 0.742943 -0.320605
C68   C     C_1   0.056353 0.437711 0.203651 0.298959
N4    N     N_1   0.052295 0.391851 0.257057 -0.320621
C69   C     C_1   0.684225 0.871612 0.534345 0.298820
N5    N     N_1   0.729376 0.814504 0.521833 -0.283480
C70   C     C_1   0.315595 0.126799 0.465678 0.298641
N6    N     N_1   0.270334 0.182982 0.478172 -0.283562
C71   C     C_1   0.815421 0.376163 0.965892 0.298443
N7    N     N_1   0.770087 0.320943 0.978525 -0.283521
C72   C     C_1   0.184579 0.623837 0.034107 0.298452
N8    N     N_1   0.229913 0.679057 0.021475 -0.283507
C73   C     C_1   0.649622 0.029360 0.414068 0.352338
N9    N     N_1   0.695589 0.054360 0.395877 -0.242905
C74   C     C_1   0.350404 0.970249 0.586028 0.352336
N10   N     N_1   0.304463 0.945049 0.604267 -0.242837
C75   C     C_1   0.850401 0.535551 0.085756 0.352424
N11   N     N_1   0.804491 0.562355 0.103850 -0.243175
C76   C     C_1   0.149598 0.464448 0.914243 0.352423
N12   N     N_1   0.195509 0.437644 0.896150 -0.243181
C77   C     C_1   0.557221 0.061000 0.323606 0.349458
N13   N     N_1   0.567885 0.100020 0.271126 -0.242901
C78   C     C_1   0.442836 0.939455 0.676472 0.349428
N14   N     N_1   0.432210 0.900609 0.728978 -0.242927
C79   C     C_1   0.942798 0.565900 0.176250 0.349488
N15   N     N_1   0.932177 0.605936 0.228654 -0.243170
C80   C     C_1   0.057202 0.434098 0.823750 0.349488
N16   N     N_1   0.067822 0.394061 0.771346 -0.243172
C81   C     C_1   0.044643 0.804778 0.610612 0.482825
N17   N     N_1   0.063303 0.724398 0.656096 -0.242203
C82   C     C_1   0.955359 0.195220 0.389390 0.482809
N18   N     N_1   0.936698 0.275601 0.343905 -0.242201
C83   C     C_1   0.455303 0.305106 0.889398 0.482882
N19   N     N_1   0.436602 0.224884 0.843912 -0.241877
C84   C     C_1   0.544705 0.694923 0.110617 0.482850
N20   N     N_1   0.563402 0.775151 0.156103 -0.241921
F1    F     F_    0.089005 0.204099 0.557981 -0.625579
F2    F     F_    0.910997 0.795899 0.442020 -0.625598
F3    F     F_    0.411029 0.704343 0.942048 -0.625661
F4    F     F_    0.588981 0.295681 0.057966 -0.625647
C85   C     C_1   0.042108 0.643811 0.461482 0.433291
N21   N     N_1   0.060788 0.500194 0.444043 -0.307985
C86   C     C_1   0.957894 0.356187 0.538519 0.433295
N22   N     N_1   0.939214 0.499806 0.555958 -0.307965
C87   C     C_1   0.457862 0.143796 0.038512 0.433143
N23   N     N_1   0.439179 0.000152 0.055944 -0.308073
C88   C     C_1   0.542149 0.856227 0.961502 0.433076
N24   N     N_1   0.560832 0.999871 0.944069 -0.308127

loop_
_geom_bond_atom_site_label_1
_geom_bond_atom_site_label_2
_ccdc_geom_bond_type
C34   C38   A    
C59   C63   S    
O18   V4    S    
C67   N3    T    
O19   V1    S    
O13   V1    S    
C55   C88   S    
C68   N4    T    
C56   C60   S    
O15   V3    S    
C69   N5    T    
C86   N22   T    
C53   C57   S    
O1    C5    A    
C21   C33   A    
C71   N7    T    
C40   C80   S    
C56   C87   S    
O9    V1    S    
C14   C18   A    
C48   C55   S    
C11   C15   A    
C39   C79   S    
C25   C29   A    
C43   C47   S    
C78   N14   T    
O1    V3    S    
O2    V4    S    
C34   C74   S    
C18   C22   A    
O3    V1    S    
C10   C66   S    
C12   C16   A    
C24   C28   A    
O3    C7    A    
C46   C82   S    
C1    O15   A    
C76   N12   T    
C2    O16   A    
O2    C6    A    
C74   N10   T    
O14   V2    S    
C1    C52   S    
C45   C81   S    
C52   C64   T    
O5    V1    S    
C44   C48   S    
O11   C7    A    
C83   N19   T    
C87   N23   T    
C43   C60   S    
O12   C8    A    
C4    C49   S    
C22   C34   A    
C46   C53   S    
O17   V1    S    
C45   C54   S    
O10   V2    S    
O20   V4    S    
C47   C56   S    
C20   C72   S    
C24   C36   A    
C47   C59   S    
C11   C67   S    
C9    C29   A    
C42   C54   S    
C88   N24   T    
O7    V3    S    
C33   C73   S    
C48   C84   S    
O19   V3    S    
C27   C28   A    
O8    V4    S    
C82   N18   T    
C41   C53   S    
C75   N11   T    
C66   N2    T    
C15   C19   A    
C58   C62   S    
C11   C31   A    
C9    C13   A    
C44   F4    S    
O7    C3    A    
C19   C71   S    
O5    C1    A    
C12   C32   A    
C9    C65   S    
C2    C51   S    
C54   C58   S    
C41   F1    S    
C70   N6    T    
C21   C25   A    
O8    C4    A    
C31   C40   A    
C8    C13   S    
C32   C39   A    
O9    C5    A    
C26   C30   A    
C50   C62   T    
C33   C37   A    
C49   C61   T    
C81   N17   T    
C48   C60   S    
C51   C63   T    
O6    V2    S    
C10   C30   A    
C37   C77   S    
C85   N21   T    
C17   C69   S    
C44   C56   S    
C77   N13   T    
O16   V4    S    
C3    O13   A    
C10   C14   A    
C44   C59   S    
O17   V3    S    
C43   F3    S    
C60   C64   S    
C3    C50   S    
O6    C2    A    
C23   C27   A    
C80   N16   T    
O11   V3    S    
C84   N20   T    
C30   C37   A    
O12   V4    S    
C7    C14   S    
C73   N9    T    
C22   C26   A    
C35   C39   A    
C36   C40   A    
O10   C6    A    
O20   V2    S    
C38   C78   S    
C36   C76   S    
C79   N15   T    
C42   C57   S    
C55   C59   S    
C12   C68   S    
C41   C58   S    
C42   C46   S    
C5    C16   S    
O4    C8    A    
C41   C45   S    
C6    C15   S    
C35   C75   S    
C27   C31   A    
C13   C17   A    
C46   C58   S    
C54   C85   S    
C57   C61   S    
C45   C57   S    
C23   C35   A    
C28   C32   A    
C16   C20   A    
C29   C38   A    
C25   C26   A    
C4    O14   A    
C72   N8    T    
C17   C21   A    
C47   C83   S    
C53   C86   S    
C65   N1    T    
C18   C70   S    
C19   C23   A    
C43   C55   S    
O4    V2    S    
C20   C24   A    
C42   F2    S    
O18   V2    S    
