data_mof_unit_65973.cif
_audit_creation_date              2012-10-26T18:58:54-0400
_audit_creation_method            fapswitch 2.2
_symmetry_space_group_name_H-M    P1
_symmetry_Int_Tables_number       1
_space_group_crystal_system       triclinic
_cell_length_a                    19.578233
_cell_length_b                    18.126229
_cell_length_c                    17.721916
_cell_angle_alpha                 89.999953
_cell_angle_beta                  90.757396
_cell_angle_gamma                 89.98537
_cell_volume                      6288.59561504

loop_
_atom_site_label
_atom_site_type_symbol
_atom_type_description
_atom_site_fract_x
_atom_site_fract_y
_atom_site_fract_z
_atom_type_partial_charge
C1    C     C_R   0.367175 0.500012 0.501441 0.538337
C2    C     C_R   0.964702 0.463168 0.442104 -0.039998
C3    C     C_R   0.071374 0.500139 0.501306 0.099573
C4    C     C_R   0.928626 0.499863 0.498686 0.099575
C5    C     C_R   0.461727 0.721224 0.447769 0.495815
C6    C     C_R   0.538272 0.278776 0.552231 0.495815
C7    C     C_R   0.538267 0.721204 0.552235 0.495456
C8    C     C_R   0.461734 0.278796 0.447765 0.495455
C9    C     C_R   0.461002 0.798686 0.446773 0.332118
C10   C     C_R   0.538997 0.201314 0.553228 0.332117
C11   C     C_R   0.538992 0.798665 0.553231 0.331912
C12   C     C_R   0.632825 0.499988 0.498559 0.538337
C13   C     C_R   0.461009 0.201335 0.446769 0.331911
C14   C     C_R   0.499998 0.838726 0.500001 -0.092644
C15   C     C_R   0.500002 0.161274 0.499999 -0.092644
C16   C     C_R   0.490141 0.961267 0.567154 -0.039969
C17   C     C_R   0.509859 0.038733 0.432846 -0.039970
C18   C     C_R   0.509857 0.961261 0.432847 -0.039891
C19   C     C_R   0.490143 0.038739 0.567153 -0.039891
C20   C     C_R   0.500002 0.078570 0.500000 0.095638
C21   C     C_R   0.499998 0.921430 0.500000 0.095638
C22   C     C_R   0.499904 0.500000 0.355337 0.549503
C23   C     C_R   0.853698 0.499841 0.497307 0.015291
C24   C     C_R   0.500096 0.500000 0.644663 0.549503
C25   C     C_R   0.500180 0.566877 0.846341 -0.095264
C26   C     C_R   0.499820 0.433123 0.153659 -0.095264
C27   C     C_R   0.499820 0.566877 0.153659 -0.094905
C28   C     C_R   0.500179 0.433123 0.846341 -0.094905
C29   C     C_R   0.500194 0.566970 0.767680 -0.100537
C30   C     C_R   0.499806 0.433030 0.232320 -0.100537
C31   C     C_R   0.499807 0.566970 0.232320 -0.099919
C32   C     C_R   0.500193 0.433030 0.767680 -0.099919
C33   C     C_R   0.500169 0.500000 0.727645 0.010051
C34   C     C_R   0.146302 0.500161 0.502687 0.015291
C35   C     C_R   0.499831 0.500000 0.272354 0.010051
C36   C     C_R   0.500152 0.500000 0.885562 0.036785
C37   C     C_R   0.499848 0.500000 0.114437 0.036785
C38   C     C_1   0.500049 0.500000 0.966166 -0.000819
C39   C     C_1   0.499951 0.500000 0.033834 -0.000819
C40   C     C_R   0.746690 0.432408 0.494725 -0.037785
C41   C     C_R   0.253310 0.567593 0.505275 -0.037782
C42   C     C_R   0.253259 0.432564 0.504851 -0.038059
C43   C     C_R   0.746740 0.567436 0.495144 -0.038058
C44   C     C_R   0.818062 0.433154 0.495908 0.323468
C45   C     C_R   0.709234 0.499946 0.496168 -0.137763
C46   C     C_R   0.181939 0.566847 0.504089 0.323468
C47   C     C_R   0.181886 0.433424 0.503670 0.322568
C48   C     C_R   0.818113 0.566577 0.496322 0.322568
C49   C     C_1   0.714546 0.360698 0.490053 0.370918
C50   C     C_1   0.285455 0.639302 0.509953 0.370920
C51   C     C_1   0.285352 0.360811 0.509542 0.371461
C52   C     C_1   0.714646 0.639189 0.490451 0.371461
C53   C     C_R   0.290765 0.500054 0.503830 -0.137763
C54   C     C_R   0.964205 0.536720 0.556562 -0.036572
C55   C     C_R   0.035795 0.463282 0.443431 -0.036571
C56   C     C_R   0.035297 0.536834 0.557888 -0.039998
Cu1   Cu    Cu3+1 0.500000 0.573360 0.500000 1.122709
Cu2   Cu    Cu3+1 0.500000 0.426640 0.500000 1.122708
F1    F     F_    0.853167 0.368324 0.496791 -0.591192
F2    F     F_    0.579104 0.165841 0.604696 -0.559827
F3    F     F_    0.579096 0.834117 0.604701 -0.560439
F4    F     F_    0.420905 0.165883 0.395298 -0.560439
F5    F     F_    0.146834 0.631677 0.503208 -0.591192
F6    F     F_    0.146696 0.368700 0.505384 -0.591504
F7    F     F_    0.853303 0.631300 0.494605 -0.591504
F8    F     F_    0.423053 0.683793 0.396655 -0.555022
F9    F     F_    0.576945 0.316207 0.603346 -0.555023
F10   F     F_    0.576930 0.683753 0.603360 -0.556072
F11   F     F_    0.423071 0.316247 0.396638 -0.556073
F12   F     F_    0.420895 0.834159 0.395305 -0.559826
H1    H     H_    0.500168 0.618861 0.876540 0.138565
H2    H     H_    0.063116 0.435220 0.399080 0.164374
H3    H     H_    0.062218 0.564928 0.603293 0.160521
H4    H     H_    0.937782 0.435073 0.396700 0.160519
H5    H     H_    0.481462 0.932395 0.619650 0.170124
H6    H     H_    0.518538 0.067604 0.380350 0.170125
H7    H     H_    0.518534 0.932384 0.380350 0.170237
H8    H     H_    0.481466 0.067616 0.619650 0.170237
H9    H     H_    0.499832 0.381139 0.123460 0.138565
H10   H     H_    0.499833 0.618861 0.123460 0.138713
H11   H     H_    0.500166 0.381139 0.876540 0.138713
H12   H     H_    0.500193 0.619377 0.738331 0.180454
H13   H     H_    0.499807 0.380623 0.261669 0.180455
H14   H     H_    0.499808 0.619377 0.261669 0.180684
H15   H     H_    0.500192 0.380623 0.738331 0.180685
H16   H     H_    0.936883 0.564782 0.600912 0.164372
N1    N     N_R   0.500000 0.683620 0.500000 -0.309602
N2    N     N_R   0.500000 0.316380 0.500000 -0.309602
N3    N     N_1   0.689514 0.302982 0.485917 -0.182408
N4    N     N_1   0.310488 0.697018 0.514094 -0.182418
N5    N     N_1   0.310341 0.303060 0.513691 -0.181597
N6    N     N_1   0.689657 0.696940 0.486302 -0.181602
O1    O     O_R   0.400190 0.561980 0.499990 -0.470967
O2    O     O_R   0.599810 0.438020 0.500010 -0.470969
O3    O     O_R   0.599810 0.561980 0.500010 -0.471047
O4    O     O_R   0.400190 0.438020 0.499990 -0.471048
O5    O     O_R   0.500000 0.561980 0.391260 -0.465613
O6    O     O_R   0.500000 0.438020 0.608740 -0.465612
O7    O     O_R   0.500000 0.561980 0.608740 -0.465853
O8    O     O_R   0.500000 0.438020 0.391260 -0.465853

loop_
_geom_bond_atom_site_label_1
_geom_bond_atom_site_label_2
_ccdc_geom_bond_type
C8    C13   A    
C18   C21   A    
C10   F2    S    
C19   C20   A    
Cu2   O6    S    
C23   C48   A    
C7    C11   A    
C22   C35   S    
C8    F11   S    
C16   C21   A    
C30   C35   A    
C24   O6    A    
C14   C21   S    
C2    C55   A    
C1    O4    A    
C42   C53   A    
C38   C39   T    
C11   C14   A    
C43   C52   S    
C44   F1    S    
C40   C49   S    
C16   H5    S    
C29   C33   A    
C17   C20   A    
C6    N2    A    
C30   H13   S    
C1    C53   S    
Cu2   O4    S    
C51   N5    T    
C7    F10   S    
C3    C55   A    
C50   N4    T    
C7    N1    A    
C13   F4    S    
C17   H6    S    
C41   C46   A    
C12   O3    A    
C34   C46   A    
C48   F7    S    
C43   C48   A    
C55   H2    S    
C2    H4    S    
C42   C51   S    
C22   O5    A    
Cu1   O1    S    
C16   C19   A    
C12   O2    A    
C15   C20   S    
C25   C29   A    
C40   C45   A    
C54   C56   A    
C22   O8    A    
C27   C31   A    
C28   C32   A    
C24   O7    A    
Cu2   O8    S    
C9    F12   S    
C27   H10   S    
C47   F6    S    
C54   H16   S    
C4    C23   S    
C12   C45   S    
C3    C34   S    
C31   H14   S    
Cu1   N1    S    
C8    N2    A    
C19   H8    S    
C2    C4    A    
C9    C14   A    
C5    C9    A    
C3    C56   A    
Cu1   O5    S    
C17   C18   A    
C43   C45   A    
C41   C53   A    
C25   H1    S    
C6    F9    S    
C26   C30   A    
C13   C15   A    
C31   C35   A    
C52   N6    T    
C41   C50   S    
C56   H3    S    
C4    C54   A    
C28   H11   S    
C24   C33   S    
C49   N3    T    
C5    F8    S    
C11   F3    S    
Cu2   N2    S    
C6    C10   A    
C26   C37   A    
C26   H9    S    
C46   F5    S    
C10   C15   A    
C32   C33   A    
C36   C38   S    
Cu2   O2    S    
C29   H12   S    
C37   C39   S    
Cu1   Cu2   S    
C27   C37   A    
C18   H7    S    
C32   H15   S    
C42   C47   A    
C23   C44   A    
C25   C36   A    
C5    N1    A    
C40   C44   A    
C28   C36   A    
C1    O1    A    
Cu1   O3    S    
C34   C47   A    
Cu1   O7    S    
