data_mof_unit_32459.cif
_audit_creation_date              2012-10-26T18:50:27-0400
_audit_creation_method            fapswitch 2.2
_symmetry_space_group_name_H-M    P1
_symmetry_Int_Tables_number       1
_space_group_crystal_system       triclinic
_cell_length_a                    9.631299
_cell_length_b                    10.772392
_cell_length_c                    15.649094
_cell_angle_alpha                 87.695836
_cell_angle_beta                  73.519459
_cell_angle_gamma                 90.0259
_cell_volume                      1555.54400484

loop_
_atom_site_label
_atom_site_type_symbol
_atom_type_description
_atom_site_fract_x
_atom_site_fract_y
_atom_site_fract_z
_atom_type_partial_charge
C1    C     C_R   0.998615 0.262704 0.502963 0.535986
C2    C     C_R   0.221435 0.512960 0.043423 0.002703
C3    C     C_R   0.324507 0.499538 0.091776 0.017635
C4    C     C_R   0.917441 0.498207 0.671476 0.532392
C5    C     C_R   0.073215 0.507332 0.088407 -0.120963
C6    C     C_R   0.026504 0.487254 0.180883 0.249391
C7    C     C_R   0.275552 0.502373 0.185161 -0.191267
C8    C     C_R   0.079110 0.121255 0.644969 -0.108980
C9    C     C_R   0.120097 0.052529 0.711021 -0.124872
C10   C     C_R   0.120704 0.923431 0.710833 -0.119932
C11   C     C_R   0.080209 0.862241 0.644634 -0.101185
C12   C     C_R   0.668784 0.485609 0.905313 0.031312
C13   C     C_R   0.040476 0.929999 0.576032 0.027936
C14   C     C_R   0.040100 0.061319 0.576163 0.026756
C15   C     C_R   0.995487 0.128519 0.509160 0.004275
C16   C     C_R   0.998760 0.737011 0.502776 0.525733
C17   C     C_R   0.945527 0.067168 0.446581 -0.152735
C18   C     C_R   0.945768 0.939136 0.446470 -0.154310
C19   C     C_R   0.995887 0.870512 0.508986 0.006384
C20   C     C_R   0.699194 0.662830 0.380468 -0.047712
C21   C     C_R   0.654656 0.742302 0.321661 -0.149374
C22   C     C_R   0.511417 0.743199 0.322000 -0.169614
C23   C     C_R   0.764582 0.439572 0.952830 0.044649
C24   C     C_R   0.411819 0.664475 0.381039 -0.089039
C25   C     C_R   0.452481 0.580575 0.441482 0.153752
C26   C     C_R   0.601874 0.580224 0.441370 0.153728
C27   C     C_R   0.547994 0.423579 0.555802 -0.017543
C28   C     C_R   0.082343 0.498495 0.328314 0.538656
C29   C     C_R   0.400367 0.423536 0.555730 -0.007517
C30   C     C_R   0.869771 0.486200 0.768827 -0.001718
C31   C     C_R   0.127746 0.496487 0.230281 -0.011854
C32   C     C_R   0.909215 0.414379 0.907913 -0.145412
C33   C     C_R   0.961626 0.437608 0.816392 -0.144984
C34   C     C_R   0.519350 0.500167 0.950954 0.033515
C35   C     C_R   0.725797 0.512586 0.813441 -0.131427
C36   C     C_3   0.869392 0.328812 0.240735 0.003028
C37   C     C_3   0.718169 0.296611 0.300222 -0.351103
C38   C     C_R   0.472599 0.483354 0.045471 0.039912
C39   C     C_R   0.572590 0.440946 0.090446 -0.125697
C40   C     C_R   0.714676 0.416796 0.044460 -0.130487
C41   C     C_R   0.413895 0.523726 0.905206 -0.135019
C42   C     C_R   0.267390 0.527214 0.950762 -0.139337
Cu1   Cu    Cu3+1 0.140660 0.499990 0.500010 0.903960
Cu2   Cu    Cu3+1 0.859340 0.500010 0.499990 0.922953
H1    H     H_    0.785867 0.379146 0.080842 0.129497
H2    H     H_    0.811054 0.670430 0.375308 0.183418
H3    H     H_    0.732062 0.804170 0.275771 0.115112
H4    H     H_    0.351477 0.510896 0.223773 0.135572
H5    H     H_    0.476764 0.805804 0.276363 0.120444
H6    H     H_    0.304638 0.673894 0.376253 0.185142
H7    H     H_    0.324310 0.360743 0.601514 0.108957
H8    H     H_    0.189540 0.539758 0.913012 0.109621
H9    H     H_    0.981169 0.374067 0.943242 0.097718
H10   H     H_    0.072563 0.414448 0.782607 0.116058
H11   H     H_    0.660592 0.554852 0.774834 0.121718
H12   H     H_    0.993810 0.513508 0.051727 0.120462
H13   H     H_    0.541253 0.417711 0.160870 0.111233
H14   H     H_    0.439818 0.532174 0.833571 0.101924
H15   H     H_    0.947702 0.294297 0.276460 0.127714
H16   H     H_    0.888696 0.278027 0.178030 0.105069
H17   H     H_    0.704879 0.194162 0.310056 0.085230
H18   H     H_    0.701729 0.337318 0.366212 0.188246
H19   H     H_    0.635164 0.333095 0.269608 0.146096
H20   H     H_    0.909204 0.118859 0.396240 0.111487
H21   H     H_    0.075564 0.221077 0.649760 0.126306
H22   H     H_    0.149600 0.099654 0.763271 0.108133
H23   H     H_    0.150743 0.870344 0.762934 0.114673
H24   H     H_    0.077727 0.761888 0.649143 0.145385
H25   H     H_    0.909733 0.893330 0.395974 0.107394
H26   H     H_    0.581672 0.360765 0.601611 0.121519
N1    N     N_R   0.648320 0.501210 0.499140 -0.255821
N2    N     N_R   0.352470 0.501290 0.499110 -0.242426
O1    O     O_R   0.118810 0.319640 0.500010 -0.501184
O2    O     O_R   0.881240 0.319660 0.500000 -0.507487
O3    O     O_R   0.055570 0.499980 0.629840 -0.516873
O4    O     O_R   0.818000 0.500010 0.629830 -0.501768
O5    O     O_R   0.118760 0.680340 0.500000 -0.525126
O6    O     O_R   0.881190 0.680360 0.499990 -0.517987
O7    O     O_R   0.182000 0.499990 0.370170 -0.531415
O8    O     O_R   0.944430 0.500020 0.370160 -0.477942
O9    O     O_3   0.882233 0.458850 0.221827 -0.548673

loop_
_geom_bond_atom_site_label_1
_geom_bond_atom_site_label_2
_ccdc_geom_bond_type
Cu1   O1    S    
Cu1   N2    S    
C27   C29   A    
C41   C42   A    
C5    H12   S    
C36   H15   S    
C37   H18   S    
C10   H23   S    
C12   C23   A    
C30   C35   A    
C1    O2    A    
C36   C37   S    
C41   H14   S    
C16   O5    A    
C3    C7    A    
C17   H20   S    
C5    C6    A    
Cu1   O7    S    
C23   C40   A    
C39   H13   S    
Cu2   N1    S    
C18   C19   A    
Cu2   O4    S    
C28   O7    A    
C9    H22   S    
C4    O3    A    
C3    C38   A    
C8    C9    A    
C1    C15   S    
C9    C10   A    
C29   N2    A    
C18   H25   S    
C6    C31   A    
C8    H21   S    
C6    O9    S    
C13   C14   A    
Cu1   O3    S    
C26   N1    A    
C34   C41   A    
C37   H19   S    
C24   H6    S    
C40   H1    S    
C7    C31   A    
C13   C19   A    
C35   H11   S    
Cu2   O8    S    
C24   C25   A    
C39   C40   A    
C25   C26   A    
Cu1   Cu2   S    
C36   O9    S    
C17   C18   A    
C25   N2    A    
C12   C35   A    
Cu2   O2    S    
C27   H26   S    
C22   H5    S    
C22   C24   A    
C2    C5    A    
C12   C34   A    
C32   H9    S    
C27   N1    A    
C11   H24   S    
C29   H7    S    
C33   H10   S    
C15   C17   A    
C8    C14   A    
C30   C33   A    
C34   C38   A    
C28   C31   S    
C23   C32   A    
C36   H16   S    
C37   H17   S    
Cu1   O5    S    
C1    O1    A    
C7    H4    S    
Cu2   O6    S    
C2    C3    A    
C32   C33   A    
C11   C13   A    
C38   C39   A    
C20   C26   A    
C2    C42   A    
C16   C19   S    
C16   O6    A    
C28   O8    A    
C20   H2    S    
C4    O4    A    
C10   C11   A    
C20   C21   A    
C14   C15   A    
C21   C22   A    
C4    C30   S    
C42   H8    S    
C21   H3    S    
