data_mof_unit_59801.cif
_audit_creation_date              2013-03-05T15:39:56-0500
_audit_creation_method            fapswitch 2.2
_symmetry_space_group_name_H-M    P1
_symmetry_Int_Tables_number       1
_space_group_crystal_system       triclinic
_cell_length_a                    28.090997
_cell_length_b                    18.759074
_cell_length_c                    16.878706
_cell_angle_alpha                 89.992221
_cell_angle_beta                  63.078555
_cell_angle_gamma                 90.001454
_cell_volume                      7930.51612802

loop_
_atom_site_label
_atom_site_type_symbol
_atom_site_description
_atom_site_fract_x
_atom_site_fract_y
_atom_site_fract_z
_atom_type_partial_charge
O1    O     O_R   0.255040 0.869590 0.478480 -0.572520
O2    O     O_R   0.744960 0.130410 0.521520 -0.572308
O3    O     O_R   0.744960 0.869590 0.521520 -0.571773
O4    O     O_R   0.255040 0.130410 0.478480 -0.572694
O5    O     O_R   0.755040 0.369590 0.478480 -0.576494
O6    O     O_R   0.244960 0.630410 0.521520 -0.572812
O7    O     O_R   0.244960 0.369590 0.521520 -0.572615
O8    O     O_R   0.755040 0.630410 0.478480 -0.573304
O9    O     O_R   0.182050 0.796550 0.624440 -0.528694
O10   O     O_R   0.817950 0.203450 0.375560 -0.526825
O11   O     O_R   0.817950 0.796550 0.375560 -0.528374
O12   O     O_R   0.182050 0.203450 0.624440 -0.518385
O13   O     O_R   0.682050 0.296550 0.624440 -0.531524
O14   O     O_R   0.317950 0.703450 0.375560 -0.518489
O15   O     O_R   0.317950 0.296550 0.375560 -0.528726
O16   O     O_R   0.682050 0.703450 0.624440 -0.518646
Cu1   Cu    Cu3+1 0.209920 0.785290 0.495070 1.053528
Cu2   Cu    Cu3+1 0.790080 0.214710 0.504930 1.058354
Cu3   Cu    Cu3+1 0.790080 0.785290 0.504930 1.054833
Cu4   Cu    Cu3+1 0.209920 0.214710 0.495070 1.054526
Cu5   Cu    Cu3+1 0.709920 0.285290 0.495070 1.069542
Cu6   Cu    Cu3+1 0.290080 0.714710 0.504930 1.054314
Cu7   Cu    Cu3+1 0.290080 0.285290 0.504930 1.052910
Cu8   Cu    Cu3+1 0.709920 0.714710 0.495070 1.053082
C1    C     C_R   0.294095 0.726584 0.330049 0.855659
C2    C     C_R   0.706094 0.274113 0.669780 0.822118
C3    C     C_R   0.705906 0.726578 0.669948 0.855469
C4    C     C_R   0.293978 0.273980 0.330136 0.825055
C5    C     C_R   0.795578 0.229877 0.329202 0.880441
C6    C     C_R   0.206024 0.773981 0.669864 0.824722
C7    C     C_R   0.205904 0.226583 0.669949 0.855488
C8    C     C_R   0.793980 0.773976 0.330134 0.825145
O17   O     O_R   0.250530 0.763330 0.367210 -0.562048
O18   O     O_R   0.749470 0.236670 0.632790 -0.573550
O19   O     O_R   0.749470 0.763330 0.632790 -0.561979
O20   O     O_R   0.250530 0.236670 0.367210 -0.573744
O21   O     O_R   0.750530 0.263330 0.367210 -0.523356
O22   O     O_R   0.249470 0.736670 0.632790 -0.573882
O23   O     O_R   0.249470 0.263330 0.632790 -0.562188
O24   O     O_R   0.750530 0.736670 0.367210 -0.574292
O25   O     O_R   0.177260 0.690030 0.513710 -0.606807
O26   O     O_R   0.822740 0.309970 0.486290 -0.601303
O27   O     O_R   0.822740 0.690030 0.486290 -0.606805
O28   O     O_R   0.177260 0.309970 0.513710 -0.599152
O29   O     O_R   0.677260 0.190030 0.513710 -0.600189
O30   O     O_R   0.322740 0.809970 0.486290 -0.599040
O31   O     O_R   0.322740 0.190030 0.486290 -0.606942
O32   O     O_R   0.677260 0.809970 0.513710 -0.599570
C9    C     C_R   0.197017 0.631760 0.526374 0.782941
C10   C     C_R   0.800220 0.369043 0.483684 0.779714
C11   C     C_R   0.802984 0.631761 0.473625 0.782601
C12   C     C_R   0.199791 0.369044 0.516289 0.788652
C13   C     C_R   0.697008 0.131762 0.526414 0.789927
C14   C     C_R   0.300199 0.869044 0.483743 0.788867
C15   C     C_R   0.302978 0.131760 0.473655 0.783138
C16   C     C_R   0.699768 0.869043 0.516355 0.789305
C17   C     C_R   0.047967 0.502259 0.507480 0.029312
C18   C     C_R   0.952131 0.502254 0.492244 0.029347
C19   C     C_R   0.547706 0.002236 0.508308 0.029525
C20   C     C_R   0.451878 0.002267 0.493047 0.029468
C21   C     C_R   0.021874 0.567099 0.510113 0.036767
C22   C     C_R   0.974244 0.437870 0.502959 0.040991
C23   C     C_R   0.978199 0.567101 0.489673 0.036836
C24   C     C_R   0.025896 0.437881 0.496651 0.041287
C25   C     C_R   0.521636 0.067087 0.510919 0.036918
C26   C     C_R   0.473924 0.937882 0.503916 0.041579
C27   C     C_R   0.477967 0.067103 0.490462 0.037242
C28   C     C_R   0.525574 0.937858 0.497616 0.041673
C29   C     C_R   0.125565 0.437441 0.500904 0.056734
C30   C     C_R   0.884673 0.565284 0.464503 0.049301
C31   C     C_R   0.874519 0.437419 0.498888 0.056233
C32   C     C_R   0.115360 0.565273 0.535398 0.049333
C33   C     C_R   0.625377 0.937412 0.501424 0.057673
C34   C     C_R   0.384574 0.065285 0.464894 0.049615
C35   C     C_R   0.374336 0.937446 0.499390 0.056853
C36   C     C_R   0.615247 0.065264 0.535836 0.051985
C37   C     C_R   0.171871 0.436095 0.515548 -0.115717
C38   C     C_R   0.833583 0.565263 0.465246 -0.116324
C39   C     C_R   0.828165 0.436088 0.484370 -0.112746
C40   C     C_R   0.166429 0.565257 0.534725 -0.115943
C41   C     C_R   0.671794 0.936084 0.515767 -0.115346
C42   C     C_R   0.333550 0.065263 0.465389 -0.115829
C43   C     C_R   0.328091 0.936098 0.484572 -0.115577
C44   C     C_R   0.666387 0.065255 0.534903 -0.115081
C45   C     C_R   0.192043 0.500312 0.529832 -0.251174
C46   C     C_R   0.807968 0.500312 0.470159 -0.252235
C47   C     C_R   0.692022 0.000308 0.529905 -0.248582
C48   C     C_R   0.307955 0.000314 0.470206 -0.250850
H1    H     H_    0.229301 0.500018 0.534355 0.202907
H2    H     H_    0.770687 0.500019 0.465709 0.202800
H3    H     H_    0.729346 0.000019 0.534214 0.203166
H4    H     H_    0.270737 0.000018 0.465548 0.202906
C49   C     C_R   0.096266 0.501594 0.515231 0.072631
C50   C     C_R   0.903806 0.501588 0.484570 0.072109
C51   C     C_R   0.596073 0.001569 0.515851 0.073373
C52   C     C_R   0.403624 0.001605 0.485152 0.072804
C53   C     C_R   0.607291 0.877704 0.471253 -0.167509
C54   C     C_R   0.417374 0.126578 0.445748 -0.151099
C55   C     C_R   0.392268 0.877744 0.529826 -0.168941
C56   C     C_R   0.582456 0.126565 0.555130 -0.144759
C57   C     C_R   0.107581 0.377748 0.470546 -0.169024
C58   C     C_R   0.917460 0.626592 0.445295 -0.151028
C59   C     C_R   0.892567 0.377698 0.529108 -0.168547
C60   C     C_R   0.082560 0.626562 0.554627 -0.151047
C61   C     C_R   0.556864 0.876325 0.475653 -0.192969
C62   C     C_R   0.461118 0.128719 0.463616 -0.202481
C63   C     C_R   0.442603 0.876365 0.525810 -0.193216
C64   C     C_R   0.538585 0.128703 0.537591 -0.199353
C65   C     C_R   0.057214 0.376368 0.474700 -0.193559
C66   C     C_R   0.961279 0.628728 0.462968 -0.202793
C67   C     C_R   0.942957 0.376329 0.524857 -0.193339
C68   C     C_R   0.038759 0.628705 0.536907 -0.202929
H5    H     H_    0.631493 0.831795 0.440355 0.175481
H6    H     H_    0.411082 0.173410 0.414687 0.198098
H7    H     H_    0.368012 0.831826 0.560553 0.175268
H8    H     H_    0.588891 0.173421 0.585980 0.196007
H9    H     H_    0.131823 0.331845 0.439747 0.175421
H10   H     H_    0.911087 0.673448 0.414364 0.198202
H11   H     H_    0.868370 0.331753 0.559888 0.176027
H12   H     H_    0.088908 0.673393 0.585617 0.198213
H13   H     H_    0.544179 0.828064 0.455467 0.160551
H14   H     H_    0.483481 0.177938 0.450933 0.161255
H15   H     H_    0.455211 0.828098 0.546121 0.160616
H16   H     H_    0.516244 0.177939 0.550303 0.160418
H17   H     H_    0.044582 0.328111 0.454415 0.160799
H18   H     H_    0.983622 0.677964 0.450286 0.161463
H19   H     H_    0.955623 0.328054 0.545056 0.160931
H20   H     H_    0.016399 0.677925 0.549627 0.161464
H21   H     H_    0.163442 0.687297 0.031556 0.149212
H22   H     H_    0.836955 0.317015 0.964508 0.164402
H23   H     H_    0.836608 0.687237 0.968415 0.148740
H24   H     H_    0.167836 0.311514 0.026481 0.161567
H25   H     H_    0.665708 0.194628 0.034417 0.151838
H26   H     H_    0.332186 0.811561 0.973480 0.162551
H27   H     H_    0.336577 0.187285 0.968444 0.149662
H28   H     H_    0.667859 0.811449 0.026468 0.162972
C69   C     C_R   0.219581 0.769511 0.955485 0.231122
C70   C     C_R   0.780118 0.237467 0.045657 0.062715
C71   C     C_R   0.780465 0.769428 0.044474 0.230818
C72   C     C_R   0.224013 0.229395 0.950591 0.153636
C73   C     C_R   0.722347 0.274467 0.953016 0.231385
C74   C     C_R   0.276009 0.729425 0.049387 0.153336
C75   C     C_R   0.280438 0.269483 0.044498 0.231055
C76   C     C_R   0.724040 0.729338 0.950568 0.153451
C77   C     C_R   0.267238 0.804421 0.939747 -0.119596
C78   C     C_R   0.731598 0.203476 0.065369 -0.167671
C79   C     C_R   0.732806 0.804322 0.060202 -0.117727
C80   C     C_R   0.271835 0.194824 0.934352 -0.136374
C81   C     C_R   0.770758 0.308860 0.933914 -0.114117
C82   C     C_R   0.228187 0.694843 0.065638 -0.136601
C83   C     C_R   0.232782 0.304382 0.060222 -0.119595
C84   C     C_R   0.771864 0.694770 0.934325 -0.137513
H29   H     H_    0.282590 0.847009 0.891298 0.142859
H30   H     H_    0.716265 0.162582 0.116116 0.155799
H31   H     H_    0.717450 0.846901 0.108645 0.144380
H32   H     H_    0.287018 0.152048 0.886164 0.141545
H33   H     H_    0.786092 0.349995 0.883485 0.142175
H34   H     H_    0.213005 0.652060 0.113834 0.141406
H35   H     H_    0.217429 0.346964 0.108661 0.142683
H36   H     H_    0.787049 0.651996 0.886134 0.140937
C85   C     C_R   0.295326 0.784447 0.986467 -0.161642
C86   C     C_R   0.702882 0.221812 0.019176 -0.105688
C87   C     C_R   0.704721 0.784346 0.013483 -0.161215
C88   C     C_R   0.299941 0.214830 0.981024 -0.113272
C89   C     C_R   0.799585 0.290319 0.979926 -0.177159
C90   C     C_R   0.200079 0.714849 0.018967 -0.113455
C91   C     C_R   0.204696 0.284407 0.013502 -0.162540
C92   C     C_R   0.799970 0.714778 0.980997 -0.115030
C93   C     C_R   0.139348 0.819842 0.949125 0.276502
C94   C     C_R   0.854949 0.171184 0.054899 0.334313
C95   C     C_R   0.860694 0.819779 0.050848 0.277976
C96   C     C_R   0.144625 0.170659 0.946164 0.290214
C97   C     C_R   0.640931 0.322283 0.948132 0.272265
C98   C     C_R   0.355384 0.670679 0.053831 0.291510
C99   C     C_R   0.360675 0.319811 0.050860 0.276637
C100  C     C_R   0.644642 0.670627 0.946152 0.291162
C101  C     C_R   0.113491 0.844783 0.899204 -0.260221
C102  C     C_R   0.882838 0.150600 0.103428 -0.202685
C103  C     C_R   0.886535 0.844745 0.100782 -0.260191
C104  C     C_R   0.116597 0.151069 0.897602 -0.188334
C105  C     C_R   0.614122 0.345539 0.898959 -0.256372
C106  C     C_R   0.383401 0.651061 0.102403 -0.187477
C107  C     C_R   0.386528 0.344755 0.100785 -0.260072
C108  C     C_R   0.616602 0.651061 0.897602 -0.187270
C109  C     C_R   0.132802 0.823269 0.810129 0.220103
C110  C     C_R   0.866352 0.176624 0.190135 0.149498
C111  C     C_R   0.867214 0.823240 0.189864 0.220678
C112  C     C_R   0.133975 0.176280 0.810392 0.179892
C113  C     C_R   0.632989 0.323210 0.810292 0.220195
C114  C     C_R   0.366015 0.676248 0.189621 0.179505
C115  C     C_R   0.367213 0.323237 0.189861 0.220424
C116  C     C_R   0.633975 0.676285 0.810399 0.179366
C117  C     C_R   0.184045 0.792327 0.765295 -0.269669
C118  C     C_R   0.819063 0.216573 0.232270 -0.215823
C119  C     C_R   0.815970 0.792298 0.234694 -0.268983
C120  C     C_R   0.184635 0.208303 0.765171 -0.276643
C121  C     C_R   0.684491 0.293113 0.764896 -0.268353
C122  C     C_R   0.315369 0.708306 0.234825 -0.276604
C123  C     C_R   0.315962 0.292313 0.234700 -0.269722
C124  C     C_R   0.684643 0.708285 0.765165 -0.276837
C125  C     C_R   0.214257 0.780451 0.812557 0.264558
C126  C     C_R   0.792723 0.240660 0.182891 0.326127
C127  C     C_R   0.785769 0.780394 0.187418 0.264507
C128  C     C_R   0.215326 0.221036 0.811355 0.308515
C129  C     C_R   0.715482 0.282939 0.811135 0.266490
C130  C     C_R   0.284693 0.721070 0.188621 0.308748
C131  C     C_R   0.285751 0.280438 0.187436 0.264642
C132  C     C_R   0.715347 0.720985 0.811335 0.308987
C133  C     C_R   0.190312 0.789649 0.904931 -0.019501
C134  C     C_R   0.810475 0.217402 0.094387 -0.135969
C135  C     C_R   0.809728 0.789573 0.095036 -0.019171
C136  C     C_R   0.193635 0.207379 0.902555 -0.087926
C137  C     C_R   0.692192 0.292996 0.903320 -0.021579
C138  C     C_R   0.306384 0.707410 0.097427 -0.088366
C139  C     C_R   0.309704 0.289622 0.095055 -0.019460
C140  C     C_R   0.693660 0.707327 0.902533 -0.088440
O33   O     O_R   0.051640 0.926880 0.885090 -0.523544
O34   O     O_R   0.948360 0.073120 0.114910 -0.532987
O35   O     O_R   0.948360 0.926880 0.114910 -0.522398
O36   O     O_R   0.051640 0.073120 0.885090 -0.533210
O37   O     O_R   0.551640 0.426880 0.885090 -0.524169
O38   O     O_R   0.448360 0.573120 0.114910 -0.532952
O39   O     O_R   0.448360 0.426880 0.114910 -0.523508
O40   O     O_R   0.551640 0.573120 0.885090 -0.533316
Cu9   Cu    Cu3+1 0.495240 0.500000 0.924150 1.154929
Cu10  Cu    Cu3+1 0.504760 0.500000 0.075850 1.153566
Cu11  Cu    Cu3+1 0.995240 0.000000 0.924150 1.157682
Cu12  Cu    Cu3+1 0.004760 0.000000 0.075850 1.155984
C141  C     C_R   0.928719 0.900024 0.064530 0.801539
C142  C     C_R   0.072502 0.098502 0.934563 0.846581
C143  C     C_R   0.071292 0.900038 0.935465 0.799721
C144  C     C_R   0.926754 0.097587 0.066162 0.848952
C145  C     C_R   0.428716 0.400027 0.064531 0.801432
C146  C     C_R   0.572504 0.598500 0.934563 0.849101
C147  C     C_R   0.571468 0.400210 0.935363 0.802045
C148  C     C_R   0.427493 0.598496 0.065438 0.849664
O41   O     O_R   0.940620 0.926560 0.986760 -0.572580
O42   O     O_R   0.059380 0.073440 0.013240 -0.524623
O43   O     O_R   0.059380 0.926560 0.013240 -0.573859
O44   O     O_R   0.940620 0.073440 0.986760 -0.520511
O45   O     O_R   0.440620 0.426560 0.986760 -0.573765
O46   O     O_R   0.559380 0.573440 0.013240 -0.523646
O47   O     O_R   0.559380 0.426560 0.013240 -0.574428
O48   O     O_R   0.440620 0.573440 0.986760 -0.523311
O49   O     O_3   0.116821 0.826401 0.040340 -0.681210
H37   H     H_    0.078003 0.817307 0.064152 0.355913
O50   O     O_3   0.872226 0.145295 0.969309 -0.671856
H38   H     H_    0.845884 0.154588 0.946876 0.347384
O51   O     O_3   0.883237 0.826329 0.959628 -0.680089
H39   H     H_    0.922058 0.817277 0.935842 0.355554
O52   O     O_3   0.123498 0.152441 0.035216 -0.671173
H40   H     H_    0.150841 0.156270 0.056606 0.338608
O53   O     O_3   0.619057 0.329797 0.039162 -0.689838
H41   H     H_    0.580406 0.319067 0.063988 0.356153
O54   O     O_3   0.376515 0.652476 0.964781 -0.669343
H42   H     H_    0.349182 0.656341 0.943371 0.338374
O55   O     O_3   0.383213 0.326366 0.959640 -0.681319
H43   H     H_    0.422032 0.317294 0.935846 0.356526
O56   O     O_3   0.623518 0.652406 0.035203 -0.669851
H44   H     H_    0.650872 0.656196 0.056574 0.337685
N1    N     N_R   0.099372 0.830865 0.766667 0.162698
O57   O     O_R   0.105062 0.885607 0.715641 -0.305680
O58   O     O_R   0.058368 0.789067 0.788660 -0.368764
N2    N     N_R   0.898621 0.164239 0.234799 0.166660
O59   O     O_R   0.891292 0.107509 0.283515 -0.301922
O60   O     O_R   0.934437 0.210860 0.228525 -0.329137
N3    N     N_R   0.900635 0.830855 0.233343 0.162250
O61   O     O_R   0.894941 0.885606 0.284340 -0.301709
O62   O     O_R   0.941636 0.789068 0.211386 -0.369438
N4    N     N_R   0.099166 0.171444 0.769186 0.164490
O63   O     O_R   0.102894 0.117759 0.717746 -0.301732
O64   O     O_R   0.059428 0.215653 0.792337 -0.333715
N5    N     N_R   0.598823 0.328936 0.767958 0.161187
O65   O     O_R   0.603432 0.382964 0.716481 -0.306238
O66   O     O_R   0.558037 0.286450 0.791843 -0.369709
N6    N     N_R   0.400803 0.671343 0.230863 0.164674
O67   O     O_R   0.397028 0.617631 0.282309 -0.302274
O68   O     O_R   0.440568 0.715512 0.207732 -0.329026
N7    N     N_R   0.400648 0.330809 0.233317 0.162615
O69   O     O_R   0.394979 0.385543 0.284326 -0.306428
O70   O     O_R   0.441639 0.288996 0.211332 -0.368588
N8    N     N_R   0.599150 0.671492 0.769219 0.164714
O71   O     O_R   0.602857 0.617829 0.717763 -0.303080
O72   O     O_R   0.559398 0.715690 0.792455 -0.329102
O73   O     O_3   0.266604 0.757926 0.770900 -0.696770
H45   H     H_    0.285827 0.790631 0.720131 0.322819
O74   O     O_3   0.749660 0.286562 0.223127 -0.686369
H46   H     H_    0.741717 0.310707 0.178331 0.345397
O75   O     O_3   0.733421 0.757863 0.229072 -0.697646
H47   H     H_    0.714191 0.790581 0.279810 0.323573
O76   O     O_3   0.266398 0.248106 0.769406 -0.674417
H48   H     H_    0.287465 0.214202 0.721033 0.327989
O77   O     O_3   0.768001 0.261204 0.768624 -0.695577
H49   H     H_    0.786573 0.293658 0.717332 0.321324
O78   O     O_3   0.233635 0.748172 0.230549 -0.674169
H50   H     H_    0.212546 0.714268 0.278922 0.327962
O79   O     O_3   0.233397 0.257928 0.229100 -0.696712
H51   H     H_    0.214182 0.290637 0.279853 0.322792
O80   O     O_3   0.766428 0.748026 0.769373 -0.673744
H52   H     H_    0.787476 0.714132 0.720977 0.327812

loop_
_geom_bond_atom_site_label_1
_geom_bond_atom_site_label_2
_geom_bond_distance
_ccdc_geom_bond_type
C47   H3    1.083361 S    
C122  C130  1.420039 A    
Cu2   Cu5   2.681539 S    
O76   H48   0.991941 S    
C95   C103  1.418004 A    
C10   C39   1.485368 S    
O39   Cu10  1.969775 S    
C16   C41   1.485384 S    
O38   C148  1.307902 A    
N8    O71   1.302647 A    
C94   C102  1.419457 A    
C70   C89   1.401152 A    
C75   C139  1.477229 S    
C97   C105  1.418550 A    
C29   C49   1.415639 A    
C54   H6    1.077829 S    
C119  C127  1.421051 A    
Cu6   O22   1.974697 S    
O37   Cu9   1.969957 S    
C117  C125  1.421016 A    
C6    O22   1.295967 A    
C93   C101  1.417968 A    
C21   C23   1.416880 A    
C2    C121  1.480077 S    
C22   C24   1.405950 A    
O39   C145  1.306257 A    
C97   O53   1.379605 S    
O3    Cu3   1.965835 S    
C120  C128  1.420084 A    
C79   H31   1.083251 S    
C25   C64   1.399854 A    
C146  O46   1.294957 A    
C106  C148  1.481944 S    
C53   C61   1.384744 A    
C130  C138  1.398935 A    
C75   C83   1.403395 A    
C43   C48   1.397883 A    
C124  C132  1.420094 A    
O49   H37   0.991368 S    
H25   C86   1.083230 S    
C64   H16   1.082177 S    
C33   C41   1.430105 A    
C69   C90   1.402788 A    
C72   C136  1.477395 S    
C46   H2    1.083360 S    
C3    O19   1.292694 A    
O36   Cu11  1.969775 S    
C80   C88   1.395714 A    
C97   C137  1.400482 A    
Cu12  O42   1.974873 S    
Cu11  Cu12  2.692164 S    
C78   H30   1.083238 S    
C128  C136  1.398917 A    
O13   Cu5   1.969197 S    
C147  O47   1.297475 A    
C99   O55   1.379777 S    
N4    O64   1.300653 A    
C33   C51   1.415634 A    
C141  O41   1.298091 A    
C12   C37   1.485359 S    
C125  O73   1.378065 S    
C76   C140  1.477397 S    
C113  C121  1.412525 A    
C100  C108  1.418192 A    
C113  N5    1.436766 S    
C112  N4    1.436654 S    
O2    C13   1.311950 A    
C100  O56   1.385762 S    
C17   C21   1.410398 A    
C29   C57   1.416394 A    
C36   C56   1.416131 A    
C95   O51   1.379777 S    
C54   C62   1.392181 A    
C9    C40   1.484822 S    
C11   C38   1.484908 S    
C57   H9    1.074740 S    
Cu3   O19   1.974562 S    
H22   C89   1.083100 S    
C74   C82   1.402503 A    
C77   C85   1.395753 A    
O10   Cu2   1.969197 S    
C83   C91   1.395767 A    
Cu11  O44   1.975126 S    
C116  C124  1.408859 A    
O4    Cu4   1.965837 S    
O5    Cu5   1.965724 S    
C106  C114  1.406453 A    
Cu9   O45   1.974873 S    
C83   H35   1.083252 S    
C118  C126  1.415866 A    
C29   C37   1.430029 A    
C26   C63   1.395645 A    
C35   C43   1.430019 A    
C98   C106  1.418156 A    
C74   C85   1.401957 A    
C31   C39   1.430103 A    
Cu10  O47   1.975129 S    
C34   C54   1.416185 A    
Cu9   O48   1.975126 S    
O51   H39   0.991369 S    
H21   C90   1.083240 S    
C13   C44   1.484992 S    
O7    C12   1.311227 A    
Cu2   O26   1.967843 S    
N1    O57   1.302664 A    
Cu10  O46   1.974873 S    
C6    C117  1.481141 S    
C82   C90   1.395685 A    
O55   H43   0.991371 S    
C22   C67   1.395532 A    
C20   C27   1.410421 A    
N2    O59   1.302884 A    
O35   Cu12  1.969775 S    
C103  C141  1.482259 S    
O28   C12   1.286650 A    
O16   C3    1.301359 A    
N7    O70   1.300779 A    
C37   C45   1.397891 A    
C73   C86   1.403004 A    
C114  N6    1.436636 S    
C127  C135  1.401281 A    
C125  C133  1.401267 A    
Cu4   O28   1.967963 S    
Cu9   Cu10  2.692164 S    
Cu5   O29   1.967843 S    
C56   C64   1.392253 A    
C4    C123  1.481038 S    
Cu7   O31   1.967963 S    
Cu8   O32   1.967963 S    
C34   C52   1.412761 A    
C81   C89   1.396164 A    
C60   C68   1.392187 A    
C70   C134  1.476622 S    
C102  C110  1.407522 A    
O77   H49   0.991552 S    
C94   C134  1.415253 A    
Cu4   Cu7   2.681505 S    
O34   C144  1.306959 A    
C62   H14   1.082172 S    
C35   C55   1.416387 A    
O75   H47   0.991541 S    
C108  C146  1.481837 S    
O9    C6    1.299274 A    
O26   C10   1.286612 A    
N2    O60   1.300701 A    
C66   H18   1.082173 S    
O11   C8    1.299291 A    
O12   C7    1.301364 A    
O13   C2    1.298850 A    
C28   C61   1.395532 A    
O9    Cu1   1.969197 S    
C31   C59   1.416460 A    
C110  C118  1.405945 A    
N3    O61   1.302674 A    
C96   O52   1.385764 S    
O1    Cu1   1.965724 S    
H26   C85   1.083200 S    
O14   Cu6   1.969197 S    
C76   C84   1.402518 A    
C79   C87   1.395754 A    
C19   C25   1.410343 A    
C24   C65   1.395625 A    
C70   C78   1.401511 A    
O7    Cu7   1.965835 S    
O8    Cu8   1.965837 S    
C20   C26   1.406724 A    
N6    O67   1.302649 A    
C21   C68   1.399811 A    
C129  O77   1.378112 S    
O54   H42   0.988217 S    
C1    O17   1.292792 A    
C18   C22   1.406785 A    
C121  C129  1.420803 A    
C56   H8    1.077855 S    
H24   C91   1.083204 S    
C63   H15   1.082908 S    
O40   Cu9   1.969775 S    
C36   C44   1.429524 A    
O52   H40   0.988224 S    
C78   C86   1.395114 A    
O11   Cu3   1.969129 S    
C69   C77   1.403390 A    
C30   C50   1.412821 A    
C34   C42   1.429553 A    
C55   H7    1.074755 S    
C103  C111  1.406752 A    
C57   C65   1.384793 A    
O6    Cu6   1.965722 S    
C101  C109  1.406841 A    
C59   C67   1.384729 A    
H27   C88   1.083240 S    
O25   C9    1.286834 A    
O40   C146  1.307956 A    
C14   C43   1.485336 S    
C1    C122  1.479325 S    
C104  C112  1.406350 A    
C105  C113  1.406426 A    
C25   C27   1.416901 A    
N7    O69   1.302667 A    
C108  C116  1.406344 A    
C96   C104  1.418203 A    
C129  C137  1.401035 A    
O37   C147  1.307072 A    
Cu1   O17   1.974695 S    
O35   C141  1.306252 A    
C8    C119  1.481039 S    
C84   C92   1.395732 A    
Cu3   O27   1.967963 S    
C35   C52   1.415637 A    
C74   C138  1.477338 S    
O78   H50   0.991941 S    
C45   H1    1.083360 S    
C32   C60   1.416153 A    
C69   C133  1.477170 S    
C98   C138  1.412055 A    
C99   C139  1.399973 A    
O80   H52   0.991940 S    
C40   C45   1.398239 A    
O74   H46   0.989611 S    
C104  C142  1.481851 S    
O30   C14   1.286670 A    
C131  C139  1.401279 A    
C115  N7    1.436728 S    
C130  O78   1.377490 S    
C41   C47   1.397922 A    
C107  C145  1.482257 S    
C32   C49   1.412773 A    
C20   C52   1.420876 A    
Cu6   O30   1.967843 S    
O4    C15   1.312002 A    
C94   O50   1.386972 S    
C58   C66   1.392194 A    
C116  N8    1.436659 S    
C75   C88   1.402804 A    
C114  C122  1.408935 A    
C82   H34   1.083245 S    
N8    O72   1.300655 A    
C30   C58   1.416165 A    
C27   C62   1.399787 A    
C55   C63   1.384829 A    
Cu1   Cu6   2.681539 S    
O36   C142  1.307945 A    
C127  O75   1.378071 S    
C110  N2    1.436224 S    
C131  O79   1.378069 S    
Cu3   Cu8   2.681505 S    
N3    O62   1.300785 A    
O10   C5    1.303129 A    
O27   C11   1.286823 A    
O15   C4    1.299290 A    
O53   H41   0.991424 S    
O14   C1    1.301344 A    
C71   C92   1.402811 A    
C68   H20   1.082173 S    
Cu4   O20   1.974561 S    
Cu5   O21   1.974695 S    
C4    O20   1.295876 A    
C32   C40   1.429492 A    
C5    O21   1.292966 A    
N4    O63   1.302652 A    
C128  O76   1.377490 S    
C80   H32   1.083246 S    
C132  O80   1.377495 S    
C93   O49   1.379774 S    
C81   H33   1.083204 S    
C39   C46   1.397905 A    
C60   H12   1.077843 S    
H28   C87   1.083203 S    
C26   C28   1.405965 A    
C84   H36   1.083246 S    
C30   C38   1.429547 A    
O79   H51   0.991534 S    
C44   C47   1.398258 A    
C72   C80   1.402511 A    
C73   C81   1.404418 A    
C31   C50   1.415641 A    
C33   C53   1.416479 A    
C71   C79   1.403389 A    
O73   H45   0.991529 S    
C115  C123  1.412502 A    
C36   C51   1.412860 A    
C7    C120  1.479194 S    
C42   C48   1.398221 A    
O38   Cu10  1.969954 S    
C5    C118  1.482232 S    
Cu11  O41   1.974873 S    
C143  O43   1.298153 A    
C145  O45   1.298078 A    
N5    O66   1.300763 A    
C2    O18   1.295811 A    
C48   H4    1.083363 S    
C100  C140  1.412034 A    
C58   H10   1.077829 S    
C77   H29   1.083255 S    
C38   C46   1.398238 A    
O15   Cu7   1.969129 S    
O16   Cu8   1.969129 S    
C17   C49   1.420865 A    
O12   Cu4   1.969129 S    
C19   C51   1.420910 A    
C126  C134  1.412871 A    
Cu12  O43   1.975129 S    
C73   C137  1.478280 S    
N1    O58   1.300786 A    
C71   C135  1.477241 S    
O33   Cu11  1.969957 S    
O1    C14   1.311212 A    
C19   C28   1.406824 A    
C95   C135  1.399980 A    
O3    C16   1.311300 A    
C105  C147  1.482764 S    
C111  N3    1.436731 S    
C93   C133  1.399970 A    
C123  C131  1.421055 A    
N5    O65   1.302608 A    
C61   H13   1.082911 S    
C15   C42   1.484818 S    
Cu2   O18   1.974697 S    
O8    C11   1.311985 A    
C126  O74   1.386466 S    
O34   Cu12  1.969954 S    
C65   H17   1.082907 S    
N6    O68   1.300657 A    
H23   C92   1.083240 S    
C67   H19   1.082911 S    
C142  O42   1.294963 A    
C53   H5    1.074692 S    
O56   H44   0.988228 S    
C17   C24   1.406748 A    
O31   C15   1.286763 A    
C18   C23   1.410364 A    
O32   C16   1.286584 A    
C111  C119  1.412500 A    
C99   C107  1.417994 A    
C59   H11   1.074632 S    
C3    C124  1.479198 S    
C109  C117  1.412581 A    
O2    Cu2   1.965722 S    
C96   C136  1.412042 A    
C107  C115  1.406744 A    
C101  C143  1.482359 S    
O50   H38   0.987429 S    
C148  O48   1.295061 A    
C23   C66   1.399805 A    
C18   C50   1.420910 A    
C76   C87   1.401958 A    
O33   C143  1.306223 A    
C109  N1    1.436712 S    
C72   C91   1.401966 A    
Cu7   O23   1.974562 S    
Cu8   O24   1.974561 S    
C7    O23   1.292686 A    
C8    O24   1.295876 A    
O6    C9    1.311959 A    
O5    C10   1.311301 A    
Cu1   O25   1.967843 S    
O29   C13   1.286912 A    
C98   O54   1.385766 S    
C112  C120  1.408848 A    
C132  C140  1.398921 A    
C102  C144  1.484602 S    
C144  O44   1.296355 A    
