data_mof_unit_34812.cif
_audit_creation_date              2012-12-11T17:41:33-0500
_audit_creation_method            fapswitch 2.2
_symmetry_space_group_name_H-M    P1
_symmetry_Int_Tables_number       1
_space_group_crystal_system       triclinic
_cell_length_a                    15.53439
_cell_length_b                    14.828473
_cell_length_c                    15.068868
_cell_angle_alpha                 109.764878
_cell_angle_beta                  121.000805
_cell_angle_gamma                 59.167988
_cell_volume                      2541.81525602

loop_
_atom_site_label
_atom_site_type_symbol
_atom_type_description
_atom_site_fract_x
_atom_site_fract_y
_atom_site_fract_z
_atom_type_partial_charge
C1    C     C_R   0.802376 0.936950 0.771652 -0.027307
C2    C     C_R   0.249307 0.003023 0.210040 0.011270
C3    C     C_R   0.127382 0.264501 0.459676 -0.136564
C4    C     C_R   0.802933 0.696500 0.447112 -0.125854
C5    C     C_R   0.504175 0.325360 0.556281 0.011507
C6    C     C_R   0.495678 0.702951 0.570618 0.029358
C7    C     C_R   0.505168 0.032106 0.828209 -0.071625
C8    C     C_R   0.501278 0.079241 0.209832 -0.102140
C9    C     C_R   0.705922 0.692572 0.895423 -0.117670
C10   C     C_R   0.286486 0.408835 0.199276 -0.044413
C11   C     C_R   0.632264 0.795197 0.913242 -0.115378
C12   C     C_R   0.369773 0.320308 0.175112 -0.153149
C13   C     C_R   0.672218 0.871174 0.979561 0.090112
C14   C     C_R   0.343165 0.260538 0.077849 0.111080
C15   C     C_R   0.786632 0.843072 0.028051 -0.129291
C16   C     C_R   0.231812 0.291875 0.004834 -0.152362
C17   C     C_R   0.859777 0.740843 0.008227 -0.043658
C18   C     C_R   0.148732 0.380696 0.029328 -0.105095
C19   C     C_R   0.819433 0.665563 0.942043 -0.051775
C20   C     C_R   0.176016 0.439073 0.126523 0.014718
C21   C     C_R   0.595752 0.997981 0.099876 -0.152377
C22   C     C_R   0.434969 0.147815 0.958736 -0.150551
C23   C     C_R   0.195246 0.268318 0.428735 0.386390
C24   C     C_R   0.769443 0.709130 0.521126 0.417417
C25   C     C_R   0.511175 0.086005 0.122625 0.096478
C26   C     C_R   0.512626 0.053238 0.932000 0.112404
C27   C     C_R   0.431172 0.164147 0.053572 0.013401
C28   C     C_R   0.595032 0.977998 0.004091 -0.010639
C29   C     C_2   0.011177 0.335896 0.440925 -0.007239
C30   C     C_2   0.866953 0.596683 0.402143 -0.025560
C31   C     C_2   0.945747 0.407613 0.372432 -0.083774
C32   C     C_2   0.862500 0.506647 0.395279 -0.147653
C33   C     C_2   0.978769 0.958629 0.845367 -0.252132
C34   C     C_2   0.164417 0.875252 0.102172 -0.273463
C35   C     C_R   0.200358 0.879024 0.662984 -0.018777
C36   C     C_R   0.911784 0.267872 0.759493 -0.094325
C37   C     C_R   0.297501 0.790336 0.665120 -0.177416
C38   C     C_R   0.804709 0.331717 0.694975 -0.183602
C39   C     C_R   0.295489 0.712770 0.579630 -0.059862
C40   C     C_R   0.715036 0.364909 0.718093 -0.073475
C41   C     C_R   0.194039 0.726274 0.490927 0.437894
C42   C     C_R   0.734546 0.331556 0.806599 0.464078
C43   C     C_R   0.097520 0.816306 0.489108 -0.115963
C44   C     C_R   0.842304 0.268291 0.871051 -0.136095
C45   C     C_R   0.594369 0.230453 0.557423 -0.036058
C46   C     C_R   0.406058 0.783740 0.511724 -0.095752
C47   C     C_R   0.100542 0.892142 0.575023 -0.075394
C48   C     C_R   0.930741 0.237287 0.848146 -0.209439
C49   C     C_R   0.404848 0.519406 0.584146 -0.142520
C50   C     C_R   0.598681 0.537785 0.651021 -0.268366
C51   C     C_R   0.505802 0.429263 0.605389 0.107904
C52   C     C_R   0.496638 0.621865 0.607103 0.040485
C53   C     C_R   0.604696 0.443174 0.656191 0.110611
C54   C     C_R   0.399466 0.617348 0.587428 0.105372
C55   C     C_2   0.035128 0.892690 0.918492 0.359604
C56   C     C_2   0.076848 0.936213 0.027422 0.361889
C57   C     C_R   0.410930 0.043481 0.735454 0.462692
C58   C     C_R   0.590543 0.030151 0.294702 0.538088
C59   C     C_R   0.410536 0.305974 0.487413 -0.083740
C60   C     C_R   0.588052 0.713982 0.592298 -0.064751
C61   C     C_R   0.594731 0.976908 0.805136 -0.173827
C62   C     C_R   0.409168 0.089305 0.211349 -0.197146
C63   C     C_R   0.189729 0.175830 0.512902 0.497604
C64   C     C_R   0.765842 0.796566 0.424064 0.425484
C65   C     C_R   0.804381 0.027623 0.682292 -0.138630
C66   C     C_R   0.248335 0.910423 0.300234 -0.037046
C67   C     C_R   0.866959 0.972605 0.768651 0.177606
C68   C     C_R   0.219538 0.925962 0.201206 0.123408
H1    H     H_    0.828038 0.883148 0.822823 0.152653
H2    H     H_    0.239997 0.032346 0.147629 0.115640
H3    H     H_    0.204217 0.790174 0.086658 0.174595
H4    H     H_    0.995425 0.026653 0.862328 0.137455
H5    H     H_    0.876145 0.586073 0.927700 0.120963
H6    H     H_    0.111575 0.507637 0.145440 0.157618
H7    H     H_    0.675100 0.633656 0.846737 0.136684
H8    H     H_    0.307962 0.453705 0.274585 0.177646
H9    H     H_    0.544540 0.815075 0.877012 0.119668
H10   H     H_    0.454945 0.298154 0.232388 0.152581
H11   H     H_    0.818779 0.900486 0.080523 0.161645
H12   H     H_    0.209062 0.246558 0.929776 0.154138
H13   H     H_    0.947771 0.719696 0.044948 0.150566
H14   H     H_    0.063132 0.403894 0.973125 0.129066
H15   H     H_    0.656007 0.936771 0.152294 0.192793
H16   H     H_    0.375410 0.207207 0.904372 0.171238
H17   H     H_    0.809354 0.504841 0.420443 0.189418
H18   H     H_    0.965418 0.405520 0.312856 0.218949
H19   H     H_    0.920736 0.596476 0.376252 0.194520
H20   H     H_    0.985461 0.340950 0.497966 0.170435
H21   H     H_    0.025475 0.961186 0.573355 0.170097
H22   H     H_    0.014147 0.189953 0.899439 0.161227
H23   H     H_    0.202394 0.937496 0.729778 0.161048
H24   H     H_    0.980361 0.243519 0.741664 0.169044
H25   H     H_    0.374191 0.781219 0.734151 0.140176
H26   H     H_    0.791709 0.356593 0.627587 0.169565
H27   H     H_    0.019930 0.827666 0.420864 0.220899
H28   H     H_    0.857610 0.245016 0.940246 0.224086
H29   H     H_    0.329449 0.513544 0.561633 0.157907
H30   H     H_    0.675533 0.543137 0.679207 0.146574
H31   H     H_    0.680656 0.213438 0.598254 0.119844
H32   H     H_    0.319977 0.808697 0.490198 0.141133
H33   H     H_    0.326097 0.362459 0.468122 0.170280
H34   H     H_    0.668498 0.679949 0.653984 0.161734
H35   H     H_    0.680586 0.954265 0.858551 0.142208
H36   H     H_    0.323823 0.133621 0.161540 0.161935
H37   H     H_    0.834862 0.055066 0.650970 0.134424
H38   H     H_    0.237179 0.855067 0.320456 0.128430
N1    N     N_R   0.705410 0.966550 0.689210 -0.061439
N2    N     N_R   0.294590 0.033450 0.310790 -0.051990
N3    N     N_R   0.294590 0.188320 0.465660 -0.115629
N4    N     N_R   0.705410 0.811680 0.534340 -0.114264
N5    N     N_R   0.556610 0.157790 0.497330 -0.043715
N6    N     N_R   0.443390 0.842210 0.502670 -0.061063
N7    N     N_R   0.443390 0.997080 0.657540 -0.080728
N8    N     N_R   0.556610 0.002920 0.342460 -0.093523
N9    N     N_R   0.443390 0.203250 0.451380 -0.037981
N10   N     N_R   0.556610 0.796750 0.548620 -0.056431
N11   N     N_R   0.556610 0.951620 0.703500 -0.072324
N12   N     N_R   0.443390 0.048380 0.296500 -0.075258
N13   N     N_R   0.294590 0.131500 0.522480 -0.120839
N14   N     N_R   0.705410 0.868500 0.477520 -0.111791
N15   N     N_R   0.705410 0.023370 0.632390 -0.050298
N16   N     N_R   0.294590 0.976630 0.367610 -0.054998
Ni1   Ni    Ni4+2 0.629830 0.882720 0.617850 0.243408
Ni2   Ni    Ni4+2 0.370170 0.117280 0.382150 0.274397
Ni3   Ni    Ni4+2 0.629830 0.013030 0.487540 0.282850
Ni4   Ni    Ni4+2 0.370170 0.986970 0.512460 0.282502
Cl1   Cl    Cl    0.154183 0.326755 0.321099 -0.680979
Cl2   Cl    Cl    0.833333 0.617820 0.609907 -0.676234
Cl3   Cl    Cl    0.185370 0.635077 0.379307 -0.707450
Cl4   Cl    Cl    0.627627 0.372567 0.842826 -0.634473
Cl5   Cl    Cl    0.279718 0.084707 0.727376 -0.702499
Cl6   Cl    Cl    0.704687 0.063082 0.362129 -0.631893
Cl7   Cl    Cl    0.124989 0.099011 0.496738 -0.587227
Cl8   Cl    Cl    0.800543 0.819313 0.342527 -0.664092
Cl9   Cl    Cl    0.001319 0.072097 0.059676 -0.664382
Cl10  Cl    Cl    0.044600 0.762463 0.887004 -0.635545

loop_
_geom_bond_atom_site_label_1
_geom_bond_atom_site_label_2
_ccdc_geom_bond_type
C33   C55   D    
C66   C68   A    
C55   C56   S    
C34   C56   D    
N10   Ni1   S    
C46   N6    A    
C41   C43   A    
C3    C23   A    
N1    Ni1   S    
C35   C47   A    
C39   C41   A    
C33   C67   S    
C7    C26   S    
C63   Cl7   S    
C35   C37   A    
C66   H38   S    
C2    C68   A    
C4    C24   A    
C39   C54   S    
C49   C54   A    
C3    C29   S    
C7    C61   A    
C29   H20   S    
C46   H32   S    
C11   H9    S    
C33   H4    S    
C8    C58   A    
C10   H8    S    
C9    C19   A    
C15   H11   S    
C21   H15   S    
C58   Cl6   S    
C49   C51   A    
C12   H10   S    
N5    Ni3   S    
C43   H27   S    
C66   N16   A    
C13   C28   S    
C10   C20   A    
C65   N15   A    
C14   C27   S    
C17   H13   S    
N6    Ni4   S    
C36   H24   S    
C40   C42   A    
C31   H18   S    
C48   H22   S    
C8    C25   S    
C47   H21   S    
C42   C44   A    
N2    Ni2   S    
C60   H34   S    
C65   H37   S    
C52   C54   A    
C62   H36   S    
C23   N3    A    
C64   Cl8   S    
C50   H30   S    
C50   C53   A    
C5    C59   A    
C61   N11   A    
C59   H33   S    
C6    C60   A    
C19   H5    S    
C24   N4    A    
C45   H31   S    
N4    N14   A    
C24   Cl2   S    
N8    Ni3   S    
N14   Ni3   S    
C17   C19   A    
C57   N7    A    
N7    Ni4   S    
C65   C67   A    
C5    C45   A    
C1    H1    S    
C1    C67   A    
C16   H12   S    
C22   H16   S    
N16   Ni4   S    
N15   Ni3   S    
C44   H28   S    
N4    Ni1   S    
C41   Cl3   S    
C63   N13   A    
C50   C52   A    
C31   C32   S    
C38   H26   S    
C37   H25   S    
C42   Cl4   S    
N12   Ni2   S    
C9    C11   A    
N8    N12   A    
C10   C12   A    
C1    N1    A    
N7    N11   A    
C16   C18   A    
C21   C28   A    
C12   C14   A    
C22   C27   A    
C13   C15   A    
C14   C16   A    
C60   N10   A    
N1    N15   A    
C34   C68   S    
N6    N10   A    
C56   Cl9   S    
N3    N13   A    
C23   Cl1   S    
C15   C17   A    
C21   C25   A    
N9    Ni2   S    
C6    C46   A    
C61   H35   S    
C57   Cl5   S    
N2    N16   A    
C45   N5    A    
N3    Ni2   S    
C20   H6    S    
C3    C63   A    
C25   C27   A    
C4    C64   A    
C26   C28   A    
C64   N14   A    
C6    C52   S    
C36   C38   A    
N11   Ni1   S    
C29   C31   D    
C30   C32   D    
C11   C13   A    
C38   C40   A    
C32   H17   S    
C2    N2    A    
C18   H14   S    
C36   C48   A    
C18   C20   A    
C62   N12   A    
C49   H29   S    
N13   Ni4   S    
C44   C48   A    
C37   C39   A    
C59   N9    A    
C40   C53   S    
C22   C26   A    
C58   N8    A    
C5    C51   S    
N5    N9    A    
C9    H7    S    
C51   C53   A    
C30   H19   S    
C2    H2    S    
C43   C47   A    
C34   H3    S    
C7    C57   A    
C4    C30   S    
C55   Cl10  S    
C8    C62   A    
C35   H23   S    
