data_mof_unit_64033.cif
_audit_creation_date              2012-12-11T17:31:38-0500
_audit_creation_method            fapswitch 2.2
_symmetry_space_group_name_H-M    P1
_symmetry_Int_Tables_number       1
_space_group_crystal_system       triclinic
_cell_length_a                    7.234241
_cell_length_b                    21.554498
_cell_length_c                    23.583729
_cell_angle_alpha                 89.999404
_cell_angle_beta                  90.006151
_cell_angle_gamma                 89.999791
_cell_volume                      3677.42105723

loop_
_atom_site_label
_atom_site_type_symbol
_atom_type_description
_atom_site_fract_x
_atom_site_fract_y
_atom_site_fract_z
_atom_type_partial_charge
O1    O     O_R   0.614510 0.805960 0.192860 -0.526871
O2    O     O_R   0.385490 0.194040 0.807140 -0.526871
O3    O     O_R   0.385490 0.194040 0.692860 -0.530324
O4    O     O_R   0.614510 0.805960 0.307140 -0.530324
O5    O     O_R   0.114510 0.694040 0.307140 -0.530333
O6    O     O_R   0.885490 0.305960 0.692860 -0.530333
O7    O     O_R   0.885490 0.305960 0.807140 -0.526872
O8    O     O_R   0.114510 0.694040 0.192860 -0.526872
O9    O     O_R   0.284730 0.813310 0.306760 -0.534061
O10   O     O_R   0.715270 0.186690 0.693240 -0.534061
O11   O     O_R   0.715270 0.186690 0.806760 -0.531641
O12   O     O_R   0.284730 0.813310 0.193240 -0.531641
O13   O     O_R   0.784730 0.686690 0.193240 -0.531639
O14   O     O_R   0.215270 0.313310 0.806760 -0.531639
O15   O     O_R   0.215270 0.313310 0.693240 -0.534064
O16   O     O_R   0.784730 0.686690 0.306760 -0.534064
C1    C     C_R   0.453332 0.828145 0.325353 0.698883
C2    C     C_R   0.546667 0.171854 0.674647 0.698883
C3    C     C_R   0.546674 0.171843 0.825345 0.715498
C4    C     C_R   0.453326 0.828157 0.174655 0.715498
C5    C     C_R   0.953327 0.671843 0.174655 0.715492
C6    C     C_R   0.046673 0.328157 0.825345 0.715492
C7    C     C_R   0.046662 0.328152 0.674651 0.698888
C8    C     C_R   0.953338 0.671848 0.325349 0.698887
O17   O     O_3   0.447950 0.710860 0.250000 -0.371662
O18   O     O_3   0.552050 0.289140 0.750000 -0.371662
O19   O     O_3   0.947950 0.789140 0.250000 -0.371654
O20   O     O_3   0.052050 0.210860 0.750000 -0.371654
V1    V     V_3+5 0.173120 0.757250 0.250000 1.524260
V2    V     V_3+5 0.826880 0.242750 0.750000 1.524260
V3    V     V_3+5 0.673120 0.742750 0.250000 1.524258
V4    V     V_3+5 0.326880 0.257250 0.750000 1.524258
C9    C     C_R   0.160302 0.464786 0.507571 -0.177454
C10   C     C_R   0.839698 0.535214 0.492429 -0.177454
C11   C     C_R   0.839352 0.504224 0.032698 -0.173243
C12   C     C_R   0.160647 0.495775 0.967302 -0.173243
C13   C     C_R   0.660632 0.004216 0.967295 -0.173265
C14   C     C_R   0.339368 0.995784 0.032705 -0.173265
C15   C     C_R   0.339599 0.964822 0.492418 -0.177390
C16   C     C_R   0.660400 0.035178 0.507582 -0.177390
H1    H     H_    0.285049 0.437623 0.512973 0.192943
H2    H     H_    0.714951 0.562377 0.487027 0.192943
H3    H     H_    0.714305 0.507063 0.057825 0.194870
H4    H     H_    0.285695 0.492937 0.942175 0.194870
H5    H     H_    0.785666 0.007048 0.942163 0.194838
H6    H     H_    0.214334 0.992952 0.057836 0.194838
H7    H     H_    0.214793 0.937687 0.487008 0.193053
H8    H     H_    0.785207 0.062313 0.512991 0.193053
C17   C     C_R   0.011724 0.456638 0.545146 0.004364
C18   C     C_R   0.988276 0.543362 0.454854 0.004364
C19   C     C_R   0.988505 0.543748 0.044837 0.003437
C20   C     C_R   0.011495 0.456252 0.955163 0.003437
C21   C     C_R   0.511500 0.043750 0.955165 0.003446
C22   C     C_R   0.488500 0.956250 0.044835 0.003446
C23   C     C_R   0.488244 0.956612 0.454874 0.004323
C24   C     C_R   0.511756 0.043388 0.545126 0.004323
C25   C     C_R   0.850347 0.492254 0.537219 0.298912
C26   C     C_R   0.149652 0.507746 0.462781 0.298912
C27   C     C_R   0.150187 0.539204 0.011711 0.301215
C28   C     C_R   0.849813 0.460796 0.988289 0.301215
C29   C     C_R   0.349833 0.039215 0.988297 0.301211
C30   C     C_R   0.650167 0.960785 0.011703 0.301211
C31   C     C_R   0.649709 0.992194 0.462812 0.298891
C32   C     C_R   0.350291 0.007806 0.537188 0.298891
C33   C     C_1   0.026308 0.411553 0.591139 0.081772
C34   C     C_1   0.973691 0.588447 0.408861 0.081772
C35   C     C_1   0.973723 0.588595 0.091016 0.089043
C36   C     C_1   0.026277 0.411405 0.908984 0.089043
C37   C     C_1   0.526283 0.088597 0.908986 0.089026
C38   C     C_1   0.473717 0.911403 0.091014 0.089026
C39   C     C_1   0.473645 0.911523 0.408884 0.081811
C40   C     C_1   0.526355 0.088477 0.591116 0.081811
C41   C     C_1   0.963074 0.626245 0.370664 -0.116896
C42   C     C_1   0.036926 0.373755 0.629336 -0.116896
C43   C     C_1   0.036961 0.373716 0.870697 -0.107313
C44   C     C_1   0.963039 0.626284 0.129302 -0.107312
C45   C     C_1   0.463035 0.873715 0.129301 -0.107327
C46   C     C_1   0.536965 0.126285 0.870699 -0.107327
C47   C     C_1   0.536952 0.126266 0.629320 -0.116838
C48   C     C_1   0.463048 0.873734 0.370680 -0.116838
Br1   Br    Br    0.358796 0.516432 0.413434 -0.524524
Br2   Br    Br    0.641203 0.483568 0.586565 -0.524524
Br3   Br    Br    0.640141 0.408516 0.974287 -0.511193
Br4   Br    Br    0.359858 0.591484 0.025713 -0.511193
Br5   Br    Br    0.859807 0.908487 0.025694 -0.511170
Br6   Br    Br    0.140193 0.091513 0.974306 -0.511170
Br7   Br    Br    0.141076 0.016584 0.586495 -0.524700
Br8   Br    Br    0.858924 0.983416 0.413505 -0.524700

loop_
_geom_bond_atom_site_label_1
_geom_bond_atom_site_label_2
_ccdc_geom_bond_type
O17   V3    S    
O18   V4    S    
C9    C26   A    
O12   V1    S    
O19   V1    S    
C10   H2    S    
C12   C27   A    
C21   C37   S    
C13   C30   A    
O15   V4    S    
C36   C43   T    
C15   C32   A    
C5    C44   S    
O11   C3    A    
C16   C31   A    
C17   C33   S    
C4    C45   S    
O8    V1    S    
C40   C47   T    
C31   Br8   S    
C28   Br3   S    
C8    C41   S    
C9    C17   A    
O1    V3    S    
C17   C25   A    
O3    C2    A    
O2    V4    S    
C20   C28   A    
C21   C29   A    
C15   C23   A    
O11   V2    S    
C2    C47   S    
C16   C24   A    
C23   C31   A    
C10   C25   A    
C24   C32   A    
C11   H3    S    
C32   Br7   S    
C12   C20   A    
O9    V1    S    
C14   C29   A    
C13   C21   A    
O15   C7    A    
C14   C22   A    
O16   C8    A    
O7    V2    S    
C38   C45   T    
C37   C46   T    
C6    C43   S    
C39   C48   T    
O5    V1    S    
C30   Br5   S    
C10   C18   A    
C18   C26   A    
C27   Br4   S    
C26   Br1   S    
C22   C30   A    
C24   C40   S    
C34   C41   T    
C1    C48   S    
C33   C42   T    
C11   C28   A    
O16   V3    S    
C3    C46   S    
O10   V2    S    
C22   C38   S    
O12   C4    A    
O8    C5    A    
O13   C5    A    
C19   C35   S    
C18   C34   S    
O4    C1    A    
O9    C1    A    
O6    V2    S    
C11   C19   A    
C12   H4    S    
C19   C27   A    
C7    C42   S    
C13   H5    S    
C15   H7    S    
C16   H8    S    
O1    C4    A    
O2    C3    A    
O13   V3    S    
O14   V4    S    
C20   C36   S    
O7    C6    A    
C9    H1    S    
O14   C6    A    
O20   V2    S    
O5    C8    A    
O10   C2    A    
O6    C7    A    
O3    V4    S    
C14   H6    S    
O4    V3    S    
C29   Br6   S    
C25   Br2   S    
C35   C44   T    
C23   C39   S    
