data_mof_unit_25872.cif
_audit_creation_date              2012-12-11T14:29:28-0500
_audit_creation_method            fapswitch 2.2
_symmetry_space_group_name_H-M    P1
_symmetry_Int_Tables_number       1
_space_group_crystal_system       triclinic
_cell_length_a                    6.937891
_cell_length_b                    14.738679
_cell_length_c                    16.244286
_cell_angle_alpha                 90.488555
_cell_angle_beta                  89.85675
_cell_angle_gamma                 90.137159
_cell_volume                      1660.99487161

loop_
_atom_site_label
_atom_site_type_symbol
_atom_type_description
_atom_site_fract_x
_atom_site_fract_y
_atom_site_fract_z
_atom_type_partial_charge
O1    O     O_R   0.494400 0.416610 0.413880 -0.543270
O2    O     O_R   0.823920 0.406790 0.585520 -0.544561
O3    O     O_R   0.994250 0.583390 0.586120 -0.536569
C1    C     C_R   0.654184 0.384662 0.613156 0.763952
O4    O     O_R   0.824110 0.405730 0.414490 -0.541576
O5    O     O_R   0.994440 0.582310 0.413870 -0.537207
C2    C     C_R   0.654888 0.383695 0.386322 0.741663
O6    O     O_R   0.494210 0.417690 0.586130 -0.542536
O7    O     O_3   0.660810 0.557940 0.500000 -0.369698
V1    V     V_3+5 0.935650 0.489250 0.500000 1.408208
O8    O     O_R   0.324160 0.593210 0.414480 -0.547562
C3    C     C_R   0.155662 0.614989 0.386312 0.737246
O9    O     O_R   0.323970 0.594270 0.585510 -0.538745
C4    C     C_R   0.155044 0.616132 0.613933 0.696757
V2    V     V_3+5 0.435660 0.510750 0.500000 1.409032
O10   O     O_3   0.160630 0.442060 0.500000 -0.374801
H1    H     H_    0.382926 0.913914 0.520410 0.112404
C5    C     C_R   0.014345 0.566898 0.775648 -0.140115
C6    C     C_R   0.945008 0.540889 0.852469 -0.123680
C7    C     C_R   0.933617 0.603814 0.916426 -0.120137
C8    C     C_R   0.991271 0.693276 0.904050 -0.135782
C9    C     C_R   0.059913 0.722182 0.826388 0.068951
C10   C     C_R   0.071891 0.657573 0.760736 0.070021
C11   C     C_R   0.120343 0.813133 0.814098 -0.188687
C12   C     C_R   0.193029 0.839274 0.735986 0.072609
C13   C     C_R   0.204698 0.774709 0.670289 0.070573
C14   C     C_R   0.144380 0.683738 0.682593 -0.186110
C15   C     C_R   0.251132 0.929878 0.721155 -0.155393
C16   C     C_R   0.319987 0.955956 0.644286 -0.128897
C17   C     C_R   0.330770 0.893116 0.580236 -0.116294
C18   C     C_R   0.273062 0.803659 0.592592 -0.134006
H2    H     H_    0.023746 0.514733 0.728607 0.109855
H3    H     H_    0.901376 0.471279 0.862572 0.120596
H4    H     H_    0.881190 0.583059 0.976219 0.115377
H5    H     H_    0.982828 0.738981 0.956350 0.106278
H6    H     H_    0.242718 0.981922 0.768320 0.117025
H7    H     H_    0.363843 0.025538 0.634238 0.112366
H8    H     H_    0.281227 0.757985 0.540260 0.105154
C19   C     C_2   0.985710 0.709232 0.282888 -0.127852
C20   C     C_2   0.150740 0.682716 0.319432 -0.313854
H9    H     H_    0.849804 0.680747 0.303804 0.136916
H10   H     H_    0.288318 0.710585 0.300625 0.126975
C21   C     C_2   0.972948 0.776707 0.214963 -0.139974
C22   C     C_2   0.125910 0.814411 0.177014 -0.308601
H11   H     H_    0.828923 0.795305 0.195410 0.134171
H12   H     H_    0.270985 0.796352 0.194767 0.130349
C23   C     C_2   0.782600 0.199127 0.772296 0.243099
C24   C     C_2   0.620853 0.180770 0.816973 -0.320358
H13   H     H_    0.490503 0.219585 0.807698 0.101713
C25   C     C_2   0.791402 0.274337 0.710900 -0.187200
C26   C     C_2   0.636991 0.314382 0.677107 -0.349806
H14   H     H_    0.933712 0.295145 0.690268 0.139636
H15   H     H_    0.492263 0.293679 0.693812 0.129025
C27   C     C_2   0.779196 0.209047 0.213883 -0.130217
C28   C     C_2   0.614053 0.181860 0.177393 -0.309203
H16   H     H_    0.915025 0.180418 0.192950 0.136956
H17   H     H_    0.476534 0.209806 0.196170 0.127069
C29   C     C_2   0.791704 0.277525 0.281828 -0.136687
C30   C     C_2   0.638305 0.315439 0.319547 -0.308451
H18   H     H_    0.935711 0.296685 0.301600 0.135018
H19   H     H_    0.493142 0.296956 0.301664 0.128815
O11   O     O_R   0.770210 0.079270 0.910680 -0.512208
O12   O     O_R   0.440150 0.091160 0.082270 -0.547053
O13   O     O_R   0.269970 0.914530 0.082860 -0.543437
C31   C     C_R   0.608801 0.113263 0.110487 0.738532
O14   O     O_R   0.440480 0.090100 0.911240 -0.546752
O15   O     O_R   0.270310 0.913460 0.910610 -0.537486
C32   C     C_R   0.610117 0.111120 0.882408 0.764314
O16   O     O_R   0.769870 0.080340 0.082930 -0.539706
O17   O     O_3   0.603660 0.938980 0.996790 -0.375036
V3    V     V_3+5 0.328750 0.007610 0.996740 1.423349
O18   O     O_R   0.940600 0.902510 0.911180 -0.540258
C33   C     C_R   0.109558 0.880740 0.882741 0.698328
O19   O     O_R   0.940270 0.903570 0.082200 -0.545104
C34   C     C_R   0.109331 0.881829 0.110335 0.730164
V4    V     V_3+5 0.828770 0.986010 0.996670 1.437300
O20   O     O_3   0.103730 0.054750 0.996710 -0.363458
N1    N     N_3   0.954186 0.145945 0.784237 -0.630699
H20   H     H_    0.070319 0.173465 0.751725 0.202951
H21   H     H_    0.928649 0.081784 0.758501 0.216280

loop_
_geom_bond_atom_site_label_1
_geom_bond_atom_site_label_2
_ccdc_geom_bond_type
O14   C32   A    
C11   C12   A    
O12   C31   A    
C6    C7    A    
O18   V4    S    
C19   H9    S    
C12   C15   A    
C13   C14   A    
O19   V4    S    
C15   C16   A    
O5    C3    A    
C17   C18   A    
N1    H21   S    
C11   C33   S    
C29   H18   S    
V2    O10   S    
O16   V4    S    
C5    C6    A    
O13   V3    S    
O8    V2    S    
C23   C24   D    
C25   H14   S    
O17   V3    S    
O15   C33   A    
C10   C14   A    
C4    C14   S    
O7    V1    S    
C1    O6    A    
C7    H4    S    
C20   H10   S    
C13   C18   A    
O9    C4    A    
H1    C17   S    
O11   V4    S    
C2    C30   S    
C28   C31   S    
C22   H12   S    
C23   C25   S    
C27   H16   S    
C30   H19   S    
O19   C34   A    
C1    C26   S    
C5    C10   A    
V4    O20   S    
C6    H3    S    
C19   C20   D    
O4    C2    A    
N1    H20   S    
C19   C21   S    
C12   C13   A    
C26   H15   S    
C3    C20   S    
C22   C34   S    
O2    C1    A    
C21   C22   D    
C16   C17   A    
O14   V3    S    
C25   C26   D    
C24   C32   S    
C21   H11   S    
O3    C4    A    
O1    V2    S    
C24   H13   S    
O12   V3    S    
O6    V2    S    
C28   H17   S    
O17   V4    S    
C9    C11   A    
C5    H2    S    
O2    V1    S    
V3    O20   S    
C27   C29   S    
C27   C28   D    
O1    C2    A    
O18   C33   A    
O5    V1    S    
O8    C3    A    
C8    H5    S    
C18   H8    S    
O11   C32   A    
O9    V2    S    
C29   C30   D    
O4    V1    S    
O3    V1    S    
V1    O10   S    
C31   O16   A    
O13   C34   A    
O15   V3    S    
O7    V2    S    
C7    C8    A    
C15   H6    S    
C16   H7    S    
C9    C10   A    
C23   N1    S    
C8    C9    A    
