data_mof_unit_14834.cif
_audit_creation_date              2013-03-05T15:46:21-0500
_audit_creation_method            fapswitch 2.2
_symmetry_space_group_name_H-M    P1
_symmetry_Int_Tables_number       1
_space_group_crystal_system       triclinic
_cell_length_a                    11.168144
_cell_length_b                    11.172413
_cell_length_c                    18.636537
_cell_angle_alpha                 89.530839
_cell_angle_beta                  90.651895
_cell_angle_gamma                 60.038255
_cell_volume                      2014.221991

loop_
_atom_site_label
_atom_site_type_symbol
_atom_site_description
_atom_site_fract_x
_atom_site_fract_y
_atom_site_fract_z
_atom_type_partial_charge
O1    O     O_R   0.748800 0.497470 0.428000 -0.419208
O2    O     O_R   0.476420 0.724060 0.429470 -0.423571
C1    C     C_R   0.353085 0.785361 0.402413 0.534708
O3    O     O_R   0.264580 0.744340 0.416750 -0.552881
O4    O     O_R   0.309380 0.472470 0.418200 -0.469726
C2    C     C_R   0.413019 0.376612 0.381271 0.550257
O5    O     O_R   0.501710 0.260430 0.414300 -0.471220
O6    O     O_R   0.728090 0.305600 0.428960 -0.458992
C3    C     C_R   0.780086 0.374656 0.404293 0.598885
O7    O     O_R   0.738760 0.495930 0.588610 -0.476894
O8    O     O_R   0.467110 0.722640 0.578360 -0.520591
C4    C     C_R   0.345480 0.762686 0.605235 0.507724
O9    O     O_R   0.254530 0.742800 0.577360 -0.468909
O10   O     O_R   0.300070 0.471040 0.567100 -0.481335
C5    C     C_R   0.372916 0.350067 0.595526 0.607594
O11   O     O_R   0.491670 0.258900 0.574910 -0.487349
O12   O     O_R   0.718780 0.304180 0.577850 -0.500281
C6    C     C_R   0.706014 0.408294 0.616412 0.516841
Cr1   Cr    Cr6+3 0.601770 0.606860 0.505860 1.138260
Cr2   Cr    Cr6+3 0.291380 0.601660 0.495070 1.088525
Cr3   Cr    Cr6+3 0.606880 0.291510 0.499120 1.130472
O13   O     O_3   0.500010 0.500010 0.500020 -0.349684
C7    C     C_R   0.762668 0.845486 0.091497 -0.020104
C8    C     C_R   0.768603 0.963851 0.072894 0.005475
C9    C     C_R   0.687354 0.086910 0.109693 -0.089325
C10   C     C_R   0.602851 0.090656 0.165974 0.094163
H1    H     H_    0.554227 0.153186 0.303201 0.219317
C11   C     C_R   0.394359 0.331813 0.150956 0.033252
C12   C     C_R   0.491105 0.241948 0.269426 -0.091966
C13   C     C_R   0.497050 0.224911 0.195317 -0.009484
C14   C     C_R   0.166771 0.709133 0.298270 -0.097943
C15   C     C_R   0.046931 0.802102 0.333349 -0.039483
C16   C     C_R   0.604818 0.969301 0.186631 -0.047031
C17   C     C_R   0.683879 0.847540 0.149194 -0.097220
C18   C     C_R   0.326066 0.463198 0.177783 -0.024467
C19   C     C_R   0.312259 0.478842 0.252320 0.010556
C20   C     C_R   0.931693 0.785412 0.330266 -0.027180
C21   C     C_R   0.930314 0.697527 0.279029 -0.058608
C22   C     C_R   0.056021 0.596463 0.251362 0.239116
C23   C     C_R   0.178219 0.590728 0.273150 0.022912
C24   C     C_R   0.398803 0.367647 0.300695 0.006055
H2    H     H_    0.683798 0.754404 0.164197 0.166648
H3    H     H_    0.046166 0.883401 0.363319 0.203303
H4    H     H_    0.817941 0.752019 0.060986 0.205439
H5    H     H_    0.684729 0.181237 0.092666 0.098392
H6    H     H_    0.254966 0.720495 0.292758 0.138122
H7    H     H_    0.539128 0.972407 0.229215 0.134430
H8    H     H_    0.256336 0.547334 0.142162 0.180731
H9    H     H_    0.839797 0.850865 0.360100 0.235332
H10   H     H_    0.834920 0.703523 0.263949 0.171076
C25   C     C_R   0.835293 0.223361 0.294119 0.166305
C26   C     C_R   0.845468 0.227779 0.219198 -0.141504
H11   H     H_    0.849241 0.146354 0.186996 0.175181
C27   C     C_R   0.859705 0.331713 0.186040 -0.016969
C28   C     C_R   0.867223 0.427526 0.229600 0.016571
H12   H     H_    0.853104 0.520740 0.205533 0.186175
C29   C     C_R   0.901501 0.396824 0.302448 0.163415
C30   C     C_R   0.853611 0.319450 0.336429 0.006817
C31   C     C_R   0.446494 0.809601 0.289206 0.209465
C32   C     C_R   0.420986 0.812639 0.215550 0.146398
C33   C     C_R   0.301485 0.929332 0.188622 -0.031890
C34   C     C_R   0.200014 0.016148 0.237450 -0.169152
H13   H     H_    0.108865 0.106570 0.217839 0.146120
C35   C     C_R   0.211952 0.979305 0.310607 -0.182895
H14   H     H_    0.126320 0.035935 0.346086 0.153698
C36   C     C_R   0.336705 0.868772 0.336465 -0.009171
C37   C     C_R   0.444312 0.322000 0.718625 -0.169397
H15   H     H_    0.539419 0.313918 0.701307 0.133400
C38   C     C_R   0.422925 0.320238 0.790878 -0.177779
H16   H     H_    0.503978 0.304474 0.828857 0.148079
C39   C     C_R   0.300344 0.330987 0.813561 -0.009511
C40   C     C_R   0.196540 0.348564 0.763440 0.152858
C41   C     C_R   0.218427 0.348598 0.689660 -0.034448
C42   C     C_R   0.344546 0.334226 0.668339 0.004888
C43   C     C_R   0.680984 0.492559 0.740824 -0.136456
H17   H     H_    0.621194 0.597287 0.719790 0.131932
C44   C     C_R   0.703717 0.469264 0.814961 0.018764
C45   C     C_R   0.788397 0.333823 0.841719 0.033762
C46   C     C_R   0.818995 0.221616 0.795367 -0.004346
C47   C     C_R   0.797770 0.246713 0.721445 -0.075983
H18   H     H_    0.827989 0.160863 0.685531 0.205037
C48   C     C_R   0.734179 0.381523 0.693663 -0.023653
C49   C     C_R   0.247778 0.760128 0.724059 -0.025834
C50   C     C_R   0.262125 0.763162 0.798213 -0.032350
C51   C     C_R   0.316038 0.842657 0.825669 0.014289
C52   C     C_R   0.382811 0.895249 0.779266 -0.048665
C53   C     C_R   0.377961 0.882032 0.705219 -0.057229
C54   C     C_R   0.315197 0.811009 0.678184 -0.012502
O14   O     O_R   0.186690 0.923650 0.086970 -0.469993
O15   O     O_R   0.957250 0.194250 0.084630 -0.574299
C55   C     C_R   0.910512 0.314950 0.112117 0.560399
O16   O     O_R   0.934970 0.407490 0.085330 -0.427546
O17   O     O_R   0.203780 0.365190 0.067090 -0.408702
C56   C     C_R   0.335512 0.295586 0.088221 0.563350
O18   O     O_R   0.417600 0.174890 0.067840 -0.550062
O19   O     O_R   0.375320 0.946260 0.070860 -0.446418
C57   C     C_R   0.272888 0.960214 0.111864 0.587985
O20   O     O_R   0.160600 0.919630 0.926660 -0.443374
O21   O     O_R   0.933060 0.190520 0.936020 -0.567935
C58   C     C_R   0.875072 0.311462 0.907318 0.622472
O22   O     O_R   0.908880 0.403460 0.925020 -0.415456
O23   O     O_R   0.179600 0.361450 0.918490 -0.454348
C59   C     C_R   0.294380 0.290427 0.886365 0.565324
O24   O     O_R   0.391510 0.170860 0.907530 -0.507377
O25   O     O_R   0.351130 0.942530 0.922260 -0.465749
C60   C     C_R   0.276246 0.897154 0.897817 0.649685
Cr4   Cr    Cr6+3 0.062440 0.063090 0.008210 1.059057
Cr5   Cr    Cr6+3 0.062880 0.375170 0.998920 1.183679
Cr6   Cr    Cr6+3 0.374700 0.061720 0.992470 1.108335
O26   O     O_3   0.166667 0.166667 0.999870 -0.327889
N1    N     N_R   0.058444 0.513786 0.194206 0.016952
O27   O     O_R   0.126158 0.379616 0.201145 -0.387517
O28   O     O_R   0.012477 0.572994 0.131880 -0.366617
N2    N     N_R   0.813082 0.117260 0.323799 0.049739
O29   O     O_R   0.787898 0.042928 0.279859 -0.437496
O30   O     O_R   0.845014 0.074568 0.390068 -0.362317
N3    N     N_R   0.964682 0.459803 0.342651 -0.194178
O31   O     O_R   0.039319 0.400631 0.400055 -0.000002
O32   O     O_R   0.039320 0.400631 0.400054 -0.000002
N4    N     N_R   0.581658 0.767749 0.314939 0.054650
O33   O     O_R   0.674759 0.640437 0.309221 -0.354301
O34   O     O_R   0.603597 0.846970 0.357439 -0.357121
N5    N     N_R   0.499266 0.688198 0.174755 0.057482
O35   O     O_R   0.550173 0.568741 0.207252 -0.356685
O36   O     O_R   0.501873 0.689957 0.105070 -0.274125
N6    N     N_R   0.075653 0.350167 0.787205 0.054326
O37   O     O_R   0.960642 0.467530 0.788479 -0.341548
O38   O     O_R   0.074277 0.234553 0.789070 -0.394132
C61   C     C_2   0.111749 0.358612 0.637075 0.281512
H19   H     H_    0.007148 0.392912 0.654111 0.191933
O39   O     O_2   0.139580 0.325574 0.574557 -0.488759
C62   C     C_2   0.641809 0.588383 0.862944 0.279880
H20   H     H_    0.614426 0.688064 0.841608 0.171116
O40   O     O_2   0.618248 0.576299 0.925623 -0.448382
C63   C     C_2   0.870453 0.078477 0.821920 0.292135
H21   H     H_    0.846899 0.059893 0.875391 0.135423
O41   O     O_2   0.935003 0.979692 0.783190 -0.459222
C64   C     C_2   0.159660 0.704947 0.696725 0.312024
H22   H     H_    0.182632 0.602317 0.712176 0.068141
O42   O     O_2   0.055264 0.778086 0.661028 -0.394920
C65   C     C_2   0.218982 0.684863 0.846943 0.272221
H23   H     H_    0.133816 0.668742 0.832464 0.151103
O43   O     O_2   0.281519 0.634089 0.903340 -0.455233
C66   C     C_2   0.453494 0.970859 0.803825 0.339010
H24   H     H_    0.425354 0.069021 0.778794 0.142495
O44   O     O_2   0.551345 0.919751 0.846067 -0.463102
C67   C     C_2   0.432750 0.946935 0.654160 0.247046
H25   H     H_    0.374924 0.996768 0.605195 0.146149
O45   O     O_2   0.544771 0.938946 0.664328 -0.460625
C68   C     C_2   0.856155 0.961566 0.014172 0.233719
H26   H     H_    0.854775 0.055717 0.999745 0.118654
O46   O     O_2   0.930363 0.855662 0.981902 -0.468118

loop_
_geom_bond_atom_site_label_1
_geom_bond_atom_site_label_2
_geom_bond_distance
_ccdc_geom_bond_type
O6    C3    1.261574 A    
C28   H12   1.066452 S    
C31   N4    1.414975 S    
H1    C12   1.076102 S    
C41   C42   1.398379 A    
N1    O27   1.303040 A    
C17   H2    1.075696 S    
C43   C48   1.399277 A    
C53   C54   1.388859 A    
N2    O29   1.295592 A    
O15   C55   1.291383 A    
C52   C66   1.486731 S    
N5    O35   1.300878 A    
O4    Cr2   1.981571 S    
C44   C45   1.407252 A    
N4    O33   1.281957 A    
O8    Cr1   1.972896 S    
C34   H13   1.071767 S    
C53   C67   1.500273 S    
C49   C50   1.392055 A    
C67   O45   1.221417 D    
C20   C21   1.380679 A    
O15   Cr4   1.977000 S    
C38   H16   1.084216 S    
N3    O32   1.301549 A    
C31   C36   1.393075 A    
O4    C2    1.323770 A    
N5    O36   1.299546 A    
C5    O11   1.269933 A    
C14   C23   1.352060 A    
C11   C56   1.489522 S    
C3    C30   1.478108 S    
C38   C39   1.384586 A    
C34   C35   1.406391 A    
O16   Cr5   2.076300 S    
C67   H25   1.085776 S    
C11   C18   1.374335 A    
C26   C27   1.389387 A    
C62   H20   1.068510 S    
C14   H6    1.060098 S    
C7    C8    1.397833 A    
O23   Cr5   1.954016 S    
C63   H21   1.078168 S    
O22   Cr5   2.085839 S    
C22   N1    1.407252 S    
C49   C54   1.433607 A    
C31   C32   1.395436 A    
Cr3   O13   2.018706 S    
O24   Cr6   2.057118 S    
C19   C24   1.432756 A    
C33   C34   1.411769 A    
C18   H8    1.085164 S    
N4    O34   1.301708 A    
O12   C6    1.319174 A    
C16   C17   1.395279 A    
C41   C61   1.493608 S    
O1    Cr1   2.091472 S    
C25   N2    1.434833 S    
C4    C54   1.447153 S    
C25   C26   1.404625 A    
O10   Cr2   1.940255 S    
C19   C23   1.451311 S    
Cr1   O13   2.020627 S    
O1    C3    1.317036 A    
C8    C9    1.402656 A    
C66   O44   1.220587 D    
O18   Cr6   2.102396 S    
C55   O16   1.292096 A    
C37   C42   1.400166 A    
C45   C46   1.425182 A    
C40   C41   1.399324 A    
C9    C10   1.405824 A    
C51   C52   1.446814 A    
C2    C24   1.517600 S    
O12   Cr3   1.968005 S    
C7    H4    1.081054 S    
C37   H15   1.073776 S    
O14   C57   1.301766 A    
C32   C33   1.403155 A    
C37   C38   1.371944 A    
C44   C62   1.470822 S    
C35   C36   1.398151 A    
C32   N5    1.446955 S    
C43   H17   1.083848 S    
C12   C13   1.393547 A    
C20   H9    1.080375 S    
C10   C16   1.395885 A    
C14   C15   1.392852 A    
O7    Cr1   2.067862 S    
C7    C17   1.390239 A    
O19   C57   1.326891 A    
O14   Cr4   2.064932 S    
O6    Cr3   1.953632 S    
C56   O18   1.258812 A    
N1    O28   1.298065 A    
C25   C30   1.430266 A    
C15   C20   1.390179 A    
C50   C51   1.395605 A    
C43   C44   1.400460 A    
O19   Cr6   1.938641 S    
C8    C68   1.467752 S    
C47   C48   1.396924 A    
Cr2   O13   2.019291 S    
C10   C13   1.484218 S    
C28   C29   1.398846 A    
C45   C58   1.490149 S    
C16   H7    1.075881 S    
Cr4   O26   2.016143 S    
C68   O46   1.221483 D    
C1    C36   1.489395 S    
C1    O3    1.309545 A    
C64   O42   1.221261 D    
C9    H5    1.084266 S    
C22   C23   1.389634 A    
O21   Cr4   1.947924 S    
C26   H11   1.077400 S    
C29   N3    1.430689 S    
C61   H19   1.084270 S    
O25   C60   1.257987 A    
C63   O41   1.220236 D    
C39   C59   1.439743 S    
C27   C28   1.383639 A    
N6    O38   1.299617 A    
O9    Cr2   2.100856 S    
C12   C24   1.398408 A    
O2    Cr1   1.947891 S    
C52   C53   1.392370 A    
C33   C57   1.462480 S    
C47   H18   1.083601 S    
N2    O30   1.300148 A    
O8    C4    1.307038 A    
O11   Cr3   2.069905 S    
C2    O5    1.316705 A    
C21   H10   1.067750 S    
C46   C63   1.481623 S    
O17   C56   1.327890 A    
N3    O31   1.301550 A    
O20   C60   1.309257 A    
O21   C58   1.279661 A    
C66   H24   1.078507 S    
C35   H14   1.081184 S    
C65   O43   1.221508 D    
O2    C1    1.287202 A    
C39   C40   1.414216 A    
O17   Cr5   1.969674 S    
O5    Cr3   2.091181 S    
C65   H23   1.084432 S    
C29   C30   1.376567 A    
C21   C22   1.398007 A    
O25   Cr6   1.981280 S    
C50   C65   1.496717 S    
O7    C6    1.309397 A    
N6    O37   1.299481 A    
C11   C13   1.421032 A    
C58   O22   1.303148 A    
C6    C48   1.466215 S    
C15   H3    1.066639 S    
Cr5   O26   2.017970 S    
O23   C59   1.280832 A    
C64   H22   1.078214 S    
O20   Cr4   2.098409 S    
C46   C47   1.397334 A    
O3    Cr2   2.058285 S    
C27   C55   1.473387 S    
C5    C42   1.426526 S    
C4    O9    1.251505 A    
C62   O40   1.221420 D    
C40   N6    1.417311 S    
C59   O24   1.284925 A    
O10   C5    1.284296 A    
C18   C19   1.402106 A    
Cr6   O26   2.020069 S    
C49   C64   1.485869 S    
C51   C60   1.460444 S    
C68   H26   1.076139 S    
C61   O39   1.221074 D    
