data_mof_unit_18371.cif
_audit_creation_date              2012-12-10T19:45:00-0500
_audit_creation_method            fapswitch 2.2
_symmetry_space_group_name_H-M    P1
_symmetry_Int_Tables_number       1
_space_group_crystal_system       triclinic
_cell_length_a                    15.075881
_cell_length_b                    10.830361
_cell_length_c                    13.715164
_cell_angle_alpha                 90.300057
_cell_angle_beta                  89.488171
_cell_angle_gamma                 89.257854
_cell_volume                      2239.06475344

loop_
_atom_site_label
_atom_site_type_symbol
_atom_type_description
_atom_site_fract_x
_atom_site_fract_y
_atom_site_fract_z
_atom_type_partial_charge
C1    C     C_R   0.497713 0.262242 0.499653 0.797862
C2    C     C_R   0.583159 0.879337 0.664231 0.130260
C3    C     C_R   0.452317 0.105558 0.241343 -0.201348
C4    C     C_R   0.547735 0.894252 0.758615 -0.201161
C5    C     C_R   0.413288 0.165839 0.162372 -0.173116
C6    C     C_R   0.586810 0.833894 0.837523 -0.173109
C7    C     C_R   0.337325 0.240621 0.176557 0.233552
C8    C     C_R   0.662818 0.759226 0.823260 0.233597
C9    C     C_R   0.466500 0.933210 0.421512 -0.238199
C10   C     C_R   0.533478 0.066789 0.578491 -0.238177
C11   C     C_R   0.504083 0.871641 0.500892 -0.083741
C12   C     C_R   0.502280 0.737758 0.500346 0.797907
C13   C     C_R   0.495898 0.128360 0.499107 -0.083739
C14   C     C_R   0.538894 0.938845 0.580135 0.011857
C15   C     C_R   0.461096 0.061156 0.419856 0.011873
C16   C     C_R   0.328507 0.500366 0.500321 0.811724
C17   C     C_R   0.671493 0.499632 0.499678 0.811773
C18   C     C_R   0.556996 0.423765 0.792415 -0.053590
C19   C     C_R   0.443008 0.576240 0.207585 -0.053568
C20   C     C_R   0.442194 0.576676 0.793826 0.324179
C21   C     C_R   0.557801 0.423317 0.206174 0.324173
C22   C     C_R   0.441094 0.578855 0.897618 -0.049901
C23   C     C_R   0.044781 0.471384 0.676253 -0.210557
C24   C     C_R   0.558904 0.421142 0.102382 -0.049853
C25   C     C_R   0.499760 0.500200 0.948147 0.069180
C26   C     C_R   0.500242 0.499804 0.051853 0.069155
C27   C     C_R   0.557971 0.421809 0.895117 -0.018808
C28   C     C_R   0.442032 0.578196 0.104883 -0.018846
C29   C     C_R   0.383329 0.656887 0.952121 -0.219245
C30   C     C_R   0.616668 0.343109 0.047879 -0.219196
C31   C     C_R   0.383910 0.656426 0.054311 -0.204259
C32   C     C_R   0.616092 0.343577 0.945689 -0.204276
C33   C     C_R   0.815327 0.513568 0.411561 -0.245434
C34   C     C_R   0.955220 0.528582 0.323742 -0.210565
C35   C     C_R   0.184673 0.486411 0.588435 -0.245427
C36   C     C_R   0.768329 0.499037 0.499367 -0.074546
C37   C     C_R   0.231671 0.500954 0.500631 -0.074548
C38   C     C_R   0.814037 0.484134 0.587287 -0.263312
C39   C     C_R   0.185964 0.515856 0.412710 -0.263274
C40   C     C_R   0.906374 0.484768 0.588206 0.108246
C41   C     C_R   0.093626 0.515215 0.411791 0.108261
C42   C     C_R   0.953513 0.499681 0.499845 0.064655
C43   C     C_R   0.046487 0.500300 0.500152 0.064649
C44   C     C_R   0.907774 0.513944 0.411178 0.105969
C45   C     C_R   0.300428 0.252595 0.270356 -0.113657
C46   C     C_R   0.092227 0.486033 0.588818 0.105966
C47   C     C_R   0.952305 0.470762 0.675950 -0.212422
C48   C     C_R   0.047696 0.529209 0.324045 -0.212423
C49   C     C_R   0.699719 0.747449 0.729449 -0.113658
C50   C     C_R   0.339927 0.193304 0.349520 -0.153427
C51   C     C_R   0.660170 0.806802 0.650345 -0.153675
C52   C     C_R   0.416893 0.120651 0.335711 0.130242
Cu1   Cu    Cu3+1 0.500010 0.499980 0.597420 0.962337
Cu2   Cu    Cu3+1 0.499990 0.500020 0.402580 0.962314
H1    H     H_    0.780108 0.525266 0.343582 0.154526
H2    H     H_    0.661370 0.282614 0.906142 0.139483
H3    H     H_    0.777861 0.471755 0.655156 0.149497
H4    H     H_    0.222140 0.528242 0.344842 0.149484
H5    H     H_    0.916704 0.459393 0.744247 0.144382
H6    H     H_    0.083297 0.540572 0.255748 0.144374
H7    H     H_    0.079185 0.460397 0.744765 0.144695
H8    H     H_    0.920816 0.539557 0.255229 0.144693
H9    H     H_    0.241219 0.308473 0.281968 0.134548
H10   H     H_    0.758965 0.691668 0.717777 0.134596
H11   H     H_    0.311103 0.204903 0.421670 0.115112
H12   H     H_    0.219892 0.474705 0.656413 0.154527
H13   H     H_    0.688989 0.795342 0.578179 0.115153
H14   H     H_    0.511345 0.049254 0.229300 0.133015
H15   H     H_    0.488670 0.950460 0.770715 0.132947
H16   H     H_    0.442605 0.154727 0.090448 0.134551
H17   H     H_    0.557488 0.844850 0.909459 0.134550
H18   H     H_    0.317727 0.631849 0.758852 0.184112
H19   H     H_    0.394028 0.745996 0.758216 0.196252
H20   H     H_    0.682262 0.368116 0.241150 0.184100
H21   H     H_    0.605946 0.253986 0.241783 0.196300
H22   H     H_    0.299491 0.398206 0.110640 0.218201
H23   H     H_    0.438475 0.881306 0.361595 0.154159
H24   H     H_    0.332451 0.287327 0.032282 0.215981
H25   H     H_    0.700740 0.601563 0.889000 0.218146
H26   H     H_    0.667721 0.712271 0.967481 0.215997
H27   H     H_    0.561508 0.118687 0.638408 0.154157
H28   H     H_    0.601697 0.364182 0.750934 0.134502
H29   H     H_    0.398309 0.635827 0.249066 0.134508
H30   H     H_    0.337213 0.718908 0.916585 0.139192
H31   H     H_    0.662780 0.281082 0.083415 0.139181
H32   H     H_    0.338632 0.717390 0.093858 0.139497
N1    N     N_R   0.499960 0.499900 0.743810 -0.173916
N2    N     N_R   0.500040 0.500100 0.256190 -0.173928
N3    N     N_3   0.382872 0.653876 0.739672 -0.522109
N4    N     N_3   0.617114 0.346104 0.260328 -0.522110
N5    N     N_3   0.296233 0.303441 0.096590 -0.603364
N6    N     N_3   0.703946 0.696307 0.903156 -0.603374
O1    O     O_R   0.500000 0.319630 0.582270 -0.595421
O2    O     O_R   0.500000 0.680370 0.417730 -0.595432
O3    O     O_R   0.499990 0.319660 0.417730 -0.545214
O4    O     O_R   0.500010 0.680340 0.582270 -0.545193
O5    O     O_R   0.370260 0.499960 0.582280 -0.560889
O6    O     O_R   0.629740 0.500040 0.417720 -0.560898
O7    O     O_R   0.370250 0.499990 0.417740 -0.595636
O8    O     O_R   0.629750 0.500010 0.582260 -0.595608

loop_
_geom_bond_atom_site_label_1
_geom_bond_atom_site_label_2
_ccdc_geom_bond_type
C33   H1    S    
C40   C47   A    
Cu2   N2    S    
C22   C29   A    
C3    H14   S    
C39   C41   A    
Cu1   Cu2   S    
C7    C45   A    
C35   C37   A    
C24   C26   A    
C11   C14   A    
C16   O5    A    
C20   N1    A    
C34   H8    S    
C33   C36   A    
H21   N4    S    
C49   C51   A    
C22   C25   A    
C50   C52   A    
C8    N6    S    
C17   C36   S    
C30   C32   A    
C17   O6    A    
C16   C37   S    
C40   C42   A    
C21   N2    A    
C23   C46   A    
Cu1   O4    S    
C41   C43   A    
C12   O2    A    
C42   C44   A    
C19   H29   S    
C4    H15   S    
C50   H11   S    
C48   H6    S    
C21   N4    S    
Cu1   O8    S    
C6    H17   S    
C23   C47   A    
Cu1   O1    S    
C34   C44   A    
C29   H30   S    
C4    C6    A    
C19   N2    A    
C10   C14   A    
C5    C7    A    
C6    C8    A    
C35   H12   S    
Cu1   O5    S    
C25   C26   A    
C39   H4    S    
C45   H9    S    
H26   N6    S    
C2    C4    A    
C5    H16   S    
C38   H3    S    
C1    O3    A    
C7    N5    S    
Cu2   O3    S    
Cu1   N1    S    
C51   H13   S    
C15   C52   S    
C30   H31   S    
C19   C28   A    
C9    C11   A    
H25   N6    S    
C1    O1    A    
C20   C22   A    
C13   C15   A    
Cu2   O7    S    
C1    C13   S    
C42   C43   A    
C27   C32   A    
C33   C44   A    
C28   C31   A    
Cu2   O6    S    
C18   C27   A    
C3    C5    A    
C10   C13   A    
C17   O8    A    
C3    C52   A    
C16   O7    A    
H24   N5    S    
C25   C27   A    
C20   N3    S    
C10   H27   S    
C26   C28   A    
C18   N1    A    
C49   H10   S    
H20   N4    S    
C36   C38   A    
C9    H23   S    
H19   N3    S    
C29   C31   A    
C38   C40   A    
H18   N3    S    
C45   C50   A    
C18   H28   S    
C41   C48   A    
C9    C15   A    
C2    C14   S    
C43   C46   A    
C24   C30   A    
Cu2   O2    S    
C2    C51   A    
H22   N5    S    
C47   H5    S    
C23   H7    S    
C34   C48   A    
C37   C39   A    
C21   C24   A    
C31   H32   S    
C12   O4    A    
C35   C46   A    
C8    C49   A    
C32   H2    S    
C11   C12   S    
