data_mof_unit_14103.cif
_audit_creation_date              2013-03-05T16:36:14-0500
_audit_creation_method            fapswitch 2.2
_symmetry_space_group_name_H-M    P1
_symmetry_Int_Tables_number       1
_space_group_crystal_system       triclinic
_cell_length_a                    27.845921
_cell_length_b                    9.083928
_cell_length_c                    7.775093
_cell_angle_alpha                 90.53079
_cell_angle_beta                  90.054887
_cell_angle_gamma                 90.015333
_cell_volume                      1966.62705837

loop_
_atom_site_label
_atom_site_type_symbol
_atom_site_description
_atom_site_fract_x
_atom_site_fract_y
_atom_site_fract_z
_atom_type_partial_charge
O1    O     O_R   0.500000 0.288390 0.642760 -0.580322
O2    O     O_R   0.500000 0.711610 0.357240 -0.573594
O3    O     O_R   0.500000 0.711610 0.642760 -0.587527
O4    O     O_R   0.500000 0.288390 0.357240 -0.584619
C1    C     C_R   0.500077 0.219995 0.499517 0.813974
C2    C     C_R   0.500041 0.780013 0.500495 0.835363
O5    O     O_R   0.430260 0.500000 0.642770 -0.558933
O6    O     O_R   0.569740 0.500000 0.357230 -0.541091
O7    O     O_R   0.569740 0.500000 0.642770 -0.539897
O8    O     O_R   0.430260 0.500000 0.357230 -0.575653
C3    C     C_R   0.407212 0.497931 0.499768 0.902088
C4    C     C_R   0.592813 0.500745 0.500174 0.876302
Cu1   Cu    Cu3+1 0.500000 0.500000 0.669080 1.034851
Cu2   Cu    Cu3+1 0.500000 0.500000 0.330920 1.034343
C5    C     C_R   0.177983 0.365732 0.451577 0.658571
C6    C     C_R   0.824343 0.626607 0.526476 0.656067
C7    C     C_R   0.178836 0.593903 0.606239 0.653902
C8    C     C_R   0.822308 0.365100 0.506153 0.658510
O9    O     O_2   0.203102 0.257701 0.372466 -0.442344
O10   O     O_2   0.800967 0.756316 0.515747 -0.435302
O11   O     O_2   0.204771 0.704070 0.677727 -0.443584
O12   O     O_2   0.796616 0.239222 0.511265 -0.439298
N1    N     N_R   0.202159 0.481160 0.524658 -0.434034
N2    N     N_R   0.799043 0.497750 0.513417 -0.432246
C9    C     C_R   0.276582 0.558120 0.381839 0.223260
C10   C     C_R   0.722282 0.442739 0.364956 0.236835
C11   C     C_R   0.280596 0.409336 0.640333 0.206796
C12   C     C_R   0.721047 0.562091 0.647001 0.238645
C13   C     C_R   0.326947 0.556981 0.370105 0.330322
C14   C     C_R   0.671930 0.438066 0.364352 0.362965
C15   C     C_R   0.330805 0.409023 0.631101 0.315155
C16   C     C_R   0.670792 0.567869 0.640729 0.360900
C17   C     C_R   0.253589 0.483377 0.515874 0.097052
C18   C     C_R   0.747211 0.501461 0.508116 0.050721
C19   C     C_R   0.102398 0.478163 0.537003 -0.175784
C20   C     C_R   0.899094 0.489887 0.525123 -0.185856
C21   C     C_R   0.127461 0.359885 0.458447 -0.114323
C22   C     C_R   0.874460 0.623925 0.550829 -0.127325
C23   C     C_R   0.128304 0.595747 0.613786 -0.120690
C24   C     C_R   0.872720 0.359855 0.493650 -0.131814
C25   C     C_R   0.101401 0.240075 0.388705 0.506730
C26   C     C_R   0.900394 0.750532 0.600053 0.525805
C27   C     C_R   0.103012 0.710491 0.697017 0.464958
C28   C     C_R   0.897250 0.229168 0.450652 0.530781
C29   C     C_R   0.354304 0.488209 0.499952 -0.327348
C30   C     C_R   0.645857 0.502479 0.501353 -0.360820
C31   C     C_R   0.974608 0.355076 0.484233 0.014814
C32   C     C_R   0.026545 0.604544 0.601572 0.021340
C33   C     C_R   0.975940 0.613006 0.582242 0.016473
C34   C     C_R   0.025512 0.356578 0.472892 0.018725
C35   C     C_R   0.950004 0.485955 0.530623 0.076156
C36   C     C_R   0.051385 0.479375 0.537949 0.074437
C37   C     C_R   0.947409 0.227003 0.449867 -0.308020
C38   C     C_R   0.053073 0.716426 0.685050 -0.313677
C39   C     C_R   0.950395 0.744907 0.611911 -0.318142
C40   C     C_R   0.051322 0.240505 0.394757 -0.294264
H1    H     H_    0.964062 0.121570 0.426189 0.154749
H2    H     H_    0.035868 0.808545 0.748084 0.156468
H3    H     H_    0.968363 0.847645 0.639584 0.154109
H4    H     H_    0.033510 0.150153 0.330223 0.151683
C41   C     C_1   0.500097 0.065386 0.499353 -0.186476
C42   C     C_1   0.500085 0.934637 0.500705 -0.175148
N3    N     N_1   0.500000 0.500000 0.076820 -0.035535
N4    N     N_1   0.500000 0.500000 0.923180 -0.033335
O13   O     O_3   0.356866 0.334965 0.754694 -0.566774
C43   C     C_3   0.367136 0.192233 0.691834 -0.173657
H5    H     H_    0.389289 0.195655 0.572886 0.119528
H6    H     H_    0.333642 0.128369 0.667730 0.198693
H7    H     H_    0.388178 0.132938 0.790625 0.185091
O14   O     O_3   0.646071 0.632463 0.776027 -0.499280
C44   C     C_3   0.637467 0.781337 0.735840 -0.177587
H8    H     H_    0.614491 0.791838 0.619393 0.108478
H9    H     H_    0.671656 0.842871 0.718122 0.182943
H10   H     H_    0.617968 0.833541 0.844763 0.182312
O15   O     O_3   0.349555 0.635078 0.241406 -0.554199
C45   C     C_3   0.351899 0.545662 0.092052 -0.064486
H11   H     H_    0.368126 0.436024 0.117999 0.161772
H12   H     H_    0.374955 0.601198 0.996113 0.181234
H13   H     H_    0.315881 0.530819 0.033175 0.212045
O16   O     O_3   0.648316 0.374607 0.225648 -0.498756
C46   C     C_3   0.639623 0.225128 0.262603 -0.173268
H14   H     H_    0.621037 0.173890 0.150887 0.182525
H15   H     H_    0.615787 0.212943 0.376404 0.109190
H16   H     H_    0.673734 0.163831 0.282977 0.183397
Br1   Br    Br    0.248905 0.309920 0.825915 -0.395738
Br2   Br    Br    0.752826 0.637616 0.849532 -0.386018
Br3   Br    Br    0.238970 0.667646 0.219222 -0.437240
Br4   Br    Br    0.756133 0.366676 0.167288 -0.393567
O17   O     O_3   0.124339 0.125308 0.304170 -0.552159
C47   C     C_3   0.126378 0.003694 0.415510 -0.163174
H17   H     H_    0.145679 0.032191 0.536983 0.225125
H18   H     H_    0.146764 0.913875 0.351261 0.198811
H19   H     H_    0.089832 0.960668 0.444179 0.123795
O18   O     O_3   0.877052 0.881576 0.635245 -0.485725
C48   C     C_3   0.875219 0.903071 0.814930 -0.199660
H20   H     H_    0.911651 0.922531 0.869328 0.107354
H21   H     H_    0.857628 0.808657 0.880115 0.172735
H22   H     H_    0.853380 0.002664 0.842319 0.208720
O19   O     O_3   0.126910 0.823956 0.780501 -0.562266
C49   C     C_3   0.124788 0.799768 0.959242 -0.146977
H23   H     H_    0.139571 0.689908 0.993508 0.181158
H24   H     H_    0.087474 0.811658 0.008388 0.118833
H25   H     H_    0.147169 0.884275 0.024839 0.238058
O20   O     O_3   0.872284 0.101893 0.410374 -0.477817
C50   C     C_3   0.873317 0.079763 0.230701 -0.194820
H26   H     H_    0.858637 0.176548 0.161196 0.167822
H27   H     H_    0.850283 0.983719 0.198500 0.209941
H28   H     H_    0.910250 0.054109 0.185109 0.106764

loop_
_geom_bond_atom_site_label_1
_geom_bond_atom_site_label_2
_geom_bond_distance
_ccdc_geom_bond_type
C43   H6    1.113052 S    
C39   H3    1.078624 S    
C25   O17   1.383953 S    
C48   H20   1.112206 S    
C45   H13   1.109749 S    
O3    C2    1.273717 A    
C46   H14   1.109272 S    
C28   O20   1.382207 S    
C48   H22   1.109328 S    
C11   C17   1.401877 A    
C32   C38   1.409370 A    
C50   H27   1.109321 S    
C7    N1    1.364596 A    
C8    N2    1.368976 A    
C19   C21   1.415481 A    
C27   O19   1.383096 S    
C22   C26   1.407687 A    
C32   C36   1.416557 A    
C43   H7    1.109245 S    
C9    Br3   1.925283 S    
C7    C23   1.408492 A    
C11   Br1   1.924183 S    
O7    Cu1   1.952911 S    
C5    C21   1.408913 A    
C20   C24   1.410088 A    
C8    C24   1.408009 A    
C5    O9    1.349317 S    
C28   C37   1.396905 A    
C10   C18   1.411630 A    
N1    C17   1.433934 S    
C34   C36   1.416911 A    
O14   C44   1.411297 S    
C41   C42   1.187862 T    
O3    Cu1   1.934996 S    
O6    C4    1.283177 A    
C31   C37   1.411347 A    
C14   O16   1.383693 S    
C5    N1    1.365057 A    
C43   H5    1.112857 S    
C12   C18   1.410998 A    
C6    N2    1.368942 A    
C26   O18   1.381712 S    
Cu1   Cu2   2.629226 S    
C21   C25   1.411728 A    
O2    C2    1.270381 A    
O20   C50   1.409846 S    
C46   H15   1.112921 S    
O5    C3    1.283248 A    
C31   C34   1.420352 A    
C9    C13   1.405543 A    
C50   H28   1.112185 S    
C11   C15   1.400042 A    
C12   C16   1.401220 A    
C45   H11   1.113800 S    
C4    C30   1.477158 S    
O8    Cu2   1.952914 S    
C44   H9    1.113179 S    
C37   H1    1.078585 S    
O16   C46   1.411426 S    
C16   O14   1.383806 S    
C33   C35   1.416016 A    
C33   C39   1.410846 A    
C49   H25   1.108926 S    
C34   C40   1.409511 A    
C40   H4    1.078469 S    
C13   C29   1.414313 A    
C19   C23   1.415845 A    
O15   C45   1.412512 S    
C25   C40   1.395343 A    
C26   C39   1.396260 A    
C27   C38   1.394686 A    
C47   H18   1.109388 S    
O19   C49   1.410293 S    
O5    Cu1   1.952524 S    
C6    O10   1.349489 S    
C49   H24   1.112358 S    
C1    C41   1.404444 S    
C20   C35   1.418704 A    
C32   C33   1.419166 A    
C10   C14   1.402739 A    
C12   Br2   1.926237 S    
O1    C1    1.270270 A    
C3    C29   1.475890 S    
O1    Cu1   1.931227 S    
C46   H16   1.113090 S    
C47   H19   1.113506 S    
C38   H2    1.078442 S    
C15   O13   1.383306 S    
O6    Cu2   1.952521 S    
C8    O12   1.349578 S    
C16   C30   1.412682 A    
C14   C30   1.412194 A    
C45   H12   1.109415 S    
O4    C1    1.273755 A    
C44   H10   1.109272 S    
C31   C35   1.416307 A    
C48   H21   1.113845 S    
C13   O15   1.383850 S    
C50   H26   1.113864 S    
C2    C42   1.404576 S    
C20   C22   1.410401 A    
C44   H8    1.112958 S    
C47   H17   1.114578 S    
Cu1   N4    1.975650 S    
Cu2   N3    1.975650 S    
C49   H23   1.114134 S    
O4    Cu2   1.934997 S    
O18   C48   1.409829 S    
O2    Cu2   1.931226 S    
O7    C4    1.282010 A    
N2    C18   1.444259 S    
O8    C3    1.281493 A    
N3    N4    1.194566 T    
C24   C28   1.407535 A    
C23   C27   1.410680 A    
C10   Br4   1.926499 S    
O13   C43   1.410835 S    
C15   C29   1.414204 A    
C9    C17   1.403965 A    
C19   C36   1.420564 A    
O17   C47   1.410929 S    
C6    C22   1.408391 A    
C7    O11   1.349257 S    
