data_mof_unit_57552.cif
_audit_creation_date              2012-10-26T18:52:46-0400
_audit_creation_method            fapswitch 2.2
_symmetry_space_group_name_H-M    P1
_symmetry_Int_Tables_number       1
_space_group_crystal_system       triclinic
_cell_length_a                    10.720128
_cell_length_b                    14.699692
_cell_length_c                    14.742994
_cell_angle_alpha                 65.067719
_cell_angle_beta                  103.493133
_cell_angle_gamma                 103.029255
_cell_volume                      2027.18909782

loop_
_atom_site_label
_atom_site_type_symbol
_atom_type_description
_atom_site_fract_x
_atom_site_fract_y
_atom_site_fract_z
_atom_type_partial_charge
C1    C     C_R   0.476979 0.119717 0.312318 0.543137
C2    C     C_R   0.452676 0.359957 0.077405 0.030575
C3    C     C_R   0.424347 0.320302 0.001113 0.050821
C4    C     C_R   0.259881 0.000094 0.499987 0.545200
C5    C     C_R   0.464702 0.466402 0.049891 0.030944
C6    C     C_R   0.463140 0.532473 0.946249 0.030682
C7    C     C_R   0.432510 0.489725 0.872330 -0.141171
C8    C     C_R   0.412199 0.385616 0.899570 -0.135367
C9    C     C_R   0.475913 0.508808 0.122228 -0.140251
C10   C     C_R   0.493716 0.612908 0.094823 -0.135832
C11   C     C_R   0.502943 0.678591 0.994981 0.049727
C12   C     C_3   0.877717 0.999110 0.499807 0.047456
C13   C     C_R   0.489430 0.639157 0.919886 0.031425
C14   C     C_R   0.524992 0.783704 0.969259 -0.137412
C15   C     C_R   0.533451 0.850479 0.869479 -0.142925
C16   C     C_R   0.520578 0.880301 0.687670 0.542368
C17   C     C_R   0.504670 0.708077 0.821008 -0.136418
C18   C     C_R   0.717986 0.286054 0.666841 -0.160149
C19   C     C_R   0.683498 0.203872 0.638007 0.037579
C20   C     C_R   0.518541 0.285080 0.509136 0.033556
C21   C     C_R   0.549229 0.371728 0.534394 0.001608
C22   C     C_R   0.651015 0.369895 0.615764 0.039744
C23   C     C_3   0.957512 0.985978 0.605779 -0.236611
C24   C     C_R   0.482757 0.458875 0.483077 0.022090
C25   C     C_R   0.518872 0.542044 0.515400 0.021067
C26   C     C_R   0.620243 0.535293 0.597677 -0.145582
C27   C     C_R   0.684951 0.451219 0.646231 -0.129417
C28   C     C_R   0.739975 0.999636 0.499974 0.545754
C29   C     C_R   0.381716 0.465803 0.400547 -0.147563
C30   C     C_R   0.316846 0.549804 0.352119 -0.133816
C31   C     C_R   0.350123 0.630781 0.383117 0.039022
C32   C     C_R   0.451985 0.628972 0.464429 0.001258
C33   C     C_R   0.282357 0.714219 0.332706 -0.161448
C34   C     C_3   0.933263 0.100450 0.420008 -0.231795
C35   C     C_R   0.316104 0.795997 0.362177 0.036793
C36   C     C_R   0.482184 0.715344 0.490121 0.032404
C37   C     C_3   0.035331 0.911008 0.473580 -0.229330
C38   C     C_3   0.892462 0.910667 0.473559 -0.231773
C39   C     C_3   0.101622 0.986407 0.605801 -0.233524
C40   C     C_3   0.077390 0.100826 0.420148 -0.237559
C41   C     C_3   0.121683 0.999706 0.499912 0.047601
C42   C     C_R   0.458208 0.187273 0.204810 -0.007285
C43   C     C_R   0.522486 0.812728 0.794788 -0.007094
C44   C     C_R   0.409266 0.215390 0.027221 -0.136795
C45   C     C_R   0.425185 0.149143 0.128541 -0.142479
C46   C     C_R   0.472365 0.291780 0.178835 -0.140110
Cu1   Cu    Cu3+1 0.465900 0.918260 0.475680 0.913856
Cu2   Cu    Cu3+1 0.534100 0.081740 0.524320 0.914638
H1    H     H_    0.064747 0.837089 0.529814 0.132502
H2    H     H_    0.413281 0.068443 0.147059 0.125170
H3    H     H_    0.502697 0.318567 0.239254 0.120817
H4    H     H_    0.047446 0.918549 0.397603 0.121882
H5    H     H_    0.419454 0.534506 0.792094 0.106417
H6    H     H_    0.467184 0.463542 0.200595 0.101531
H7    H     H_    0.534252 0.814228 0.026211 0.103892
H8    H     H_    0.762359 0.449706 0.708888 0.108787
H9    H     H_    0.559658 0.721641 0.549365 0.114564
H10   H     H_    0.264533 0.860757 0.322857 0.118814
H11   H     H_    0.239668 0.551439 0.289290 0.108862
H12   H     H_    0.924150 0.165474 0.436883 0.133237
H13   H     H_    0.796168 0.283852 0.729122 0.089584
H14   H     H_    0.734510 0.138835 0.677787 0.119720
H15   H     H_    0.441225 0.278883 0.449750 0.114679
H16   H     H_    0.836293 0.918144 0.397594 0.129692
H17   H     H_    0.652260 0.593964 0.626943 0.088195
H18   H     H_    0.350081 0.407311 0.371015 0.086051
H19   H     H_    0.204085 0.716403 0.270489 0.089422
H20   H     H_    0.853581 0.836688 0.529814 0.121718
H21   H     H_    0.133107 0.914075 0.664109 0.112954
H22   H     H_    0.919168 0.913424 0.664052 0.107735
H23   H     H_    0.161733 0.049141 0.626670 0.129566
H24   H     H_    0.137035 0.165903 0.437223 0.123724
H25   H     H_    0.091244 0.111634 0.343544 0.108640
H26   H     H_    0.877288 0.111054 0.343339 0.112011
H27   H     H_    0.948920 0.048448 0.626797 0.124009
H28   H     H_    0.388815 0.356106 0.840536 0.110516
H29   H     H_    0.504685 0.682203 0.762767 0.116501
H30   H     H_    0.547145 0.931310 0.850693 0.126382
H31   H     H_    0.501386 0.642159 0.152561 0.113931
H32   H     H_    0.386081 0.184658 0.969155 0.102990
N1    N     N_R   0.585360 0.204570 0.560800 -0.232109
N2    N     N_R   0.414550 0.795430 0.439160 -0.231851
O1    O     O_R   0.455060 0.022100 0.338110 -0.505415
O2    O     O_R   0.512640 0.160150 0.379180 -0.510998
O3    O     O_R   0.288900 0.930980 0.479450 -0.508939
O4    O     O_R   0.346480 0.069030 0.520520 -0.509162
O5    O     O_R   0.487360 0.839850 0.620820 -0.510178
O6    O     O_R   0.544940 0.977900 0.661890 -0.506150
O7    O     O_R   0.653520 0.930970 0.479480 -0.510467
O8    O     O_R   0.711100 0.069020 0.520550 -0.506827

loop_
_geom_bond_atom_site_label_1
_geom_bond_atom_site_label_2
_ccdc_geom_bond_type
C7    C8    A    
C39   C41   S    
Cu2   N1    S    
C1    O2    A    
C12   C23   S    
C26   C27   A    
C29   C30   A    
C12   C28   S    
C35   H10   S    
C34   C40   S    
Cu1   O3    S    
C37   C41   S    
C5    C6    A    
C11   C14   A    
C15   H30   S    
C4    O4    A    
C4    C41   S    
C19   H14   S    
C8    H28   S    
C40   H25   S    
C18   C19   A    
C42   C46   A    
Cu1   N2    S    
C24   C29   A    
Cu1   Cu2   S    
C36   N2    A    
C16   O5    A    
Cu2   O6    S    
C28   O7    A    
Cu1   O1    S    
C9    C10   A    
C25   C32   A    
C14   H7    S    
Cu2   O8    S    
C20   N1    A    
C34   H12   S    
Cu1   O7    S    
C23   H22   S    
C17   H29   S    
C35   N2    A    
C38   H16   S    
C3    C44   A    
C44   H32   S    
C24   C25   A    
C36   H9    S    
C37   H4    S    
C27   H8    S    
C4    O3    A    
C25   C26   A    
C46   H3    S    
C2    C46   A    
Cu2   O2    S    
C42   C45   A    
Cu1   O5    S    
C17   C43   A    
C5    C9    A    
C37   C38   S    
C37   H1    S    
C31   C32   A    
C30   H11   S    
C31   C33   A    
C39   H21   S    
C16   C43   S    
C34   H26   S    
C40   C41   S    
C38   H20   S    
C3    C8    A    
C22   C27   A    
Cu2   O4    S    
C2    C5    A    
C7    H5    S    
C12   C34   S    
C32   C36   A    
C44   C45   A    
C33   H19   S    
C40   H24   S    
C18   C22   A    
C26   H17   S    
C23   H27   S    
C10   H31   S    
C18   H13   S    
C6    C7    A    
C1    O1    A    
C13   C17   A    
C20   H15   S    
C2    C3    A    
C15   C43   A    
C19   N1    A    
C6    C13   A    
C11   C13   A    
C30   C31   A    
C45   H2    S    
C23   C39   S    
C33   C35   A    
C12   C38   S    
C10   C11   A    
C29   H18   S    
C1    C42   S    
C20   C21   A    
C21   C24   A    
C16   O6    A    
C39   H23   S    
C14   C15   A    
C28   O8    A    
C9    H6    S    
C21   C22   A    
