data_mof_unit_30641.cif
_audit_creation_date              2013-03-05T16:48:05-0500
_audit_creation_method            fapswitch 2.2
_symmetry_space_group_name_H-M    P1
_symmetry_Int_Tables_number       1
_space_group_crystal_system       triclinic
_cell_length_a                    19.196765
_cell_length_b                    8.918627
_cell_length_c                    8.114465
_cell_angle_alpha                 89.925127
_cell_angle_beta                  89.999908
_cell_angle_gamma                 90.000047
_cell_volume                      1389.26652069

loop_
_atom_site_label
_atom_site_type_symbol
_atom_site_description
_atom_site_fract_x
_atom_site_fract_y
_atom_site_fract_z
_atom_type_partial_charge
O1    O     O_R   0.500000 0.285350 0.636850 -0.614450
O2    O     O_R   0.500000 0.714650 0.363150 -0.614451
O3    O     O_R   0.500000 0.714650 0.636850 -0.618741
O4    O     O_R   0.500000 0.285350 0.363150 -0.618741
C1    C     C_R   0.500000 0.218046 0.500061 0.922053
C2    C     C_R   0.500000 0.781954 0.499939 0.922040
O5    O     O_R   0.398140 0.500000 0.636920 -0.615693
O6    O     O_R   0.601860 0.500000 0.363080 -0.615689
O7    O     O_R   0.601860 0.500000 0.636920 -0.615685
O8    O     O_R   0.398140 0.500000 0.363080 -0.615691
C3    C     C_R   0.365693 0.500004 0.500000 0.956461
C4    C     C_R   0.634307 0.500001 0.499999 0.956462
Zn1   Zn    Zn3+2 0.500000 0.500000 0.682780 0.993111
Zn2   Zn    Zn3+2 0.500000 0.500000 0.317220 0.993113
C5    C     C_1   0.500000 0.065228 0.500083 -0.188519
C6    C     C_1   0.500000 0.934772 0.499917 -0.188527
N1    N     N_1   0.500000 0.500000 0.073640 -0.027237
N2    N     N_1   0.500000 0.500000 0.926360 -0.027237
C7    C     C_R   0.254712 0.634086 0.535318 0.004088
C8    C     C_R   0.745302 0.365953 0.464754 0.004084
C9    C     C_R   0.745288 0.634101 0.535224 0.004102
C10   C     C_R   0.254698 0.365972 0.464690 0.004075
C11   C     C_R   0.182040 0.632961 0.534946 0.628079
C12   C     C_R   0.817974 0.367113 0.465107 0.628113
C13   C     C_R   0.817960 0.632978 0.534851 0.628086
C14   C     C_R   0.182026 0.367131 0.465046 0.628105
C15   C     C_R   0.145886 0.500056 0.499995 -0.294596
C16   C     C_R   0.854113 0.500055 0.499981 -0.294614
C17   C     C_R   0.290566 0.500020 0.500001 -0.206181
C18   C     C_R   0.709434 0.500017 0.499996 -0.206170
N3    N     N_R   0.034542 0.414686 0.390696 -0.066701
N4    N     N_R   0.965455 0.585467 0.609258 -0.066728
N5    N     N_R   0.965457 0.414685 0.390692 -0.066723
N6    N     N_R   0.034540 0.585467 0.609262 -0.066699
C19   C     C_R   0.929863 0.500072 0.499975 0.407161
C20   C     C_R   0.070135 0.500073 0.499982 0.407137
C21   C     C_3   0.293820 0.777865 0.570296 -0.755583
H1    H     H_    0.258529 0.874147 0.593084 0.293217
H2    H     H_    0.326961 0.763424 0.681300 0.234295
H3    H     H_    0.327418 0.806818 0.463465 0.211724
C22   C     C_3   0.706210 0.222136 0.429874 -0.755631
H4    H     H_    0.741511 0.125867 0.407112 0.293241
H5    H     H_    0.672628 0.193213 0.536738 0.211764
H6    H     H_    0.673054 0.236514 0.318884 0.234266
C23   C     C_3   0.706179 0.777899 0.570107 -0.755640
H7    H     H_    0.672585 0.806795 0.463251 0.211757
H8    H     H_    0.673033 0.763514 0.681113 0.234278
H9    H     H_    0.741470 0.874191 0.592839 0.293215
C24   C     C_3   0.293789 0.222167 0.429742 -0.755568
H10   H     H_    0.327381 0.193216 0.536579 0.211728
H11   H     H_    0.258489 0.125898 0.406973 0.293246
H12   H     H_    0.326935 0.236575 0.318740 0.234283
F1    F     F_    0.146388 0.761987 0.564212 -0.597959
F2    F     F_    0.853638 0.238094 0.435914 -0.597935
F3    F     F_    0.853612 0.762018 0.564034 -0.597942
F4    F     F_    0.146363 0.238124 0.435779 -0.597952

loop_
_geom_bond_atom_site_label_1
_geom_bond_atom_site_label_2
_geom_bond_distance
_ccdc_geom_bond_type
C7    C11   1.395109 A    
N3    N5    1.326209 A    
C21   H1    1.109483 S    
C10   C17   1.409389 A    
C11   C15   1.402857 A    
C15   C20   1.454184 S    
C9    C18   1.409394 A    
N6    C20   1.354620 A    
O3    Zn1   1.949846 S    
O6    C4    1.273715 A    
C24   H12   1.110127 S    
O3    C2    1.262061 A    
C8    C22   1.513079 S    
C21   H2    1.110124 S    
O4    Zn2   1.949847 S    
C8    C18   1.409392 A    
C23   H7    1.110656 S    
C13   C16   1.402851 A    
O5    C3    1.273717 A    
C22   H5    1.110626 S    
Zn2   N1    1.976521 S    
C14   C15   1.402867 A    
O2    C2    1.262569 A    
Zn1   N2    1.976521 S    
C10   C24   1.513084 S    
O1    C1    1.262569 A    
N5    C19   1.354605 A    
C13   F3    1.360029 S    
C11   F1    1.360033 S    
C21   H3    1.110659 S    
C9    C23   1.513090 S    
C23   H8    1.110123 S    
C10   C14   1.395101 A    
O2    Zn2   1.950802 S    
C22   H6    1.110128 S    
O6    Zn2   1.990478 S    
C1    C5    1.362925 S    
O1    Zn1   1.950803 S    
O8    C3    1.273720 A    
C12   F2    1.360004 S    
C5    C6    1.163499 T    
C7    C17   1.409399 A    
N4    C19   1.354616 A    
C8    C12   1.395101 A    
O5    Zn1   1.990480 S    
C3    C17   1.442207 S    
N1    N2    1.195098 T    
C24   H10   1.110623 S    
C22   H4    1.109472 S    
C23   H9    1.109472 S    
O7    Zn1   1.990477 S    
N3    C20   1.354608 A    
C9    C13   1.395109 A    
C7    C21   1.513095 S    
C4    C18   1.442203 S    
N4    N6    1.326220 A    
O7    C4    1.273721 A    
C2    C6    1.362925 S    
C12   C16   1.402864 A    
C16   C19   1.454161 S    
O8    Zn2   1.990479 S    
O4    C1    1.262061 A    
C24   H11   1.109470 S    
C14   F4    1.360005 S    
