data_mof_unit_31082.cif
_audit_creation_date              2013-03-05T15:59:58-0500
_audit_creation_method            fapswitch 2.2
_symmetry_space_group_name_H-M    P1
_symmetry_Int_Tables_number       1
_space_group_crystal_system       triclinic
_cell_length_a                    12.610282
_cell_length_b                    13.183776
_cell_length_c                    19.171896
_cell_angle_alpha                 90.495232
_cell_angle_beta                  100.852411
_cell_angle_gamma                 83.159659
_cell_volume                      3107.75253282

loop_
_atom_site_label
_atom_site_type_symbol
_atom_site_description
_atom_site_fract_x
_atom_site_fract_y
_atom_site_fract_z
_atom_type_partial_charge
O1    O     O_R   0.366740 0.627160 0.482470 -0.570353
O2    O     O_R   0.544830 0.662520 0.505920 -0.651760
C1    C     C_R   0.439694 0.691395 0.486707 0.833156
O3    O     O_R   0.410920 0.482320 0.590130 -0.623156
O4    O     O_R   0.589010 0.517690 0.613590 -0.591240
C2    C     C_R   0.499877 0.498800 0.633887 0.835256
Zn1   Zn    Zn3+2 0.381090 0.476390 0.484340 1.002616
Zn2   Zn    Zn3+2 0.618910 0.523610 0.515660 0.975159
O5    O     O_R   0.455170 0.337480 0.494080 -0.585930
O6    O     O_R   0.633260 0.372840 0.517530 -0.686101
O7    O     O_R   0.410990 0.482310 0.386410 -0.581546
O8    O     O_R   0.589080 0.517680 0.409870 -0.616133
C3    C     C_R   0.560987 0.308578 0.506967 0.869945
C4    C     C_R   0.499567 0.501537 0.365672 0.885818
C5    C     C_R   0.406253 0.553017 0.730719 -0.156849
C6    C     C_R   0.401144 0.560560 0.802140 -0.115303
H1    H     H_    0.329972 0.602395 0.817368 0.182351
C7    C     C_R   0.488161 0.516122 0.853100 0.020158
C8    C     C_R   0.579624 0.462940 0.831911 -0.103458
C9    C     C_R   0.585230 0.453571 0.760181 -0.021636
C10   C     C_R   0.497650 0.500461 0.709317 -0.106340
N1    N     N_R   0.576075 0.496358 0.977220 -0.155705
N2    N     N_R   0.574397 0.502766 0.045931 -0.153091
C11   C     C_R   0.481570 0.538288 0.068290 0.259524
N3    N     N_R   0.389550 0.565440 0.019954 -0.141898
N4    N     N_R   0.391338 0.559102 0.950958 -0.151716
C12   C     C_R   0.484837 0.524516 0.928525 0.304051
C13   C     C_R   0.400849 0.494338 0.168652 -0.130952
C14   C     C_R   0.407551 0.480144 0.241025 -0.117475
C15   C     C_R   0.494830 0.512033 0.289260 -0.096002
C16   C     C_R   0.573197 0.560706 0.264146 -0.107018
C17   C     C_R   0.566615 0.577515 0.191790 -0.030007
C18   C     C_R   0.480937 0.540910 0.143769 -0.008997
C19   C     C_R   0.735085 0.047561 0.520034 -0.028205
H2    H     H_    0.754763 0.854469 0.466367 0.174283
C20   C     C_R   0.599065 0.199154 0.502111 -0.180015
C21   C     C_R   0.296354 0.845322 0.476946 -0.068594
C22   C     C_R   0.275599 0.951246 0.487800 -0.015166
C23   C     C_R   0.357381 0.013093 0.485684 -0.162777
C24   C     C_R   0.458905 0.972544 0.470943 0.034631
C25   C     C_R   0.481403 0.867247 0.460132 -0.020653
C26   C     C_R   0.543782 0.034011 0.474995 0.018910
C27   C     C_R   0.652255 0.988899 0.488951 0.032558
C28   C     C_R   0.672782 0.887677 0.468587 -0.246969
C29   C     C_R   0.585425 0.832340 0.443931 -0.020951
C30   C     C_R   0.524611 0.138542 0.463832 -0.076124
C31   C     C_R   0.705964 0.152812 0.533151 -0.114055
C32   C     C_R   0.403226 0.801623 0.470241 -0.143718
C33   C     C_R   0.111988 0.310123 0.434280 -0.078650
H3    H     H_    0.269413 0.315293 0.407605 0.184561
H4    H     H_    0.914611 0.259598 0.441720 0.121441
N5    N     N_R   0.222200 0.444680 0.463280 -0.121424
C34   C     C_R   0.799984 0.632715 0.582494 0.061384
C35   C     C_R   0.906765 0.650027 0.608344 -0.206140
C36   C     C_R   0.993134 0.588591 0.588201 -0.011211
C37   C     C_R   0.970866 0.513334 0.535838 -0.062145
C38   C     C_R   0.860936 0.492587 0.513740 0.219716
C39   C     C_R   0.052704 0.458328 0.503042 -0.024929
C40   C     C_R   0.033967 0.363438 0.470219 0.103665
C41   C     C_R   0.932626 0.330713 0.467048 -0.169698
C42   C     C_R   0.844797 0.401957 0.473575 -0.049955
C43   C     C_R   0.148838 0.498181 0.496616 -0.009934
C44   C     C_R   0.206081 0.354323 0.432041 0.036057
N6    N     N_R   0.776960 0.554780 0.536340 -0.147780
H5    H     H_    0.166996 0.571756 0.517132 0.139349
H6    H     H_    0.339752 0.590322 0.691958 0.179621
C45   C     C_2   0.846726 0.995552 0.545128 0.497727
H7    H     H_    0.890730 0.954858 0.507907 0.025489
O9    O     O_2   0.888316 0.994388 0.608045 -0.491024
C46   C     C_2   0.444194 0.177131 0.399397 0.402114
H8    H     H_    0.376565 0.135369 0.378052 0.119457
O10   O     O_2   0.457617 0.251535 0.366015 -0.571735
C47   C     C_2   0.206378 0.782015 0.475364 0.396974
H9    H     H_    0.162950 0.783767 0.519239 0.065420
O11   O     O_2   0.177086 0.731168 0.423296 -0.520685
H10   H     H_    0.342371 0.093526 0.497371 0.172446
C48   C     C_2   0.170008 0.998203 0.504340 0.415435
H11   H     H_    0.097780 0.959446 0.491623 0.053764
O12   O     O_2   0.162808 0.080678 0.533668 -0.548049
C49   C     C_2   0.601794 0.747333 0.395083 0.508574
H12   H     H_    0.531903 0.716333 0.364511 0.010412
O13   O     O_2   0.693281 0.712347 0.388094 -0.551720
C50   C     C_2   0.097787 0.211314 0.397220 0.437184
H13   H     H_    0.039152 0.162888 0.407921 0.088322
O14   O     O_2   0.153797 0.181347 0.353946 -0.582463
C51   C     C_2   0.715847 0.692794 0.614157 0.511958
H14   H     H_    0.666356 0.757621 0.585726 0.070152
O15   O     O_2   0.706606 0.674593 0.674908 -0.541609
C52   C     C_2   0.103091 0.593250 0.631736 0.373124
H15   H     H_    0.164351 0.527309 0.635921 0.072284
O16   O     O_2   0.125934 0.670124 0.664369 -0.566416
H16   H     H_    0.922445 0.707807 0.648402 0.216054
C53   C     C_2   0.760469 0.395841 0.410986 0.521617
H17   H     H_    0.703519 0.339822 0.408108 0.071022
O17   O     O_2   0.764536 0.443231 0.357385 -0.546682
H18   H     H_    0.646010 0.426664 0.871341 0.196601
C54   C     C_2   0.679882 0.390751 0.739655 0.475244
H19   H     H_    0.676714 0.366629 0.685502 0.037151
O18   O     O_2   0.762112 0.364054 0.783343 -0.530826
H20   H     H_    0.335314 0.465501 0.131921 0.169016
H21   H     H_    0.345297 0.442937 0.259060 0.191276
H22   H     H_    0.638747 0.587655 0.300872 0.262898
C55   C     C_2   0.647199 0.636135 0.167631 0.458174
H23   H     H_    0.634408 0.663571 0.113185 0.078050
O19   O     O_2   0.728500 0.655795 0.208614 -0.498607
C56   C     C_2   0.785492 0.213287 0.577333 0.487412
H24   H     H_    0.757793 0.274539 0.609534 0.071058
O20   O     O_2   0.882935 0.196178 0.578027 -0.519040

loop_
_geom_bond_atom_site_label_1
_geom_bond_atom_site_label_2
_geom_bond_distance
_ccdc_geom_bond_type
C39   C43   1.403539 A    
C36   C37   1.419179 A    
C53   H17   1.083947 S    
C33   C44   1.390543 A    
C47   H9    1.085424 S    
C8    C9    1.393917 A    
C54   H19   1.078109 S    
C48   H11   1.084070 S    
Zn1   O7    1.987307 S    
N4    C12   1.357390 A    
C21   C22   1.410813 A    
O4    C2    1.307617 A    
C13   C14   1.387077 A    
Zn1   N5    2.060189 S    
C15   C16   1.398491 A    
C34   N6    1.371719 A    
C51   O15   1.220784 D    
C56   H24   1.077334 S    
C5    C6    1.385017 A    
C1    C32   1.488981 S    
C37   C38   1.429381 A    
C20   C31   1.432690 A    
C7    C8    1.402049 A    
C26   C30   1.381918 A    
O5    C3    1.320291 A    
C9    C54   1.483647 S    
C16   C17   1.392081 A    
C6    H1    1.083011 S    
N2    C11   1.352113 A    
C20   C30   1.402771 A    
C34   C51   1.468186 S    
C52   O16   1.221592 D    
C13   H20   1.083722 S    
C24   C26   1.408027 A    
C40   C41   1.387300 A    
C53   O17   1.219674 D    
H3    C44   1.077448 S    
C47   O11   1.221008 D    
C4    C15   1.461984 S    
O3    Zn1   1.994534 S    
C54   O18   1.221390 D    
C48   O12   1.221411 D    
C19   C27   1.412208 A    
C45   H7    1.084678 S    
C16   H22   1.073193 S    
C11   N3    1.354731 A    
C3    C20   1.473058 S    
O3    C2    1.307626 A    
C23   C24   1.405449 A    
C51   H14   1.081643 S    
C39   C40   1.420440 A    
C34   C35   1.389539 A    
C2    C10   1.451604 S    
O6    C3    1.304175 A    
C41   C42   1.388130 A    
O1    C1    1.313906 A    
C27   C28   1.395357 A    
C35   H16   1.085239 S    
C14   C15   1.401255 A    
C50   H13   1.080855 S    
Zn2   O8    1.994534 S    
C31   C56   1.489240 S    
C17   C55   1.488259 S    
C14   H21   1.083201 S    
C55   O19   1.221500 D    
C23   H10   1.083770 S    
C21   C32   1.429578 A    
H2    C28   1.081977 S    
C46   H8    1.083722 S    
Zn2   N6    2.047696 S    
C49   O13   1.221504 D    
C24   C25   1.404961 A    
C50   O14   1.221385 D    
O8    C4    1.315825 A    
C13   C18   1.399553 A    
N1    C12   1.353841 A    
C26   C27   1.402686 A    
C28   C29   1.399513 A    
C38   N6    1.393290 A    
Zn1   O5    1.947851 S    
C21   C47   1.482244 S    
C35   C36   1.390772 A    
C43   H5    1.077233 S    
O1    Zn1   1.974376 S    
Zn2   O6    1.974376 S    
O2    Zn2   1.947849 S    
C7    C12   1.457407 S    
C49   H12   1.083742 S    
N5    C44   1.348548 A    
C19   C45   1.484689 S    
O4    Zn2   1.987306 S    
C38   C42   1.430049 A    
H4    C41   1.080624 S    
C22   C48   1.488623 S    
C11   C18   1.448684 S    
C33   C40   1.420890 A    
C17   C18   1.410591 A    
C33   C50   1.491827 S    
O2    C1    1.317817 A    
N3    N4    1.328962 A    
C36   C52   1.485485 S    
N5    C43   1.349539 A    
C5    H6    1.082015 S    
C22   C23   1.395239 A    
C56   O20   1.220170 D    
O7    C4    1.306295 A    
C25   C32   1.426877 A    
C37   C39   1.429840 A    
C29   C49   1.474843 S    
C42   C53   1.454465 S    
C30   C46   1.493141 S    
C5    C10   1.399911 A    
C9    C10   1.412474 A    
C6    C7    1.398184 A    
C55   H23   1.084280 S    
C25   C29   1.426923 A    
N1    N2    1.323285 A    
C46   O10   1.221346 D    
C19   C31   1.425098 A    
C45   O9    1.220855 D    
C52   H15   1.084827 S    
C8    H18   1.083318 S    
