data_mof_unit_10844.cif
_audit_creation_date              2012-12-10T21:00:35-0500
_audit_creation_method            fapswitch 2.2
_symmetry_space_group_name_H-M    P1
_symmetry_Int_Tables_number       1
_space_group_crystal_system       triclinic
_cell_length_a                    18.073218
_cell_length_b                    18.186884
_cell_length_c                    18.448607
_cell_angle_alpha                 120.013579
_cell_angle_beta                  90.015662
_cell_angle_gamma                 119.52028
_cell_volume                      4317.25802521

loop_
_atom_site_label
_atom_site_type_symbol
_atom_type_description
_atom_site_fract_x
_atom_site_fract_y
_atom_site_fract_z
_atom_type_partial_charge
C1    C     C_R   0.111173 0.220327 0.609474 0.820823
C2    C     C_3   0.449870 0.896764 0.947567 -0.046387
C3    C     C_3   0.260363 0.224220 0.957944 -0.745966
C4    C     C_2   0.094503 0.416202 0.410064 0.972239
C5    C     C_2   0.902740 0.580275 0.590007 0.934997
C6    C     C_2   0.743493 0.775381 0.868669 0.934007
C7    C     C_2   0.275272 0.243160 0.151720 0.895614
C8    C     C_3   0.043264 0.883604 0.881745 -0.648285
C9    C     C_3   0.010457 0.129344 0.068300 -0.696010
C10   C     C_2   0.202707 0.883895 0.972770 0.915593
C11   C     C_2   0.818485 0.107536 0.007111 0.930841
C12   C     C_3   0.196317 0.779519 0.114306 -0.810589
C13   C     C_3   0.450533 0.033240 0.041256 -0.175049
C14   C     C_3   0.757777 0.222713 0.944427 -0.620214
C15   C     C_2   0.871923 0.612571 0.791587 0.932218
C16   C     C_2   0.133963 0.407387 0.225702 0.917237
C17   C     C_2   0.871551 0.287828 0.358124 0.989599
C18   C     C_2   0.126416 0.709926 0.641238 0.959575
C19   C     C_3   0.523332 0.128186 0.892837 -0.798278
C20   C     C_3   0.471027 0.869390 0.106654 -0.804867
C21   C     C_3   0.549675 0.966613 0.958091 -0.236849
C22   C     C_3   0.456745 0.409982 0.491277 -0.188375
C23   C     C_3   0.543219 0.590615 0.508883 -0.187615
C24   C     C_3   0.560203 0.486715 0.523489 -0.172919
C25   C     C_3   0.439797 0.513982 0.476808 -0.169224
C26   C     C_3   0.549857 0.499348 0.448622 0.054550
C27   C     C_3   0.450127 0.501213 0.551530 0.053039
C28   C     C_3   0.447173 0.422587 0.415571 -0.122419
C29   C     C_R   0.890327 0.779859 0.390333 0.818977
C30   C     C_3   0.552731 0.578053 0.584591 -0.129487
C31   C     C_R   0.048001 0.158006 0.832594 -0.225295
C32   C     C_R   0.814355 0.809374 0.184682 -0.154169
C33   C     C_R   0.392650 0.781026 0.888437 0.809763
C34   C     C_R   0.607354 0.218893 0.111319 0.803003
C35   C     C_R   0.070241 0.137734 0.755229 -0.065236
C36   C     C_R   0.852264 0.861166 0.275490 -0.096119
C37   C     C_R   0.006868 0.096953 0.678637 0.141309
C38   C     C_R   0.941888 0.899037 0.311020 0.163722
C39   C     C_R   0.921816 0.077566 0.680675 -0.263274
C40   C     C_3   0.938537 0.399766 0.431855 -0.118552
C41   C     C_R   0.994255 0.889301 0.255356 -0.176773
C42   C     C_R   0.898051 0.092893 0.756724 0.253766
C43   C     C_R   0.958193 0.844356 0.165424 0.257177
C44   C     C_R   0.961699 0.133630 0.832827 -0.131740
C45   C     C_R   0.867146 0.800815 0.129692 -0.115125
C46   C     C_R   0.977876 0.946170 0.538574 0.141359
C47   C     C_R   0.043430 0.054221 0.460848 0.161251
C48   C     C_R   0.950212 0.892500 0.445589 -0.156026
C49   C     C_R   0.057652 0.108117 0.553341 -0.144604
C50   C     C_R   0.979846 0.948026 0.406810 -0.081948
C51   C     C_3   0.059378 0.597963 0.567884 -0.109631
C52   C     C_R   0.019365 0.052413 0.590901 -0.092389
C53   C     C_R   0.581910 0.485109 0.728828 -0.180579
C54   C     C_R   0.418443 0.533592 0.275714 -0.200144
C55   C     C_R   0.543411 0.464107 0.787546 0.231876
C56   C     C_R   0.455786 0.549762 0.214015 0.240912
C57   C     C_R   0.110889 0.501239 0.889713 0.824771
C58   C     C_R   0.890783 0.500655 0.111928 0.798831
C59   C     C_R   0.573517 0.546887 0.877532 0.019439
C60   C     C_R   0.429682 0.462797 0.127726 -0.028223
C61   C     C_R   0.638215 0.650009 0.906088 0.149332
C62   C     C_3   0.427960 0.964651 0.938816 -0.161646
C63   C     C_R   0.369418 0.361264 0.105093 0.186088
C64   C     C_R   0.675851 0.669615 0.844943 -0.015580
C65   C     C_R   0.334404 0.347189 0.169219 0.008934
C66   C     C_R   0.647226 0.585755 0.757155 -0.239885
C67   C     C_R   0.357990 0.434210 0.253036 -0.240217
C68   C     C_R   0.586412 0.526335 0.998343 -0.260739
C69   C     C_R   0.415393 0.479054 0.004717 -0.270597
C70   C     C_R   0.551407 0.501614 0.056593 -0.045566
C71   C     C_R   0.449561 0.501604 0.945297 -0.038555
C72   C     C_R   0.465667 0.478764 0.060785 -0.000794
C73   C     C_3   0.572159 0.034920 0.060757 -0.213976
C74   C     C_R   0.536055 0.526521 0.942165 0.033383
C75   C     C_R   0.117818 0.782427 0.939047 -0.139750
C76   C     C_R   0.899377 0.214654 0.048040 -0.054809
C77   C     C_R   0.113306 0.723997 0.970759 0.164220
C78   C     C_R   0.902844 0.275963 0.020442 0.132620
C79   C     C_R   0.031696 0.628515 0.938964 0.103905
C80   C     C_R   0.975246 0.380704 0.067992 0.057705
C81   C     C_R   0.392572 0.500398 0.608062 0.781675
C82   C     C_R   0.607410 0.499749 0.391979 0.776767
C83   C     C_R   0.955409 0.595048 0.880629 -0.281801
C84   C     C_3   0.527322 0.034891 0.951166 0.241219
C85   C     C_R   0.045241 0.422280 0.138676 -0.242127
C86   C     C_R   0.958029 0.652083 0.849645 -0.052564
C87   C     C_R   0.048920 0.360107 0.160015 -0.078384
C88   C     C_R   0.040747 0.745191 0.876485 0.133238
C89   C     C_R   0.975017 0.254747 0.114003 0.109549
C90   C     C_R   0.967144 0.561501 0.025235 -0.289824
C91   C     C_R   0.040468 0.447543 0.982216 -0.292222
C92   C     C_R   0.949012 0.501256 0.057174 -0.049422
C93   C     C_R   0.056890 0.505763 0.948504 -0.041233
C94   C     C_R   0.987108 0.444325 0.035939 0.028260
C95   C     C_3   0.472341 0.964630 0.048256 0.239652
C96   C     C_R   0.020718 0.565156 0.971559 0.069062
C97   C     C_R   0.393811 0.500089 0.888660 0.794189
C98   C     C_R   0.606314 0.500898 0.112089 0.809190
C99   C     C_R   0.110238 0.501823 0.608550 0.945104
C100  C     C_R   0.889087 0.497495 0.391406 0.931504
C101  C     C_3   0.041891 0.458261 0.454605 -0.131791
C102  C     C_3   0.955987 0.539368 0.545112 -0.125692
C103  C     C_3   0.048872 0.553116 0.468993 -0.131614
C104  C     C_3   0.949199 0.444518 0.530699 -0.141085
C105  C     C_3   0.945753 0.494965 0.446419 -0.152134
C106  C     C_3   0.550284 0.102990 0.051882 -0.049626
C107  C     C_3   0.052400 0.503023 0.553349 -0.158289
C108  C     C_2   0.105694 0.613486 0.434405 0.977924
C109  C     C_2   0.893310 0.383771 0.565445 0.990215
C110  C     C_3   0.750179 0.955773 0.728027 -0.653135
C111  C     C_3   0.032225 0.920660 0.090679 -0.776899
C112  C     C_3   0.037508 0.891053 0.602249 -0.603878
C113  C     C_3   0.180485 0.138261 0.429334 -0.730106
C114  C     C_3   0.395505 0.306453 0.686996 -0.783295
C115  C     C_3   0.555184 0.740856 0.327089 -0.810110
C116  C     C_3   0.618316 0.783089 0.011124 -0.680706
H1    H     H_    0.943970 0.144481 0.891576 0.156855
H2    H     H_    0.330444 0.425367 0.302335 0.209097
H3    H     H_    0.562437 0.422772 0.660633 0.158372
H4    H     H_    0.434923 0.597389 0.341932 0.161740
H5    H     H_    0.652403 0.543286 0.995057 0.165930
H6    H     H_    0.350098 0.464007 0.009025 0.167559
H7    H     H_    0.892596 0.523570 0.860204 0.193828
H8    H     H_    0.101289 0.502377 0.172006 0.196775
H9    H     H_    0.938979 0.606327 0.041582 0.182315
H10   H     H_    0.068712 0.402826 0.966202 0.181575
H11   H     H_    0.371518 0.936235 0.886302 0.195469
H12   H     H_    0.838183 0.761703 0.059465 0.139179
H13   H     H_    0.630456 0.062949 0.111140 0.171625
H14   H     H_    0.412271 0.063072 0.077460 0.230153
H15   H     H_    0.590125 0.939747 0.922757 0.184940
H16   H     H_    0.610433 0.475214 0.541348 0.158231
H17   H     H_    0.389774 0.526303 0.460081 0.161239
H18   H     H_    0.420348 0.336019 0.485249 0.132862
H19   H     H_    0.579525 0.664630 0.515002 0.132887
H20   H     H_    0.404762 0.358166 0.345474 0.166808
H21   H     H_    0.594770 0.643037 0.654604 0.182085
H22   H     H_    0.110552 0.656724 0.351996 0.341463
H23   H     H_    0.096293 0.188968 0.891580 0.145334
H24   H     H_    0.890152 0.342234 0.648911 0.340992
H25   H     H_    0.780306 0.075947 0.719580 0.213635
H26   H     H_    0.683961 0.939551 0.735684 0.243125
H27   H     H_    0.779786 0.943031 0.769810 0.291517
H28   H     H_    0.739645 0.901304 0.657457 0.199326
H29   H     H_    0.073067 0.859361 0.136656 0.212276
H30   H     H_    0.080603 0.925051 0.053955 0.228674
H31   H     H_    0.062311 0.999246 0.152171 0.265372
H32   H     H_    0.969167 0.895151 0.048671 0.264765
H33   H     H_    0.935365 0.912133 0.630067 0.233230
H34   H     H_    0.744215 0.776498 0.157284 0.157915
H35   H     H_    0.021333 0.850566 0.635005 0.288836
H36   H     H_    0.098671 0.970689 0.648664 0.198659
H37   H     H_    0.051298 0.849195 0.541370 0.249835
H38   H     H_    0.070359 0.150035 0.417884 0.277624
H39   H     H_    0.203751 0.163976 0.385539 0.246038
H40   H     H_    0.186981 0.073872 0.410337 0.220781
H41   H     H_    0.224669 0.203400 0.498739 0.238794
H42   H     H_    0.465406 0.344711 0.803431 0.227427
H43   H     H_    0.348992 0.226190 0.667581 0.237486
H44   H     H_    0.410259 0.302367 0.627189 0.230701
H45   H     H_    0.135425 0.150872 0.754146 0.129836
H46   H     H_    0.361356 0.346660 0.711054 0.224997
H47   H     H_    0.510853 0.663706 0.189158 0.235841
H48   H     H_    0.609443 0.810891 0.332630 0.244889
H49   H     H_    0.584820 0.731902 0.372414 0.237414
H50   H     H_    0.501388 0.751707 0.346784 0.251523
H51   H     H_    0.731339 0.782438 0.028866 0.265228
H52   H     H_    0.649401 0.851851 0.080904 0.226161
H53   H     H_    0.546653 0.730710 0.000759 0.251050
H54   H     H_    0.623814 0.808603 0.966643 0.238792
H55   H     H_    0.396583 0.284587 0.991111 0.240223
H56   H     H_    0.811005 0.868263 0.317700 0.120259
H57   H     H_    0.244318 0.152163 0.896098 0.251490
H58   H     H_    0.262988 0.275929 0.941104 0.218805
H59   H     H_    0.205843 0.203569 0.986901 0.236532
H60   H     H_    0.098675 0.291580 0.338794 0.366284
H61   H     H_    0.886109 0.696376 0.643944 0.360998
H62   H     H_    0.843324 0.923904 0.961627 0.356860
H63   H     H_    0.227885 0.092627 0.077140 0.358160
H64   H     H_    0.013566 0.746695 0.768200 0.267029
H65   H     H_    0.980522 0.862723 0.899194 0.253369
H66   H     H_    0.043322 0.910423 0.839267 0.240744
H67   H     H_    0.871531 0.042437 0.620807 0.135995
H68   H     H_    0.102250 0.948635 0.942556 0.231832
H69   H     H_    0.002222 0.214193 0.193182 0.300361
H70   H     H_    0.082055 0.182703 0.078448 0.255019
H71   H     H_    0.970340 0.086510 0.998392 0.207614
H72   H     H_    0.004652 0.073026 0.080364 0.250471
H73   H     H_    0.217583 0.938173 0.101764 0.310521
H74   H     H_    0.737173 0.995797 0.023955 0.337375
H75   H     H_    0.253250 0.796535 0.019601 0.264315
H76   H     H_    0.251133 0.861985 0.164334 0.240097
H77   H     H_    0.210718 0.731088 0.122763 0.257740
H78   H     H_    0.063506 0.918945 0.282192 0.130455
H79   H     H_    0.132197 0.765746 0.126854 0.236731
H80   H     H_    0.867702 0.254552 0.900683 0.229341
H81   H     H_    0.769239 0.298635 0.971782 0.199644
H82   H     H_    0.729497 0.194829 0.985727 0.268631
H83   H     H_    0.708744 0.167775 0.876470 0.237287
H84   H     H_    0.745768 0.489924 0.708765 0.368284
H85   H     H_    0.251526 0.538115 0.320544 0.371375
H86   H     H_    0.766977 0.181829 0.244267 0.344959
H87   H     H_    0.236200 0.816768 0.750418 0.356673
H88   H     H_    0.544890 0.012030 0.832368 0.234970
H89   H     H_    0.676660 0.598002 0.709876 0.200318
H90   H     H_    0.552213 0.155278 0.851150 0.238089
H91   H     H_    0.545129 0.197033 0.960415 0.248615
H92   H     H_    0.448778 0.079102 0.864224 0.255142
H93   H     H_    0.448014 0.984343 0.164521 0.237672
H94   H     H_    0.439761 0.841562 0.147216 0.245710
H95   H     H_    0.545353 0.918786 0.137439 0.242503
H96   H     H_    0.450828 0.801027 0.039373 0.240516
N1    N     N_2   0.808522 0.061253 0.754900 -0.301439
N2    N     N_2   0.977595 0.185880 0.128274 -0.243811
N3    N     N_2   0.192607 0.754573 0.025904 -0.296144
N4    N     N_2   0.840165 0.229369 0.939175 -0.287107
N5    N     N_2   0.555087 0.069882 0.894751 -0.326879
N6    N     N_2   0.440364 0.927652 0.102843 -0.308906
N7    N     N_2   0.014669 0.848465 0.112139 -0.323223
N8    N     N_2   0.962448 0.893518 0.579863 -0.280971
N9    N     N_2   0.087567 0.104393 0.419285 -0.287515
N10   N     N_2   0.477242 0.359375 0.755961 -0.307017
N11   N     N_2   0.519472 0.651639 0.236571 -0.311333
N12   N     N_2   0.663398 0.731981 0.995810 -0.319210
N13   N     N_2   0.346116 0.273934 0.019130 -0.243328
N14   N     N_2   0.049293 0.795888 0.834719 -0.255022
O1    O     O_3   0.251620 0.500000 0.748430 -0.497539
O2    O     O_R   0.570330 0.268390 0.136490 -0.636705
O3    O     O_R   0.134680 0.268390 0.572240 -0.641982
O4    O     O_R   0.865320 0.731610 0.427760 -0.604024
O5    O     O_R   0.306670 0.731630 0.863510 -0.626402
O6    O     O_R   0.693330 0.268370 0.136490 -0.631856
O7    O     O_R   0.135450 0.439270 0.865360 -0.648909
O8    O     O_R   0.864550 0.560730 0.134640 -0.651330
O9    O     O_R   0.429670 0.560710 0.692610 -0.641529
O10   O     O_R   0.570330 0.439290 0.307390 -0.644354
O11   O     O_R   0.308540 0.439240 0.865360 -0.656087
O12   O     O_3   0.748380 0.500000 0.251570 -0.501937
O13   O     O_R   0.691460 0.560760 0.134640 -0.647804
O14   O     O_R   0.133580 0.439310 0.571150 -0.629773
O15   O     O_R   0.866420 0.560690 0.428850 -0.619434
O16   O     O_R   0.430770 0.560690 0.864590 -0.649079
O17   O     O_R   0.569230 0.439310 0.135410 -0.650044
O18   O     O_R   0.133580 0.560760 0.692610 -0.586734
O19   O     O_R   0.866420 0.439240 0.307390 -0.583216
O20   O     O_2   0.187584 0.661954 0.462547 -0.578512
O21   O     O_R   0.065115 0.614050 0.370399 -0.823164
O22   O     O_2   0.811275 0.333024 0.536460 -0.576637
O23   O     O_R   0.134680 0.560740 0.864590 -0.629923
O24   O     O_R   0.934989 0.385471 0.630576 -0.823654
O25   O     O_2   0.174475 0.475700 0.425347 -0.601930
O26   O     O_R   0.054359 0.309901 0.358671 -0.782418
O27   O     O_2   0.832902 0.524359 0.596093 -0.603905
O28   O     O_R   0.929153 0.678963 0.617827 -0.784640
O29   O     O_2   0.750151 0.790868 0.810874 -0.643041
O30   O     O_R   0.801053 0.856930 0.955447 -0.836357
O31   O     O_2   0.231097 0.231848 0.200076 -0.630427
O32   O     O_R   0.271165 0.158257 0.081634 -0.754085
O33   O     O_2   0.230182 0.905480 0.921233 -0.573283
O34   O     O_R   0.865320 0.439260 0.135410 -0.630621
O35   O     O_R   0.250792 0.957187 0.063346 -0.828027
O36   O     O_2   0.773261 0.053404 0.929270 -0.639216
O37   O     O_R   0.793419 0.068891 0.058613 -0.779670
O38   O     O_2   0.861227 0.670702 0.785312 -0.648013
O39   O     O_R   0.801129 0.508100 0.745867 -0.777217
O40   O     O_2   0.152765 0.353791 0.230633 -0.629706
O41   O     O_R   0.195152 0.514894 0.280387 -0.785111
O42   O     O_2   0.872670 0.221624 0.358985 -0.580481
O43   O     O_R   0.807717 0.259357 0.289726 -0.788845
O44   O     O_2   0.121962 0.775580 0.642841 -0.612887
O45   O     O_R   0.306670 0.439270 0.571150 -0.631691
O46   O     O_R   0.194629 0.739128 0.705973 -0.780556
O47   O     O_R   0.693330 0.560730 0.428850 -0.633575
O48   O     O_R   0.135450 0.268370 0.694460 -0.644508
O49   O     O_R   0.864550 0.731630 0.305540 -0.647085
O50   O     O_R   0.429670 0.731610 0.863510 -0.654124
Zn1   Zn    Zn3+2 0.207400 0.586780 0.791530 1.031429
Zn2   Zn    Zn3+2 0.792600 0.413220 0.208470 1.021616
Zn3   Zn    Zn3+2 0.208510 0.413230 0.792630 0.955965
Zn4   Zn    Zn3+2 0.791490 0.586770 0.207370 0.963156
Zn5   Zn    Zn3+2 0.383150 0.586740 0.791530 0.954757
Zn6   Zn    Zn3+2 0.616850 0.413260 0.208470 0.977512
Zn7   Zn    Zn3+2 0.207400 0.413250 0.618010 1.003950
Zn8   Zn    Zn3+2 0.792600 0.586750 0.381990 1.017694

loop_
_geom_bond_atom_site_label_1
_geom_bond_atom_site_label_2
_ccdc_geom_bond_type
C8    H65   S    
C101  C107  S    
C58   C92   S    
C40   C104  S    
C63   C65   A    
C29   O49   A    
C91   H10   S    
C55   C59   A    
C69   C72   A    
C12   H77   S    
C53   C55   A    
C84   N5    S    
C9    H72   S    
C71   C97   S    
C18   O46   S    
C47   C49   A    
C25   C28   S    
H61   O28   S    
C14   H82   S    
C108  O21   S    
C100  C105  S    
C35   H45   S    
C42   C44   A    
C22   H18   S    
C60   C63   A    
H93   N6    S    
C32   C36   A    
C115  N11   S    
C2    C95   S    
O11   Zn3   S    
H86   O43   S    
C76   C78   A    
C29   O4    A    
O1    Zn3   S    
C17   O42   D    
O12   Zn4   S    
C11   C76   S    
O17   Zn6   S    
C104  C109  S    
H80   N4    S    
C78   C80   A    
C114  H46   S    
H62   O30   S    
O50   Zn5   S    
O3    Zn7   S    
C45   H12   S    
C68   C74   A    
O4    Zn8   S    
C81   O45   A    
C95   N6    S    
H69   N2    S    
C85   H8    S    
C110  H26   S    
C32   C45   A    
C20   H95   S    
C6    C64   S    
C115  H48   S    
C69   C71   A    
C68   H5    S    
C116  H52   S    
C21   H15   S    
C31   C35   A    
C15   O38   D    
C71   C74   A    
H75   N3    S    
C97   O16   A    
O45   Zn7   S    
C3    H57   S    
C88   N14   S    
C13   C62   S    
H55   N13   S    
C109  O22   D    
C65   C67   A    
O14   Zn7   S    
C6    O29   D    
C19   H90   S    
C84   C106  S    
C13   H14   S    
C81   O9    A    
C103  C108  S    
H22   O21   S    
C20   H94   S    
C39   C42   A    
C25   H17   S    
C3    N13   S    
O16   Zn5   S    
C76   C89   A    
C68   C70   A    
C8    H68   S    
C77   C79   A    
H85   O41   S    
C47   N9    S    
C34   O6    A    
H42   N10   S    
C30   H21   S    
C22   C28   S    
C4    C101  S    
C27   C30   S    
C19   H91   S    
C41   C43   A    
C100  O19   A    
C111  N7    S    
C113  H39   S    
C51   C107  S    
C12   H76   S    
O1    Zn5   S    
H63   O32   S    
C18   C51   S    
C47   C50   A    
C54   C56   A    
C85   C87   A    
H24   O24   S    
O7    Zn3   S    
C14   H81   S    
C73   H13   S    
C109  O24   S    
C59   C61   A    
C8    H66   S    
O8    Zn4   S    
C21   C73   S    
C99   O18   A    
C29   C48   S    
C116  H54   S    
O48   Zn3   S    
C34   C106  S    
C23   C30   S    
C27   C81   S    
C110  N1    S    
C46   N8    S    
C4    O26   S    
C41   H78   S    
C17   O43   S    
C9    H70   S    
C31   C44   A    
C111  H30   S    
H25   N1    S    
C66   H89   S    
O5    Zn1   S    
C54   H4    S    
C54   C67   A    
C63   N13   S    
C15   O39   S    
C90   C96   A    
C111  H31   S    
C56   C60   A    
C58   O34   A    
H51   N12   S    
C51   C102  S    
H33   N8    S    
C64   C66   A    
C5    O28   S    
C116  N12   S    
C61   C64   A    
C34   O2    A    
O10   Zn6   S    
C98   O13   A    
C80   C85   A    
O12   Zn6   S    
O2    Zn6   S    
C90   H9    S    
C91   C93   A    
O34   Zn2   S    
C10   C75   S    
C24   H16   S    
C3    H58   S    
C90   C92   A    
H29   N7    S    
C21   C84   S    
C49   C52   A    
C113  N9    S    
O13   Zn4   S    
C82   O47   A    
C2    C21   S    
C92   C94   A    
C83   C86   A    
C112  N8    S    
C36   H56   S    
C14   N4    S    
C103  C105  S    
O9    Zn5   S    
C114  N10   S    
C115  H50   S    
C102  C104  S    
C53   C66   A    
O1    Zn1   S    
C59   C74   S    
C114  H44   S    
C1    O48   A    
O19   Zn2   S    
C38   C41   A    
C15   C86   S    
C19   N5    S    
C99   O14   A    
C2    C33   S    
C3    H59   S    
H84   O39   S    
C7    O31   D    
C13   C95   S    
C93   C96   A    
C11   O37   S    
C22   C27   S    
C55   N10   S    
C19   H92   S    
C12   H79   S    
C22   C24   S    
H64   N14   S    
C115  H49   S    
C73   C95   S    
C113  H40   S    
C80   C94   S    
C57   O23   A    
C16   C87   S    
C78   N4    S    
C18   O44   D    
C89   N2    S    
C97   O11   A    
C77   N3    S    
C70   C98   S    
C101  C103  S    
O6    Zn2   S    
C57   C93   S    
C37   C52   S    
C62   C84   S    
C5    C102  S    
C8    N14   S    
C35   C37   A    
C28   H20   S    
O47   Zn8   S    
C20   N6    S    
C7    C65   S    
C43   N7    S    
C40   C101  S    
C4    O25   D    
C24   C26   S    
C13   C106  S    
C58   O8    A    
O1    Zn7   S    
C112  H36   S    
H60   O26   S    
C56   N11   S    
C57   O7    A    
C53   H3    S    
O12   Zn2   S    
C38   C50   S    
C33   O50   A    
H47   N11   S    
C9    N2    S    
C25   C27   S    
C99   C107  S    
C14   H83   S    
H88   N5    S    
C26   C28   S    
C10   O35   S    
C23   H19   S    
C5    O27   D    
C112  H37   S    
C113  H41   S    
H38   N9    S    
C36   C38   A    
O49   Zn4   S    
H73   O35   S    
C61   N12   S    
C79   C96   S    
C11   O36   D    
C42   N1    S    
C44   H1    S    
C111  H32   S    
C46   C52   A    
C79   C83   A    
C102  C105  S    
C100  O15   A    
C73   C106  S    
C62   H11   S    
C1    C49   S    
C69   H6    S    
C108  O20   D    
C48   C50   A    
O18   Zn1   S    
C23   C26   S    
O23   Zn1   S    
C116  H53   S    
C86   C88   A    
C20   H96   S    
C75   C88   A    
C110  H27   S    
C6    O30   S    
C67   H2    S    
C24   C30   S    
C114  H43   S    
C16   O41   S    
O12   Zn8   S    
H87   O46   S    
C39   H67   S    
C46   C48   A    
C1    O3    A    
C98   O17   A    
C37   C39   A    
C23   C25   S    
C32   H34   S    
H74   O37   S    
C26   C82   S    
C75   C77   A    
C2    C62   S    
C87   C89   A    
C60   C72   S    
C10   O33   D    
C9    H71   S    
C7    O32   S    
C70   C72   A    
O15   Zn8   S    
C12   N3    S    
C83   H7    S    
C82   O10   A    
C33   O5    A    
C51   C103  S    
C43   C45   A    
C17   C40   S    
C104  C107  S    
C16   O40   D    
C112  H35   S    
C110  H28   S    
C31   H23   S    
C40   C105  S    
C91   C94   A    
