data_mof_unit_54934.cif
_audit_creation_date              2012-12-10T17:31:09-0500
_audit_creation_method            fapswitch 2.2
_symmetry_space_group_name_H-M    P1
_symmetry_Int_Tables_number       1
_space_group_crystal_system       triclinic
_cell_length_a                    12.085276
_cell_length_b                    12.831874
_cell_length_c                    15.439005
_cell_angle_alpha                 85.997279
_cell_angle_beta                  115.151204
_cell_angle_gamma                 94.629259
_cell_volume                      2158.48900771

loop_
_atom_site_label
_atom_site_type_symbol
_atom_type_description
_atom_site_fract_x
_atom_site_fract_y
_atom_site_fract_z
_atom_type_partial_charge
C1    C     C_R   0.477045 0.299501 0.499762 0.885570
C2    C     C_R   0.522947 0.700503 0.500216 0.888214
C3    C     C_R   0.632749 0.402598 0.111805 -0.228353
C4    C     C_R   0.342233 0.413746 0.891245 -0.227719
C5    C     C_R   0.718772 0.399230 0.074556 -0.237482
C6    C     C_R   0.256651 0.420117 0.928529 -0.235466
C7    C     C_R   0.537932 0.812364 0.501254 -0.053629
C8    C     C_R   0.462038 0.187660 0.498635 -0.050872
C9    C     C_R   0.335346 0.030245 0.444590 -0.213100
C10   C     C_R   0.664617 0.969811 0.555175 -0.212993
C11   C     C_R   0.345689 0.137337 0.455300 -0.209372
C12   C     C_R   0.654280 0.862715 0.544497 -0.210056
C13   C     C_R   0.567748 0.131539 0.534460 -0.272254
C14   C     C_R   0.432217 0.868488 0.465406 -0.272382
C15   C     C_R   0.558541 0.025474 0.522761 0.185917
C16   C     C_R   0.441421 0.974571 0.477037 0.186429
C17   C     C_R   0.021055 0.618059 0.431317 -0.312924
C18   C     C_R   0.979116 0.382072 0.568963 -0.319489
C19   C     C_R   0.137468 0.604604 0.435815 -0.028483
C20   C     C_R   0.862653 0.395515 0.564398 -0.031281
C21   C     C_R   0.149699 0.444947 0.526220 0.176849
C22   C     C_R   0.850310 0.555016 0.473776 0.178591
C23   C     C_R   0.575137 0.492221 0.680158 0.873113
C24   C     C_R   0.424045 0.502564 0.319826 0.869292
C25   C     C_R   0.032672 0.456282 0.524202 0.072663
C26   C     C_R   0.967432 0.543763 0.475956 0.071966
C27   C     C_R   0.617209 0.470414 0.783031 -0.060219
C28   C     C_R   0.376366 0.486446 0.217204 -0.061161
C29   C     C_R   0.773320 0.427003 0.940309 -0.204684
C30   C     C_R   0.210506 0.455920 0.061553 -0.204485
C31   C     C_R   0.739677 0.452604 0.843406 -0.199957
C32   C     C_R   0.250667 0.479256 0.157560 -0.198019
C33   C     C_R   0.529024 0.459508 0.819362 -0.268896
C34   C     C_R   0.460465 0.468288 0.180895 -0.259591
C35   C     C_R   0.559439 0.429678 0.914793 0.094465
C36   C     C_R   0.422409 0.439357 0.086894 0.093146
C37   C     C_R   0.684363 0.417609 0.976801 0.179526
C38   C     C_R   0.295743 0.437644 0.025417 0.177632
C39   C     C_R   0.469495 0.420323 0.951193 0.067901
C40   C     C_R   0.508604 0.420040 0.051187 0.067493
H1    H     H_    0.813360 0.387164 0.122913 0.146758
H2    H     H_    0.159988 0.415976 0.880675 0.145504
H3    H     H_    0.822755 0.337525 0.598633 0.136433
H4    H     H_    0.177420 0.662676 0.401689 0.136874
H5    H     H_    0.973970 0.686762 0.393133 0.174588
H6    H     H_    0.026305 0.313470 0.607309 0.173214
H7    H     H_    0.556730 0.480079 0.226437 0.160545
H8    H     H_    0.436593 0.478513 0.772806 0.161176
H9    H     H_    0.183956 0.491670 0.184897 0.155752
H10   H     H_    0.809046 0.459119 0.816053 0.153959
H11   H     H_    0.868794 0.416130 0.986891 0.129578
H12   H     H_    0.113257 0.452992 0.015484 0.129644
H13   H     H_    0.665090 0.389342 0.188277 0.153239
H14   H     H_    0.306568 0.401544 0.815423 0.150489
H15   H     H_    0.342262 0.829166 0.430519 0.146794
H16   H     H_    0.657705 0.170849 0.569399 0.146814
H17   H     H_    0.736228 0.819091 0.572967 0.151942
H18   H     H_    0.263752 0.180976 0.426807 0.151043
H19   H     H_    0.245249 0.991403 0.409810 0.138008
H20   H     H_    0.754711 0.008663 0.589921 0.138061
N1    N     N_R   0.799120 0.480200 0.517090 -0.108014
N2    N     N_R   0.200880 0.519800 0.482910 -0.107716
O1    O     O_R   0.580150 0.341050 0.504560 -0.619236
O2    O     O_R   0.419850 0.658950 0.495440 -0.617190
O3    O     O_R   0.388090 0.353760 0.493600 -0.640634
O4    O     O_R   0.611910 0.646240 0.506400 -0.638936
O5    O     O_R   0.650890 0.490020 0.640860 -0.614224
O6    O     O_R   0.349110 0.509980 0.359140 -0.614357
O7    O     O_R   0.458830 0.502730 0.629890 -0.626458
O8    O     O_R   0.541170 0.497270 0.370110 -0.628789
Zn1   Zn    Zn3+2 0.628240 0.491510 0.507320 0.925653
Zn2   Zn    Zn3+2 0.371760 0.508490 0.492680 0.926970
N3    N     N_3   0.788109 0.647266 0.427725 -0.483077
H21   H     H_    0.698918 0.627193 0.379420 0.226672
H22   H     H_    0.788859 0.694614 0.480164 0.203163
N4    N     N_3   0.211686 0.352491 0.571933 -0.487226
H23   H     H_    0.301050 0.372280 0.620049 0.223361
H24   H     H_    0.210526 0.305273 0.519259 0.203719

loop_
_geom_bond_atom_site_label_1
_geom_bond_atom_site_label_2
_ccdc_geom_bond_type
C8    C13   A    
C5    C37   A    
C1    C8    S    
N3    H21   S    
C23   O7    A    
C35   C39   A    
C2    C7    S    
C24   O8    A    
C27   C33   A    
C21   N4    S    
C17   C26   A    
C35   C37   A    
C9    C16   A    
C17   H5    S    
C10   C15   A    
C19   N2    A    
C15   C16   A    
C1    O1    A    
C30   C38   A    
C23   O5    A    
C20   N1    A    
C21   C25   A    
C33   C35   A    
C7    C14   A    
C1    O3    A    
C6    C38   A    
O8    Zn1   S    
C23   C27   S    
C11   H18   S    
C18   C20   A    
C13   H16   S    
N1    Zn1   S    
C14   H15   S    
C28   C34   A    
N3    H22   S    
C18   C25   A    
C18   H6    S    
C2    O2    A    
C7    C12   A    
C27   C31   A    
C36   C40   A    
N4    H23   S    
C4    C6    A    
C39   C40   A    
C3    C5    A    
C25   C26   A    
C9    H19   S    
O7    Zn2   S    
C10   H20   S    
O4    Zn1   S    
C4    C39   A    
C28   C32   A    
O6    Zn2   S    
N2    Zn2   S    
C9    C11   A    
C21   N2    A    
C10   C12   A    
C12   H17   S    
O1    Zn1   S    
C3    C40   A    
C13   C15   A    
C6    H2    S    
C14   C16   A    
C31   H10   S    
C20   H3    S    
C19   H4    S    
C29   H11   S    
C5    H1    S    
C4    H14   S    
C24   C28   S    
N4    H24   S    
C2    O4    A    
O3    Zn2   S    
C36   C38   A    
C29   C31   A    
C22   N1    A    
C30   C32   A    
C3    H13   S    
C30   H12   S    
C8    C11   A    
C17   C19   A    
C34   C36   A    
O5    Zn1   S    
O2    Zn2   S    
C32   H9    S    
C24   O6    A    
C22   C26   A    
C29   C37   A    
C33   H8    S    
C34   H7    S    
C22   N3    S    
