data_mof_unit_14053.cif
_audit_creation_date              2013-03-05T16:03:28-0500
_audit_creation_method            fapswitch 2.2
_symmetry_space_group_name_H-M    P1
_symmetry_Int_Tables_number       1
_space_group_crystal_system       triclinic
_cell_length_a                    19.917373
_cell_length_b                    19.073992
_cell_length_c                    19.834322
_cell_angle_alpha                 110.279575
_cell_angle_beta                  111.521135
_cell_angle_gamma                 109.265777
_cell_volume                      5600.99137783

loop_
_atom_site_label
_atom_site_type_symbol
_atom_site_description
_atom_site_fract_x
_atom_site_fract_y
_atom_site_fract_z
_atom_type_partial_charge
O1    O     O_R   0.592740 0.540340 0.447840 -0.546177
O2    O     O_R   0.592480 0.644870 0.552180 -0.542655
C1    C     C_R   0.614078 0.622786 0.494576 1.024998
O3    O     O_R   0.407320 0.447740 0.355030 -0.594231
O4    O     O_R   0.407060 0.552270 0.459360 -0.580060
C2    C     C_R   0.376875 0.497563 0.378005 0.980446
Zn1   Zn    Zn3+2 0.500170 0.430200 0.430330 1.267551
Zn2   Zn    Zn3+2 0.499830 0.569800 0.569670 1.279938
O5    O     O_R   0.407520 0.355130 0.447820 -0.554165
O6    O     O_R   0.407260 0.459660 0.552160 -0.532286
O7    O     O_R   0.592940 0.447730 0.540640 -0.547418
O8    O     O_R   0.592680 0.552260 0.644970 -0.528963
C3    C     C_R   0.374507 0.375275 0.492560 0.981535
C4    C     C_R   0.624988 0.501916 0.622790 1.021530
C5    C     C_3   0.320345 0.579580 0.306517 -0.248479
C6    C     C_3   0.229747 0.552897 0.285442 0.172774
H1    H     H_    0.371675 0.648833 0.354454 0.267884
C7    C     C_3   0.192922 0.503255 0.189086 -0.254189
C8    C     C_3   0.283217 0.528711 0.209234 0.459697
C9    C     C_3   0.272608 0.445091 0.210951 -0.118199
C10   C     C_3   0.181402 0.419257 0.189886 -0.206224
C11   C     C_3   0.217019 0.470073 0.286550 0.250207
C12   C     C_3   0.307642 0.495378 0.308321 -0.202899
H2    H     H_    0.288957 0.399531 0.178292 0.243034
H3    H     H_    0.124477 0.352251 0.143588 0.272387
C13   C     C_3   0.741646 0.667645 0.475786 0.132653
H4    H     H_    0.712218 0.626024 0.407788 0.231890
C14   C     C_3   0.822750 0.742645 0.500501 0.022207
H5    H     H_    0.870288 0.775659 0.569807 0.235172
C15   C     C_3   0.630849 0.692857 0.399070 0.336389
C16   C     C_3   0.723684 0.795153 0.567698 0.585448
C17   C     C_3   0.675095 0.693786 0.487310 -0.463951
C18   C     C_3   0.801077 0.807351 0.485532 -0.367083
C19   C     C_3   0.709119 0.759180 0.399166 0.107488
C20   C     C_3   0.789756 0.854859 0.557607 -0.567819
H6    H     H_    0.851855 0.894600 0.616454 0.297684
H7    H     H_    0.772121 0.900037 0.546443 0.302016
H8    H     H_    0.702633 0.815964 0.404458 0.206392
C21   C     C_3   0.677215 0.394454 0.656615 0.315653
C22   C     C_3   0.753630 0.399653 0.727530 0.076169
H9    H     H_    0.729475 0.356718 0.748919 0.222563
H10   H     H_    0.905539 0.557222 0.788383 0.294268
C23   C     C_3   0.793098 0.558714 0.720408 0.510634
C24   C     C_3   0.695537 0.535331 0.783930 0.299723
C25   C     C_3   0.694313 0.497554 0.693133 -0.468234
C26   C     C_3   0.810474 0.491677 0.811554 -0.344318
C27   C     C_3   0.853999 0.560894 0.795774 -0.510125
C28   C     C_3   0.754835 0.514740 0.844011 0.079490
H11   H     H_    0.804799 0.577244 0.902011 0.202971
H12   H     H_    0.891357 0.624346 0.857633 0.235878
C29   C     C_3   0.256482 0.193887 0.396528 0.510573
C30   C     C_3   0.196956 0.127131 0.413441 -0.112902
H13   H     H_    0.132352 0.085519 0.354737 0.197714
H14   H     H_    0.286420 0.182431 0.574824 0.211324
C31   C     C_3   0.340454 0.300538 0.571365 0.373999
C32   C     C_3   0.225148 0.311417 0.466254 0.136611
C33   C     C_3   0.302484 0.296897 0.481257 -0.490122
H15   H     H_    0.195972 0.294672 0.401182 0.205603
C34   C     C_3   0.185959 0.179516 0.489599 -0.396636
C35   C     C_3   0.274183 0.234626 0.575894 0.079951
C36   C     C_3   0.156287 0.238748 0.463524 0.004365
H16   H     H_    0.100552 0.193185 0.397090 0.198734
O9    O     O_R   0.948700 0.540360 0.093520 -0.539697
O10   O     O_R   0.053270 0.644880 0.093500 -0.594993
C37   C     C_R   0.998471 0.622674 0.116992 0.960502
O11   O     O_R   0.041720 0.447740 0.093910 -0.566823
O12   O     O_R   0.146290 0.552270 0.093890 -0.568619
C38   C     C_R   0.122657 0.501695 0.122641 0.999444
Zn3   Zn    Zn3+2 0.931370 0.430220 0.001110 1.228093
Zn4   Zn    Zn3+2 0.071010 0.569800 0.001080 1.240226
O13   O     O_R   0.949110 0.355140 0.908700 -0.555457
O14   O     O_R   0.053680 0.459670 0.908680 -0.553959
O15   O     O_R   0.856090 0.447760 0.908300 -0.565335
O16   O     O_R   0.960660 0.552280 0.908280 -0.584733
C39   C     C_R   0.000538 0.378599 0.881914 1.035169
C40   C     C_R   0.880517 0.498270 0.880908 0.987195
O17   O     O_R   0.052690 0.907450 0.460090 -0.554437
O18   O     O_R   0.947900 0.907390 0.355230 -0.574101
C41   C     C_R   0.005708 0.885424 0.380367 0.931355
O19   O     O_R   0.959780 0.907430 0.552420 -0.562334
O20   O     O_R   0.854990 0.907370 0.447560 -0.578708
C42   C     C_R   0.877387 0.877325 0.495938 1.009424
Zn5   Zn    Zn3+2 0.069970 0.000040 0.570020 1.265177
Zn6   Zn    Zn3+2 0.930030 0.999960 0.429990 1.219503
O21   O     O_R   0.052100 0.092610 0.644770 -0.547010
O22   O     O_R   0.947310 0.092550 0.539920 -0.569538
O23   O     O_R   0.145010 0.092640 0.552440 -0.552172
O24   O     O_R   0.040220 0.092570 0.447580 -0.583887
C43   C     C_R   0.998894 0.118957 0.622567 1.055265
C44   C     C_R   0.119922 0.116762 0.496109 1.007180
C45   C     C_3   0.909498 0.664402 0.173754 0.360709
C46   C     C_3   0.921336 0.734851 0.254007 -0.020661
H17   H     H_    0.876750 0.756316 0.231413 0.203975
C47   C     C_3   0.072066 0.722284 0.276583 -0.048540
C48   C     C_3   0.033989 0.787513 0.186649 0.188729
C49   C     C_3   0.001206 0.695643 0.184737 -0.400023
H18   H     H_    0.103768 0.817195 0.220234 0.132101
C50   C     C_3   0.009490 0.821603 0.312040 -0.372535
C51   C     C_3   0.086266 0.805575 0.348397 0.075178
C52   C     C_3   0.023695 0.854972 0.251312 0.062424
H19   H     H_    0.085684 0.915974 0.294067 0.162017
H20   H     H_    0.132459 0.744152 0.278651 0.164047
H21   H     H_    0.139517 0.860119 0.357680 0.144707
C53   C     C_3   0.014008 0.243872 0.842305 0.130820
H22   H     H_    0.954536 0.204554 0.832798 0.220532
C54   C     C_3   0.017831 0.175147 0.775745 0.123264
H23   H     H_    0.079143 0.183326 0.809850 0.245317
C55   C     C_3   0.911446 0.249481 0.730447 0.073382
C56   C     C_3   0.072033 0.361162 0.797360 0.320122
C57   C     C_3   0.001947 0.311178 0.816869 -0.462729
C58   C     C_3   0.004250 0.189288 0.697774 -0.430956
C59   C     C_3   0.920558 0.192816 0.659891 0.015599
C60   C     C_3   0.086404 0.287166 0.745492 0.343186
H24   H     H_    0.896625 0.290701 0.710400 0.253526
H25   H     H_    0.933497 0.228889 0.629422 0.205949
N1    N     N_R   0.219639 0.621624 0.333487 0.271028
O25   O     O_R   0.220491 0.630438 0.401845 -0.220605
O26   O     O_R   0.236886 0.688457 0.324382 -0.350987
N2    N     N_R   0.861535 0.713079 0.454540 0.247773
O27   O     O_R   0.819014 0.634089 0.387736 -0.231916
O28   O     O_R   0.943776 0.753284 0.496163 -0.249195
S1    S     S_3+6 0.557053 0.578929 0.301551 0.131867
O29   O     O_2   0.481232 0.534275 0.303754 -0.296754
O30   O     O_2   0.524319 0.582303 0.222234 -0.138965
O31   O     O_3   0.594475 0.511247 0.287365 -0.486412
H26   H     H_    0.545634 0.454160 0.235445 0.407070
S2    S     S_3+6 0.701270 0.719170 0.297289 0.158335
O32   O     O_2   0.681047 0.626403 0.258259 -0.111664
O33   O     O_2   0.630517 0.722417 0.238049 -0.189272
O34   O     O_3   0.788630 0.780045 0.303273 -0.524058
H27   H     H_    0.768171 0.777222 0.248171 0.398618
S3    S     S_3+6 0.658021 0.842367 0.582215 0.135755
O35   O     O_2   0.575226 0.775711 0.561053 -0.212791
O36   O     O_2   0.702578 0.913975 0.673940 -0.211770
O37   O     O_3   0.639985 0.889367 0.525194 -0.469209
H28   H     H_    0.605836 0.912609 0.538697 0.425334
S4    S     S_3+6 0.782344 0.812621 0.671818 0.155295
O38   O     O_2   0.831920 0.769493 0.669076 -0.178335
O39   O     O_2   0.845659 0.907501 0.739248 -0.219716
O40   O     O_3   0.715261 0.779073 0.702036 -0.429815
H29   H     H_    0.747112 0.820169 0.764778 0.417689
N3    N     N_R   0.573905 0.726193 0.397441 0.252634
O41   O     O_R   0.567425 0.773229 0.363710 -0.251726
O42   O     O_R   0.511758 0.686919 0.403898 -0.353011
N4    N     N_R   0.658499 0.350189 0.566972 0.274434
O43   O     O_R   0.580649 0.307869 0.502299 -0.254680
O44   O     O_R   0.707075 0.328129 0.547926 -0.220930
N5    N     N_R   0.605815 0.331351 0.650609 0.247278
O45   O     O_R   0.603422 0.350761 0.717830 -0.284890
O46   O     O_R   0.573137 0.247838 0.598968 -0.253752
N6    N     N_R   0.797901 0.363043 0.698277 0.275479
O47   O     O_R   0.879307 0.404106 0.746361 -0.348386
O48   O     O_R   0.756963 0.279282 0.642525 -0.232262
S5    S     S_3+6 0.818817 0.518718 0.638501 0.120327
O49   O     O_2   0.743588 0.468067 0.548881 -0.189869
O50   O     O_2   0.888472 0.593588 0.650948 -0.177118
O51   O     O_3   0.859936 0.456200 0.644699 -0.458959
H30   H     H_    0.867121 0.439442 0.595779 0.409857
N7    N     N_R   0.727983 0.631458 0.831420 0.239601
O52   O     O_R   0.769760 0.676487 0.914754 -0.232493
O53   O     O_R   0.687471 0.662642 0.796091 -0.246964
N8    N     N_R   0.611098 0.496890 0.769526 0.297314
O54   O     O_R   0.600884 0.536591 0.829928 -0.173849
O55   O     O_R   0.546421 0.451764 0.692437 -0.327601
S6    S     S_3+6 0.714131 0.453031 0.890240 0.180736
O56   O     O_2   0.783710 0.494331 0.980212 -0.235593
O57   O     O_2   0.640233 0.454291 0.892739 -0.092901
O58   O     O_3   0.687806 0.347467 0.842578 -0.505823
H31   H     H_    0.674110 0.326224 0.877575 0.397247
S7    S     S_3+6 0.832021 0.675391 0.762637 0.139060
O59   O     O_2   0.757197 0.676747 0.711595 -0.193151
O60   O     O_2   0.864397 0.731022 0.855577 -0.238980
O61   O     O_3   0.914233 0.727293 0.756754 -0.369369
H32   H     H_    0.963912 0.735512 0.803271 0.374084
S8    S     S_3+6 0.333572 0.567882 0.160602 0.182598
O62   O     O_2   0.288988 0.599817 0.111364 -0.196090
O63   O     O_2   0.421712 0.643208 0.229272 -0.154858
O64   O     O_3   0.336902 0.486881 0.094966 -0.463710
H33   H     H_    0.362855 0.511767 0.068406 0.425354
S9    S     S_3+6 0.324674 0.161725 0.362001 0.223992
O65   O     O_2   0.271421 0.068532 0.287303 -0.147804
O66   O     O_2   0.355314 0.214166 0.326704 -0.219574
O67   O     O_3   0.409584 0.166694 0.429226 -0.378217
H34   H     H_    0.430092 0.141851 0.394203 0.407282
S10   S     S_3+6 0.183280 0.175809 0.290757 0.081512
O68   O     O_2   0.098729 0.161290 0.275013 -0.285902
O69   O     O_2   0.226955 0.255053 0.288163 -0.278986
O70   O     O_3   0.159014 0.087915 0.204820 -0.410948
H35   H     H_    0.131167 0.093409 0.155673 0.407064
N9    N     N_R   0.218993 0.062058 0.422410 0.237824
O71   O     O_R   0.207611 0.034684 0.471071 -0.400893
O72   O     O_R   0.230057 0.014574 0.367583 -0.289022
S11   S     S_3+6 0.415855 0.267351 0.584938 0.109932
O73   O     O_2   0.469206 0.309487 0.557664 -0.222254
O74   O     O_2   0.464115 0.297485 0.677160 -0.173733
O75   O     O_3   0.377095 0.158988 0.534420 -0.473226
H36   H     H_    0.421569 0.151249 0.568583 0.428793
S12   S     S_3+6 0.224614 0.414335 0.489558 0.180941
O76   O     O_2   0.276124 0.462612 0.464053 -0.296969
O77   O     O_2   0.133916 0.386034 0.433214 -0.158416
O78   O     O_3   0.256257 0.488036 0.588878 -0.391537
H37   H     H_    0.245292 0.533507 0.583646 0.400224
N10   N     N_R   0.124999 0.276808 0.510810 0.295991
O79   O     O_R   0.047291 0.258310 0.470392 -0.244795
O80   O     O_R   0.180506 0.348428 0.584169 -0.239004
N11   N     N_R   0.382137 0.391336 0.645637 0.260522
O81   O     O_R   0.437326 0.417652 0.723176 -0.138448
O82   O     O_R   0.347394 0.437057 0.641500 -0.237301
S13   S     S_3+6 0.295204 0.274864 0.685002 0.194984
O83   O     O_2   0.294524 0.357634 0.717787 -0.060933
O84   O     O_2   0.236614 0.211263 0.693012 -0.198306
O85   O     O_3   0.390295 0.296990 0.754786 -0.398162
H38   H     H_    0.383042 0.239106 0.742622 0.377544
N12   N     N_R   0.865321 0.575264 0.159888 0.263456
O86   O     O_R   0.904077 0.549163 0.204360 -0.234001
O87   O     O_R   0.782842 0.528925 0.116563 -0.196813
N13   N     N_R   0.851436 0.662099 0.099851 0.243968
O88   O     O_R   0.777043 0.647967 0.083911 -0.217103
O89   O     O_R   0.866808 0.658465 0.041582 -0.347590
N14   N     N_R   0.894500 0.696890 0.298683 0.245724
O90   O     O_R   0.942007 0.679721 0.346753 -0.190032
O91   O     O_R   0.813598 0.648003 0.262053 -0.199808
N15   N     N_R   0.061850 0.649263 0.290909 0.312399
O92   O     O_R   0.066498 0.653461 0.359361 -0.156128
O93   O     O_R   0.061361 0.583480 0.240605 -0.331756
N16   N     N_R   0.127487 0.820618 0.435469 0.299636
O94   O     O_R   0.086314 0.795317 0.468540 -0.194062
O95   O     O_R   0.209363 0.856312 0.479731 -0.265868
S14   S     S_3+6 0.023606 0.796857 0.093844 0.149457
O96   O     O_2   0.030123 0.731061 0.032385 -0.278077
O97   O     O_2   0.943192 0.792069 0.042457 -0.115351
O98   O     O_3   0.105351 0.896151 0.134586 -0.443304
H39   H     H_    0.096420 0.902037 0.084776 0.406802
S15   S     S_3+6 0.962004 0.899699 0.207806 0.115822
O99   O     O_2   0.969419 0.973901 0.276008 -0.276268
O100  O     O_2   0.997186 0.939933 0.166509 -0.157052
O101  O     O_3   0.858990 0.822408 0.135851 -0.454461
H40   H     H_    0.835306 0.848800 0.106170 0.419548
S16   S     S_3+6 0.074143 0.274053 0.952825 0.085097
O102  O     O_2   0.123632 0.229524 0.963410 -0.211200
O103  O     O_2   0.134357 0.370246 0.013884 -0.251109
O104  O     O_3   0.005169 0.242554 0.981508 -0.526372
H41   H     H_    0.983863 0.179517 0.959674 0.404064
S17   S     S_3+6 0.961034 0.068218 0.753829 0.071970
O105  O     O_2   0.984325 0.011163 0.705911 -0.262886
O106  O     O_2   0.986988 0.070928 0.836475 -0.217522
O107  O     O_3   0.857392 0.029896 0.700410 -0.480769
H42   H     H_    0.843012 0.033424 0.743519 0.439229
S18   S     S_3+6 0.815248 0.194179 0.732029 0.137054
O108  O     O_2   0.738682 0.129412 0.642458 -0.134733
O109  O     O_2   0.819167 0.147212 0.778872 -0.281569
O110  O     O_3   0.795373 0.269271 0.779816 -0.509303
H43   H     H_    0.740526 0.235179 0.772216 0.402655
N17   N     N_R   0.166329 0.427859 0.313366 0.271440
O111  O     O_R   0.142276 0.346469 0.288740 -0.281625
O112  O     O_R   0.123854 0.459094 0.335631 -0.212331
N18   N     N_R   0.840106 0.111908 0.587602 0.306885
O113  O     O_R   0.829169 0.035329 0.568149 -0.335823
O114  O     O_R   0.785983 0.117020 0.530749 -0.234695
S19   S     S_3+6 0.036479 0.420592 0.743748 0.118883
O115  O     O_2   0.030813 0.492024 0.799616 -0.173234
O116  O     O_2   0.100806 0.470644 0.730610 -0.218910
O117  O     O_3   0.943825 0.357322 0.647919 -0.519790
H44   H     H_    0.952907 0.379896 0.612023 0.417493
N19   N     N_R   0.157068 0.434917 0.875914 0.277179
O118  O     O_R   0.211176 0.490608 0.871042 -0.213810
O119  O     O_R   0.179738 0.450176 0.951901 -0.243730
S20   S     S_3+6 0.188939 0.300475 0.820619 0.134606
O120  O     O_2   0.188345 0.216627 0.788225 -0.246520
O121  O     O_2   0.265581 0.370836 0.836075 -0.098575
O122  O     O_3   0.207294 0.328016 0.918062 -0.481084
H45   H     H_    0.258397 0.326246 0.947866 0.418122
S21   S     S_3+6 0.105210 0.306178 0.670515 0.149776
O123  O     O_2   0.120594 0.238347 0.626264 -0.271806
O124  O     O_2   0.032564 0.299467 0.602859 -0.255704
O125  O     O_3   0.193495 0.406548 0.726800 -0.364548
H46   H     H_    0.185236 0.436941 0.695908 0.440732
S22   S     S_3+6 0.763868 0.597174 0.504356 0.174949
O126  O     O_2   0.747643 0.604417 0.573100 -0.204894
O127  O     O_2   0.705837 0.504437 0.427925 -0.197906
O128  O     O_3   0.865078 0.626225 0.537788 -0.419291
H47   H     H_    0.862120 0.574488 0.498371 0.416666

loop_
_geom_bond_atom_site_label_1
_geom_bond_atom_site_label_2
_geom_bond_distance
_ccdc_geom_bond_type
C53   S16   1.820733 S    
C51   H21   1.112196 S    
N10   O79   1.302263 A    
O9    C37   1.338709 A    
C13   C17   1.623995 S    
N9    O71   1.298943 A    
C32   C36   1.563407 S    
C7    C10   1.548418 S    
O78   H37   0.990677 S    
O24   C44   1.321761 A    
C41   C50   1.521823 S    
Zn5   O23   2.131267 S    
C8    C9    1.552511 S    
S15   O101  1.678399 S    
S13   O85   1.680846 S    
N14   O91   1.293717 A    
O20   C42   1.297684 A    
C46   C50   1.557385 S    
O117  H44   0.990256 S    
S8    O63   1.491964 D    
H14   C35   1.095575 S    
O61   H32   0.991183 S    
N1    O25   1.300013 A    
C5    C8    1.547010 S    
S4    O39   1.494287 D    
S18   O108  1.501871 D    
S6    O56   1.488718 D    
O16   C40   1.339896 A    
C46   H17   1.110046 S    
C14   H5    1.110957 S    
C20   H7    1.090827 S    
S16   O102  1.503760 D    
Zn6   O22   2.090577 S    
N18   O113  1.291328 A    
C45   N12   1.500561 S    
O2    C1    1.347014 A    
S19   O117  1.685674 S    
O4    C2    1.327077 A    
C18   C20   1.545645 S    
O7    C4    1.328440 A    
N11   O82   1.285429 A    
S10   O69   1.504364 D    
O11   Zn3   2.109755 S    
C3    C33   1.568288 S    
C54   H23   1.080850 S    
O17   Zn5   2.090575 S    
C7    C38   1.512749 S    
C5    C6    1.543675 S    
O75   H36   0.990378 S    
S21   O125  1.691198 S    
S17   O105  1.497473 D    
C46   N14   1.460178 S    
C7    C8    1.546545 S    
C11   C12   1.544714 S    
C55   H24   1.071046 S    
Zn3   O13   2.127135 S    
O5    C3    1.313738 A    
N14   O90   1.292529 A    
O64   H33   0.990585 S    
N17   O112  1.299980 A    
S21   O124  1.498290 D    
C45   C49   1.624441 S    
C52   S15   1.845625 S    
C48   H18   1.111719 S    
C37   C49   1.531477 S    
C28   S6    1.883408 S    
O9    Zn3   2.068844 S    
C32   H15   1.070963 S    
S3    O35   1.500230 D    
S11   O74   1.488882 D    
S22   O128  1.684594 S    
C21   N5    1.460156 S    
Zn4   O16   2.109756 S    
C6    C11   1.524575 S    
N6    O47   1.289019 A    
C9    C12   1.556344 S    
S2    O32   1.497941 D    
Zn3   O15   2.116977 S    
S12   O76   1.495563 D    
C29   C33   1.708093 S    
O10   Zn4   2.127267 S    
S8    O64   1.680148 S    
C23   S5    1.868937 S    
C18   C42   1.540860 S    
S5    O50   1.490628 D    
C45   C46   1.558131 S    
S9    O67   1.673069 S    
C56   C60   1.615077 S    
C21   C25   1.702217 S    
C31   C35   1.549542 S    
C5    C12   1.556630 S    
C34   C35   1.565096 S    
S6    O57   1.498482 D    
O1    Zn1   2.098051 S    
C10   C11   1.542343 S    
O51   H30   0.990562 S    
C60   S20   1.902239 S    
C1    C17   1.584112 S    
S15   O100  1.500951 D    
O14   C39   1.316032 A    
C6    N1    1.454671 S    
C26   C40   1.486822 S    
C53   H22   1.073762 S    
N4    O44   1.297075 A    
C23   S7    1.829838 S    
S9    O66   1.503031 D    
N4    O43   1.303168 A    
C27   H12   1.109221 S    
N8    O55   1.284164 A    
C54   C58   1.602482 S    
O17   C41   1.321729 A    
S20   O121  1.498290 D    
S4    O40   1.686160 S    
C26   C28   1.576317 S    
S18   O109  1.497250 D    
N19   O118  1.300489 A    
C34   C36   1.585742 S    
O11   C38   1.344335 A    
C15   C19   1.650885 S    
C29   C30   1.652621 S    
C15   C17   1.636041 S    
C9    H2    1.110009 S    
O37   H28   0.990542 S    
C11   N17   1.450846 S    
C18   C19   1.621646 S    
O40   H29   0.990933 S    
C48   C52   1.601771 S    
S5    O51   1.667348 S    
S19   O116  1.493689 D    
C60   S21   1.782178 S    
C21   C22   1.593026 S    
N19   O119  1.292285 A    
C32   S12   1.858980 S    
O21   C43   1.316027 A    
N11   O81   1.298418 A    
C19   S2    1.819462 S    
S10   O70   1.682115 S    
O3    Zn1   2.119140 S    
N13   O88   1.304510 A    
C14   N2    1.481102 S    
N15   O92   1.298412 A    
C55   C59   1.557817 S    
C22   N6    1.450023 S    
O22   C43   1.359008 A    
O70   H35   0.990637 S    
N18   O114  1.302638 A    
C20   H6    1.084228 S    
C45   N13   1.471751 S    
Zn1   O7    2.105235 S    
O67   H34   0.990783 S    
S2    O33   1.504488 D    
C16   S3    1.864973 S    
C29   S10   1.889030 S    
C30   C34   1.633715 S    
O18   Zn6   2.104768 S    
C59   N18   1.467545 S    
N10   O80   1.284833 A    
C32   C33   1.593804 S    
N7    O52   1.302806 A    
S20   O122  1.672141 S    
Zn2   O8    2.119140 S    
S11   O75   1.678083 S    
C21   N4    1.509487 S    
S12   O78   1.684874 S    
N7    O53   1.298707 A    
S13   O83   1.491459 D    
C13   H4    1.078648 S    
C58   C60   1.637578 S    
C6    C7    1.531630 S    
C30   N9    1.490023 S    
N5    O45   1.277908 A    
O12   C38   1.325136 A    
C47   C49   1.602310 S    
C23   C25   1.670833 S    
S5    O49   1.496101 D    
N2    O28   1.301083 A    
N1    O26   1.300688 A    
C56   S19   1.931318 S    
S16   O103  1.487750 D    
N5    O46   1.306084 A    
O3    C2    1.327131 A    
O58   H31   0.990642 S    
C31   S11   1.782527 S    
C56   N19   1.499107 S    
O8    C4    1.361007 A    
C14   C18   1.519622 S    
S11   O73   1.492396 D    
S6    O58   1.686130 S    
N16   O95   1.302406 A    
C31   C33   1.630516 S    
C47   N15   1.480459 S    
S14   O97   1.501225 D    
O15   C40   1.306727 A    
S22   O127  1.506451 D    
Zn2   O6    2.098052 S    
C16   S4    1.799094 S    
S15   O99   1.497726 D    
C22   C26   1.554566 S    
S1    O30   1.499827 D    
C29   S9    1.905546 S    
C13   S22   1.749386 S    
O20   Zn6   2.131003 S    
C30   H13   1.107966 S    
C53   C57   1.588695 S    
C48   S14   1.853442 S    
O19   Zn5   2.123912 S    
N8    O54   1.304483 A    
C35   S13   1.849170 S    
N12   O86   1.296217 A    
Zn1   O5    2.155521 S    
C31   N11   1.498023 S    
C10   H3    1.108386 S    
C26   C27   1.524059 S    
C28   H11   1.077728 S    
C39   C57   1.489722 S    
N9    O72   1.294676 A    
C58   C59   1.593065 S    
Zn5   O21   2.104675 S    
C9    C10   1.557899 S    
C19   H8    1.106469 S    
C13   C14   1.517939 S    
C16   C17   1.647178 S    
O2    Zn2   2.155520 S    
C24   C25   1.679192 S    
Zn6   O24   2.124010 S    
C54   S17   1.769347 S    
S19   O115  1.497881 D    
O6    C3    1.355000 A    
C15   N3    1.467983 S    
O4    Zn2   2.105237 S    
Zn4   O14   2.068629 S    
N2    O27   1.301423 A    
N15   O93   1.298818 A    
C5    H1    1.104144 S    
C4    C25   1.613363 S    
N13   O89   1.285436 A    
S4    O38   1.482912 D    
C43   C58   1.561347 S    
C50   C52   1.612013 S    
S14   O96   1.496961 D    
S17   O107  1.667592 S    
C55   S18   1.875667 S    
O12   Zn4   2.116845 S    
O10   C37   1.338903 A    
N17   O111  1.300009 A    
S12   O77   1.503576 D    
C53   C54   1.551448 S    
O128  H47   0.990727 S    
S2    O34   1.676162 S    
C24   N8    1.461589 S    
S8    O62   1.498785 D    
C56   C57   1.667659 S    
C36   N10   1.431897 S    
O13   C39   1.339134 A    
O125  H46   0.986799 S    
O18   C41   1.338575 A    
S10   O68   1.502208 D    
O31   H26   0.990537 S    
C55   C57   1.583407 S    
S7    O60   1.503413 D    
C47   C51   1.572294 S    
S1    O31   1.684732 S    
S3    O37   1.681981 S    
C15   S1    1.875246 S    
C2    C12   1.528818 S    
O104  H41   0.990357 S    
C16   C20   1.559191 S    
C52   H19   1.094155 S    
S13   O84   1.481248 D    
O19   C42   1.364258 A    
S17   O106  1.502965 D    
O34   H27   0.990654 S    
S16   O104  1.684524 S    
N12   O87   1.303049 A    
H10   C27   1.109469 S    
N6    O48   1.301659 A    
C36   H16   1.104632 S    
C8    S8    1.791479 S    
S18   O110  1.677777 S    
C51   N16   1.483138 S    
S14   O98   1.682177 S    
N16   O94   1.299445 A    
C24   C28   1.602240 S    
O85   H38   0.991246 S    
C47   H20   1.115072 S    
S3    O36   1.502004 D    
C50   C51   1.613735 S    
S7    O59   1.477557 D    
O23   C44   1.344693 A    
C48   C49   1.636805 S    
N3    O41   1.303189 A    
C24   N7    1.496986 S    
S22   O126  1.484836 D    
O110  H43   0.990666 S    
C22   H9    1.101209 S    
O1    C1    1.331280 A    
S1    O29   1.494436 D    
O101  H40   0.990391 S    
C23   C27   1.516865 S    
C34   C44   1.540197 S    
C59   H25   1.091124 S    
N3    O42   1.296399 A    
S9    O65   1.502351 D    
O122  H45   0.990780 S    
O107  H42   0.984972 S    
O98   H39   0.990673 S    
S20   O120  1.496793 D    
S7    O61   1.680917 S    
S21   O123  1.486587 D    
