data_mof_unit_42181.cif
_audit_creation_date              2012-12-10T18:36:09-0500
_audit_creation_method            fapswitch 2.2
_symmetry_space_group_name_H-M    P1
_symmetry_Int_Tables_number       1
_space_group_crystal_system       triclinic
_cell_length_a                    15.080563
_cell_length_b                    13.973361
_cell_length_c                    15.013917
_cell_angle_alpha                 90.044218
_cell_angle_beta                  90.598916
_cell_angle_gamma                 89.908562
_cell_volume                      3163.64716014

loop_
_atom_site_label
_atom_site_type_symbol
_atom_type_description
_atom_site_fract_x
_atom_site_fract_y
_atom_site_fract_z
_atom_type_partial_charge
C1    C     C_R   0.329890 0.500036 0.497624 0.888613
C2    C     C_R   0.670122 0.499886 0.502276 0.889652
C3    C     C_R   0.340620 0.469721 0.043314 0.374173
C4    C     C_R   0.663345 0.498480 0.957426 0.348813
C5    C     C_R   0.094765 0.585512 0.470984 0.422778
C6    C     C_R   0.904872 0.412700 0.527940 0.428790
C7    C     C_R   0.905098 0.584131 0.531656 0.426209
C8    C     C_R   0.095476 0.414082 0.467994 0.424585
C9    C     C_R   0.186612 0.586120 0.480122 -0.234710
C10   C     C_R   0.812901 0.412788 0.519298 -0.188732
C11   C     C_R   0.813241 0.585094 0.522689 -0.228349
C12   C     C_R   0.187407 0.413792 0.476972 -0.188315
C13   C     C_R   0.233130 0.499941 0.489505 -0.150968
C14   C     C_R   0.766915 0.499391 0.510178 -0.148538
C15   C     C_R   0.047828 0.499339 0.485425 -0.051129
C16   C     C_R   0.952259 0.498681 0.513800 -0.050836
C17   C     C_R   0.508660 0.105873 0.579330 0.243914
C18   C     C_R   0.426268 0.892568 0.469082 0.218092
C19   C     C_R   0.491635 0.105583 0.420938 0.239916
C20   C     C_R   0.573733 0.892260 0.531362 0.218627
C21   C     C_R   0.517481 0.206996 0.576852 0.454316
C22   C     C_R   0.431479 0.791446 0.460597 0.443862
C23   C     C_R   0.482604 0.206794 0.423152 0.458651
C24   C     C_R   0.568406 0.791174 0.539733 0.447796
C25   C     C_R   0.500082 0.053261 0.500195 -0.025108
C26   C     C_R   0.500032 0.944834 0.500240 -0.018908
C27   C     C_R   0.501027 0.500352 0.329224 0.941832
C28   C     C_R   0.498465 0.500489 0.670896 0.937573
C29   C     C_R   0.581438 0.494170 0.813193 0.285553
C30   C     C_R   0.420595 0.486779 0.186330 0.278774
C31   C     C_R   0.500371 0.502971 0.767660 -0.253999
C32   C     C_R   0.500127 0.502296 0.232704 -0.241286
C33   C     C_R   0.421727 0.522434 0.813273 0.403145
C34   C     C_R   0.578057 0.526246 0.188276 0.384337
C35   C     C_R   0.419200 0.508903 0.906143 -0.080136
C36   C     C_R   0.581075 0.518082 0.094878 -0.090694
C37   C     C_R   0.501000 0.503835 0.953395 -0.138651
C38   C     C_R   0.500484 0.503618 0.046945 -0.134660
C39   C     C_R   0.583087 0.499445 0.907387 -0.075202
C40   C     C_R   0.419571 0.487851 0.092419 -0.054516
C41   C     C_R   0.337915 0.494768 0.951637 0.351652
C42   C     C_R   0.662573 0.521048 0.048987 0.330493
Cu1   Cu    Cu3+1 0.500000 0.596430 0.500000 1.012849
Cu2   Cu    Cu3+1 0.500000 0.403570 0.500000 1.046803
H1    H     H_    0.221488 0.653341 0.474267 0.237061
H2    H     H_    0.777458 0.345808 0.525356 0.182032
H3    H     H_    0.778203 0.651996 0.531094 0.235716
H4    H     H_    0.223056 0.347150 0.468398 0.183048
N1    N     N_R   0.500000 0.258690 0.500000 -0.303623
N2    N     N_R   0.500000 0.741310 0.500000 -0.294235
O1    O     O_R   0.371460 0.581430 0.500010 -0.543738
O2    O     O_R   0.628540 0.418570 0.499990 -0.599352
O3    O     O_R   0.628540 0.581430 0.499990 -0.541678
O4    O     O_R   0.371460 0.418570 0.500010 -0.594397
O5    O     O_R   0.499980 0.581440 0.370260 -0.605595
O6    O     O_R   0.500020 0.418560 0.629740 -0.511616
O7    O     O_R   0.500020 0.581440 0.629740 -0.604692
O8    O     O_R   0.499980 0.418560 0.370260 -0.511027
Cl1   Cl    Cl    0.678889 0.487611 0.747921 -0.656102
Cl2   Cl    Cl    0.321822 0.482975 0.248891 -0.719600
O9    O     O_3   0.348765 0.557038 0.766585 -0.547681
C43   C     C_3   0.357477 0.658006 0.759260 0.012240
H5    H     H_    0.420947 0.679776 0.728827 0.154259
H6    H     H_    0.355938 0.693126 0.825706 0.122070
C44   C     C_3   0.282717 0.697770 0.701296 -0.666987
H7    H     H_    0.217345 0.681062 0.730568 0.245161
H8    H     H_    0.289418 0.776654 0.695616 0.224326
H9    H     H_    0.285896 0.666084 0.633743 0.255292
O10   O     O_3   0.651241 0.555796 0.237514 -0.536243
C45   C     C_3   0.649418 0.656979 0.243081 0.059207
H10   H     H_    0.588273 0.683441 0.275581 0.143554
H11   H     H_    0.651808 0.690253 0.175930 0.124534
C46   C     C_3   0.728508 0.691280 0.298025 -0.661163
H12   H     H_    0.730042 0.770717 0.298996 0.217803
H13   H     H_    0.722980 0.665019 0.367367 0.249572
H14   H     H_    0.791263 0.664140 0.269331 0.257261
O11   O     O_3   0.260271 0.482558 0.902814 -0.522934
C47   C     C_3   0.206607 0.565575 0.910372 0.060863
H15   H     H_    0.239643 0.629460 0.883955 0.162829
H16   H     H_    0.190223 0.583092 0.980200 0.080070
C48   C     C_3   0.120602 0.550625 0.858231 -0.683621
H17   H     H_    0.082798 0.489972 0.886675 0.225897
H18   H     H_    0.079191 0.616300 0.861561 0.204821
H19   H     H_    0.135283 0.534785 0.787378 0.279549
O12   O     O_3   0.742109 0.527015 0.096457 -0.534214
C49   C     C_3   0.795017 0.604441 0.066752 0.120415
H20   H     H_    0.780149 0.669386 0.106079 0.137583
H21   H     H_    0.785301 0.624075 0.995550 0.164254
C50   C     C_3   0.892379 0.579819 0.081644 -0.737615
H22   H     H_    0.910462 0.515849 0.041882 0.239263
H23   H     H_    0.934496 0.640802 0.060860 0.201436
H24   H     H_    0.905170 0.564758 0.153273 0.263078
O13   O     O_3   0.283383 0.400227 0.076823 -0.541695
C51   C     C_3   0.194755 0.432053 0.083443 0.120196
H25   H     H_    0.160547 0.425486 0.018217 0.181313
H26   H     H_    0.190671 0.506331 0.109996 0.156105
C52   C     C_3   0.144184 0.366856 0.146336 -0.680195
H27   H     H_    0.172735 0.369967 0.214622 0.291613
H28   H     H_    0.073754 0.389951 0.149192 0.206093
H29   H     H_    0.146645 0.291845 0.121960 0.244596
O14   O     O_3   0.743759 0.480293 0.917061 -0.531549
C53   C     C_3   0.772278 0.386785 0.939049 0.112285
H30   H     H_    0.719937 0.332993 0.923886 0.135768
H31   H     H_    0.790569 0.381412 0.010786 0.181078
C54   C     C_3   0.854038 0.362492 0.884888 -0.692831
H32   H     H_    0.908446 0.413314 0.900958 0.234833
H33   H     H_    0.876549 0.288692 0.900730 0.201536
H34   H     H_    0.838451 0.367059 0.812571 0.290758
Cl3   Cl    Cl    0.047174 0.683574 0.413643 -0.531054
Cl4   Cl    Cl    0.952031 0.314129 0.584812 -0.514028
Cl5   Cl    Cl    0.952471 0.679619 0.592762 -0.529989
Cl6   Cl    Cl    0.048767 0.318278 0.406870 -0.528598
Cl7   Cl    Cl    0.508478 0.046818 0.683369 -0.567995
Cl8   Cl    Cl    0.325511 0.951804 0.443394 -0.528823
Cl9   Cl    Cl    0.493001 0.045917 0.317144 -0.577044
Cl10  Cl    Cl    0.674480 0.951017 0.557403 -0.530744
O15   O     O_3   0.542193 0.252296 0.654594 -0.517539
C55   C     C_3   0.635266 0.245114 0.666348 0.146058
H35   H     H_    0.666473 0.311943 0.642344 0.187823
H36   H     H_    0.666597 0.183779 0.630573 0.156287
C56   C     C_3   0.656362 0.233621 0.764951 -0.662216
H37   H     H_    0.623838 0.291364 0.803446 0.255416
H38   H     H_    0.631854 0.163588 0.789139 0.273973
H39   H     H_    0.729163 0.236751 0.775944 0.204823
O16   O     O_3   0.362891 0.742613 0.419329 -0.533086
C57   C     C_3   0.365221 0.757594 0.326059 0.091574
H40   H     H_    0.412743 0.707286 0.295131 0.154540
H41   H     H_    0.384862 0.831533 0.306816 0.178281
C58   C     C_3   0.273518 0.738870 0.286708 -0.643996
H42   H     H_    0.225412 0.791609 0.313348 0.289101
H43   H     H_    0.275381 0.745516 0.213052 0.187226
H44   H     H_    0.251067 0.665774 0.304187 0.279268
O17   O     O_3   0.458518 0.252043 0.345106 -0.519813
C59   C     C_3   0.365871 0.242821 0.330965 0.109643
H45   H     H_    0.332821 0.309459 0.353247 0.190815
H46   H     H_    0.334708 0.181743 0.367001 0.158932
C60   C     C_3   0.347282 0.228939 0.231980 -0.584307
H47   H     H_    0.377709 0.287497 0.193095 0.282020
H48   H     H_    0.375233 0.159841 0.209046 0.266857
H49   H     H_    0.274686 0.228230 0.219520 0.208676
O18   O     O_3   0.636530 0.742105 0.581760 -0.534194
C61   C     C_3   0.633851 0.757948 0.674962 0.080435
H50   H     H_    0.588866 0.705508 0.706311 0.157780
H51   H     H_    0.610780 0.830924 0.693966 0.175033
C62   C     C_3   0.726371 0.744107 0.714271 -0.615070
H52   H     H_    0.772223 0.798336 0.686598 0.286081
H53   H     H_    0.724429 0.752200 0.787814 0.190270
H54   H     H_    0.751739 0.671688 0.698043 0.283537

loop_
_geom_bond_atom_site_label_1
_geom_bond_atom_site_label_2
_ccdc_geom_bond_type
Cu2   N1    S    
C38   C40   A    
C9    H1    S    
O13   C51   S    
C6    Cl4   S    
C46   H12   S    
C36   C42   A    
C18   C26   A    
C12   H4    S    
C18   Cl8   S    
C59   C60   S    
C21   N1    A    
C48   H17   S    
C28   O6    A    
C17   Cl7   S    
C28   O7    A    
C7    C11   A    
C60   H48   S    
C57   H40   S    
C4    C42   A    
C35   C37   A    
C8    Cl6   S    
C41   O11   S    
C53   H31   S    
C11   C14   A    
C49   H21   S    
C23   N1    A    
C15   C16   S    
C53   C54   S    
C9    C13   A    
C55   H35   S    
C56   H39   S    
C21   O15   S    
C52   H28   S    
C11   H3    S    
Cu1   O3    S    
C20   C24   A    
Cu2   O8    S    
C44   H8    S    
C30   Cl2   S    
C10   H2    S    
C43   H6    S    
C31   C33   A    
C45   H10   S    
C50   H23   S    
C34   C36   A    
O9    C43   S    
C22   N2    A    
C58   H44   S    
Cu2   O2    S    
C46   H13   S    
C61   C62   S    
O10   C45   S    
C45   C46   S    
C2    C14   S    
C62   H53   S    
C52   H27   S    
C24   N2    A    
C37   C39   A    
C54   H34   S    
C5    C15   A    
C23   O17   S    
O14   C53   S    
C29   Cl1   S    
C10   C14   A    
C20   Cl10  S    
C49   H20   S    
C22   O16   S    
C59   H46   S    
C57   C58   S    
C25   C26   S    
O11   C47   S    
C2    O3    A    
C17   C21   A    
C49   C50   S    
C55   C56   S    
C32   C34   A    
C19   C23   A    
Cu1   Cu2   S    
C5    C9    A    
C37   C38   A    
C54   H33   S    
Cu2   O6    S    
C4    C39   A    
C19   Cl9   S    
C24   O18   S    
C8    C12   A    
C44   H9    S    
C4    O14   S    
C29   C39   A    
C43   H5    S    
C56   H37   S    
C47   H16   S    
C30   C40   A    
C51   H25   S    
C3    O13   S    
C42   O12   S    
C50   H24   S    
C51   H26   S    
C1    O1    A    
C34   O10   S    
O12   C49   S    
C35   C41   A    
C2    O2    A    
C1    O4    A    
Cu1   O5    S    
C7    C16   A    
C3    C40   A    
C8    C15   A    
O16   C57   S    
C46   H14   S    
C61   H51   S    
C1    C13   S    
C62   H52   S    
C48   H19   S    
C62   H54   S    
C58   H42   S    
C54   H32   S    
C3    C41   A    
C57   H41   S    
C52   H29   S    
C43   C44   S    
C27   C32   S    
C18   C22   A    
C28   C31   S    
C27   O8    A    
C48   H18   S    
Cu1   N2    S    
C59   H45   S    
C60   H47   S    
C51   C52   S    
C17   C25   A    
C36   C38   A    
C29   C31   A    
O15   C55   S    
C30   C32   A    
C47   H15   S    
C47   C48   S    
Cu1   O1    S    
O17   C59   S    
C20   C26   A    
C60   H49   S    
C33   C35   A    
C7    Cl5   S    
C27   O5    A    
C53   H30   S    
C19   C25   A    
C55   H36   S    
C56   H38   S    
C6    C10   A    
Cu1   O7    S    
C6    C16   A    
Cu2   O4    S    
C12   C13   A    
C33   O9    S    
C44   H7    S    
C61   H50   S    
C45   H11   S    
C5    Cl3   S    
C50   H22   S    
O18   C61   S    
C58   H43   S    
