data_mof_unit_33806.cif
_audit_creation_date              2012-12-11T15:36:47-0500
_audit_creation_method            fapswitch 2.2
_symmetry_space_group_name_H-M    P1
_symmetry_Int_Tables_number       1
_space_group_crystal_system       triclinic
_cell_length_a                    15.052835
_cell_length_b                    15.078222
_cell_length_c                    34.851795
_cell_angle_alpha                 91.217473
_cell_angle_beta                  91.655011
_cell_angle_gamma                 60.114108
_cell_volume                      6855.31848735

loop_
_atom_site_label
_atom_site_type_symbol
_atom_type_description
_atom_site_fract_x
_atom_site_fract_y
_atom_site_fract_z
_atom_type_partial_charge
C1    C     C_R   0.610937 0.301998 0.444064 0.558470
C2    C     C_R   0.742328 0.687115 0.182839 0.031104
C3    C     C_R   0.618599 0.141676 0.829368 0.040093
C4    C     C_R   0.686051 0.164492 0.850218 -0.098138
C5    C     C_R   0.713570 0.132579 0.887984 -0.115129
C6    C     C_R   0.598033 0.249907 0.772874 -0.115301
C7    C     C_R   0.601994 0.260580 0.733504 -0.112274
C8    C     C_R   0.610348 0.183491 0.708132 0.029738
C9    C     C_R   0.609914 0.097577 0.722457 -0.101301
C10   C     C_R   0.607317 0.086138 0.762022 -0.089115
C11   C     C_R   0.603832 0.161195 0.787631 0.037800
C12   C     C_R   0.551871 0.190081 0.640046 -0.121906
C13   C     C_R   0.827134 0.620429 0.160949 -0.123475
C14   C     C_R   0.551693 0.217337 0.601983 -0.122729
C15   C     C_R   0.696845 0.241326 0.616641 -0.126025
C16   C     C_R   0.696005 0.215520 0.654702 -0.117263
C17   C     C_R   0.621256 0.193387 0.666904 0.029239
C18   C     C_R   0.621776 0.246963 0.590327 0.022767
C19   C     C_R   0.045351 0.739149 0.048611 0.539918
C20   C     C_R   0.747356 0.746741 0.064103 0.543840
C21   C     C_R   0.751132 0.040404 0.050662 0.540924
C22   C     C_R   0.016198 0.722800 0.939561 0.545292
C23   C     C_R   0.717270 0.730187 0.954882 0.542589
C24   C     C_R   0.826549 0.635499 0.121531 -0.127393
C25   C     C_R   0.721567 0.024195 0.942024 0.544700
C26   C     C_R   0.776043 0.582208 0.241511 -0.116248
C27   C     C_R   0.767061 0.575488 0.280907 -0.113205
C28   C     C_R   0.727355 0.663756 0.304230 0.029197
C29   C     C_R   0.702013 0.757837 0.287760 -0.116734
C30   C     C_R   0.710378 0.764600 0.248361 -0.116829
C31   C     C_R   0.744727 0.677341 0.224840 0.026769
C32   C     C_R   0.606754 0.734049 0.358726 -0.114854
C33   C     C_R   0.593441 0.610159 0.449418 0.545128
C34   C     C_R   0.573941 0.721255 0.394103 -0.120638
C35   C     C_R   0.733239 0.561569 0.402690 -0.125388
C36   C     C_R   0.766174 0.574578 0.367357 -0.120116
C37   C     C_R   0.701730 0.659124 0.344461 0.031607
C38   C     C_R   0.635328 0.633046 0.415753 0.021207
C39   C     C_R   0.101600 0.728857 0.085130 0.021268
C40   C     C_R   0.147900 0.634837 0.104385 -0.125728
C41   C     C_R   0.170659 0.630708 0.143519 -0.122198
C42   C     C_R   0.148915 0.720114 0.163932 0.029920
C43   C     C_R   0.113394 0.812031 0.144073 -0.121502
C44   C     C_R   0.303867 0.591501 0.442398 0.542769
C45   C     C_R   0.089693 0.816482 0.104814 -0.127692
C46   C     C_R   0.208551 0.755157 0.227197 -0.117716
C47   C     C_R   0.216074 0.747058 0.267174 -0.113694
C48   C     C_R   0.166263 0.703803 0.286670 0.029326
C49   C     C_R   0.105851 0.672392 0.265481 -0.117060
C50   C     C_R   0.099598 0.679183 0.225609 -0.114986
C51   C     C_R   0.152479 0.718713 0.206168 0.026305
C52   C     C_R   0.199628 0.590472 0.342997 -0.117300
C53   C     C_R   0.231198 0.563877 0.381057 -0.117880
C54   C     C_R   0.228019 0.724763 0.391376 -0.126255
C55   C     C_R   0.605722 0.300212 0.553635 0.542918
C56   C     C_R   0.195684 0.751709 0.353326 -0.120422
C57   C     C_R   0.184577 0.683299 0.328387 0.031042
C58   C     C_R   0.249411 0.629060 0.405226 0.018501
C59   C     C_R   0.723888 0.098449 0.086990 0.023193
C60   C     C_R   0.797300 0.112742 0.107679 -0.127464
C61   C     C_R   0.782418 0.141732 0.146252 -0.122909
C62   C     C_R   0.693794 0.157327 0.164550 0.032308
C63   C     C_R   0.616320 0.152433 0.142891 -0.119808
C64   C     C_R   0.631198 0.123337 0.104399 -0.125463
C65   C     C_R   0.593414 0.236274 0.223779 -0.116425
C66   C     C_R   0.587619 0.606503 0.559026 0.542460
C67   C     C_R   0.585534 0.240973 0.263585 -0.113720
C68   C     C_R   0.670711 0.177339 0.286900 0.028700
C69   C     C_R   0.763829 0.108713 0.269823 -0.115716
C70   C     C_R   0.771647 0.103781 0.230020 -0.115229
C71   C     C_R   0.686586 0.167753 0.206662 0.029228
C72   C     C_R   0.739350 0.197076 0.350159 -0.129361
C73   C     C_R   0.724703 0.225447 0.388640 -0.144160
C74   C     C_R   0.562260 0.227030 0.386395 0.080551
C75   C     C_R   0.577652 0.199226 0.347605 -0.098227
C76   C     C_R   0.663745 0.188450 0.328948 0.007535
C77   C     C_R   0.297764 0.589164 0.551668 0.540829
C78   C     C_R   0.633761 0.246509 0.406840 0.029903
C79   C     C_R   0.692197 0.690425 0.919638 0.021742
C80   C     C_R   0.766950 0.598544 0.902882 -0.126760
C81   C     C_R   0.755337 0.574770 0.864835 -0.122448
C82   C     C_R   0.668832 0.642383 0.842910 0.033245
C83   C     C_R   0.589799 0.729235 0.860795 -0.118687
C84   C     C_R   0.601206 0.752858 0.898858 -0.126718
C85   C     C_R   0.573436 0.654384 0.781375 -0.119919
C86   C     C_R   0.568468 0.653939 0.741372 -0.117784
C87   C     C_R   0.655964 0.627994 0.720008 0.027317
C88   C     C_R   0.740835 0.717172 0.103500 0.021453
C89   C     C_R   0.749271 0.599567 0.739269 -0.111723
C90   C     C_R   0.754135 0.600730 0.779309 -0.107103
C91   C     C_R   0.665926 0.629395 0.800766 0.029457
C92   C     C_R   0.720645 0.546879 0.655984 -0.122100
C93   C     C_R   0.705443 0.542807 0.616421 -0.127746
C94   C     C_R   0.551935 0.709294 0.619398 -0.124842
C95   C     C_R   0.566832 0.712949 0.658917 -0.121486
C96   C     C_R   0.649114 0.630167 0.677698 0.031047
C97   C     C_R   0.618619 0.622231 0.597999 0.021770
C98   C     C_R   0.059600 0.701363 0.901095 0.024489
C99   C     C_R   0.653843 0.779804 0.125205 -0.124460
C100  C     C_R   0.088138 0.767675 0.884783 -0.116419
C101  C     C_R   0.108580 0.760863 0.845801 -0.091592
C102  C     C_R   0.099173 0.688808 0.822670 0.049914
C103  C     C_R   0.077369 0.618189 0.839298 -0.116300
C104  C     C_R   0.057908 0.624207 0.878343 -0.123937
C105  C     C_R   0.188361 0.596620 0.764299 -0.145386
C106  C     C_R   0.201880 0.590791 0.724921 -0.126383
C107  C     C_R   0.139631 0.675309 0.701784 0.003074
C108  C     C_R   0.063168 0.765817 0.718318 -0.092980
C109  C     C_R   0.047824 0.771754 0.757850 0.098396
C110  C     C_R   0.654789 0.765097 0.164519 -0.120267
C111  C     C_R   0.111974 0.686757 0.781099 0.032794
C112  C     C_R   0.184248 0.734198 0.643151 -0.119705
C113  C     C_R   0.223491 0.712976 0.606215 -0.128004
C114  C     C_R   0.199844 0.565118 0.602620 -0.124404
C115  C     C_R   0.161672 0.585837 0.639534 -0.120068
C116  C     C_R   0.157613 0.667929 0.660494 0.030036
C117  C     C_R   0.235749 0.625573 0.586361 0.021881
C118  C     C_R   0.674453 0.076965 0.905734 0.023182
C119  C     C_R   0.601605 0.059997 0.885903 -0.124190
C120  C     C_R   0.574145 0.091840 0.847885 -0.118410
Cr1   Cr    Cr6+3 0.426010 0.422500 0.497000 1.056779
Cr2   Cr    Cr6+3 0.651300 0.426310 0.501970 1.012471
Cr3   Cr    Cr6+3 0.422670 0.651170 0.501050 1.014797
Cr4   Cr    Cr6+3 0.905130 0.911420 0.992650 1.014693
Cr5   Cr    Cr6+3 0.911860 0.682710 0.002320 1.010116
Cr6   Cr    Cr6+3 0.682710 0.906840 0.004710 1.010632
H1    H     H_    0.586517 0.843169 0.112178 0.128347
H2    H     H_    0.498188 0.777697 0.403438 0.133267
H3    H     H_    0.895304 0.559562 0.174592 0.100231
H4    H     H_    0.782745 0.493293 0.418970 0.126134
H5    H     H_    0.158938 0.565855 0.089938 0.124451
H6    H     H_    0.053884 0.890102 0.090794 0.124113
H7    H     H_    0.182574 0.824665 0.343097 0.102333
H8    H     H_    0.264299 0.770750 0.282616 0.104337
H9    H     H_    0.249448 0.786252 0.212606 0.105082
H10   H     H_    0.199836 0.558713 0.158347 0.104525
H11   H     H_    0.064769 0.640916 0.279676 0.107419
H12   H     H_    0.894924 0.586272 0.105595 0.126391
H13   H     H_    0.053918 0.652842 0.209819 0.110785
H14   H     H_    0.192869 0.535463 0.324488 0.108741
H15   H     H_    0.247159 0.489546 0.390811 0.160072
H16   H     H_    0.096543 0.881722 0.159433 0.101783
H17   H     H_    0.240669 0.776987 0.409412 0.125738
H18   H     H_    0.869379 0.094368 0.094974 0.122393
H19   H     H_    0.573009 0.113565 0.089047 0.120819
H20   H     H_    0.520694 0.188771 0.331625 0.128006
H21   H     H_    0.513496 0.296029 0.276204 0.110933
H22   H     H_    0.526965 0.286687 0.206378 0.103363
H23   H     H_    0.840449 0.516617 0.357285 0.105140
H24   H     H_    0.842324 0.147113 0.162266 0.100923
H25   H     H_    0.830292 0.058566 0.287279 0.108042
H26   H     H_    0.843682 0.048455 0.217478 0.107572
H27   H     H_    0.806819 0.188557 0.336401 0.109987
H28   H     H_    0.782299 0.237346 0.403375 0.136486
H29   H     H_    0.547344 0.163895 0.156321 0.101360
H30   H     H_    0.837586 0.548347 0.918261 0.122154
H31   H     H_    0.542119 0.824139 0.910929 0.124611
H32   H     H_    0.511898 0.778919 0.675069 0.104733
H33   H     H_    0.785874 0.502171 0.292722 0.105325
H34   H     H_    0.496124 0.673908 0.727062 0.108077
H35   H     H_    0.504660 0.675442 0.797149 0.102906
H36   H     H_    0.816355 0.506078 0.851990 0.100613
H37   H     H_    0.817592 0.579522 0.723341 0.108351
H38   H     H_    0.826085 0.583020 0.793418 0.108371
H39   H     H_    0.784821 0.482249 0.669905 0.102806
H40   H     H_    0.758188 0.474643 0.600751 0.123828
H41   H     H_    0.522387 0.783108 0.844619 0.102039
H42   H     H_    0.484581 0.771972 0.606087 0.128378
H43   H     H_    0.090594 0.827374 0.901817 0.122220
H44   H     H_    0.802498 0.514086 0.223824 0.105044
H45   H     H_    0.035549 0.572506 0.890147 0.126012
H46   H     H_    0.140341 0.534670 0.652547 0.108883
H47   H     H_    0.262042 0.520681 0.712496 0.117298
H48   H     H_    0.237839 0.530782 0.781789 0.111104
H49   H     H_    0.128307 0.813909 0.833397 0.129615
H50   H     H_    0.014224 0.830800 0.700387 0.134683
H51   H     H_    0.181574 0.797848 0.659148 0.109007
H52   H     H_    0.250084 0.761139 0.594275 0.125552
H53   H     H_    0.071340 0.561169 0.821742 0.105466
H54   H     H_    0.587672 0.815963 0.180807 0.105276
H55   H     H_    0.207097 0.497982 0.587840 0.132064
H56   H     H_    0.570691 0.016775 0.898900 0.124609
H57   H     H_    0.769731 0.146848 0.902642 0.127486
H58   H     H_    0.750955 0.217145 0.675064 0.116187
H59   H     H_    0.599928 0.328552 0.722806 0.110897
H60   H     H_    0.593339 0.309805 0.791875 0.101483
H61   H     H_    0.521072 0.074349 0.832553 0.099409
H62   H     H_    0.615931 0.037609 0.703180 0.112536
H63   H     H_    0.613227 0.016352 0.772602 0.120711
H64   H     H_    0.493852 0.172865 0.649031 0.104843
H65   H     H_    0.672907 0.826649 0.305187 0.110531
H66   H     H_    0.493148 0.220786 0.582252 0.126947
H67   H     H_    0.722676 0.201540 0.836659 0.116474
H68   H     H_    0.751696 0.263868 0.608587 0.127328
H69   H     H_    0.687882 0.838444 0.236081 0.111390
H70   H     H_    0.554945 0.799512 0.341534 0.107870
O1    O     O_R   0.324990 0.503440 0.453910 -0.494451
O2    O     O_R   0.639980 0.519500 0.542640 -0.503487
O3    O     O_R   0.500750 0.673190 0.545480 -0.518316
O4    O     O_R   0.336260 0.640450 0.538210 -0.504198
O5    O     O_3   0.499990 0.499990 0.500010 -0.242800
O6    O     O_R   0.834210 0.019400 0.034570 -0.523011
O7    O     O_R   0.002210 0.824620 0.031030 -0.503639
O8    O     O_R   0.024400 0.669340 0.039790 -0.519630
O9    O     O_R   0.830490 0.694950 0.045870 -0.502129
O10   O     O_R   0.675430 0.831160 0.051290 -0.519040
O11   O     O_R   0.698870 0.998880 0.039560 -0.501814
O12   O     O_R   0.522030 0.339050 0.458320 -0.459053
O13   O     O_R   0.811290 0.006780 0.950620 -0.512528
O14   O     O_R   0.980960 0.812920 0.953200 -0.496995
O15   O     O_R   0.001480 0.656720 0.955830 -0.521313
O16   O     O_R   0.809240 0.683250 0.968050 -0.501839
O17   O     O_R   0.652500 0.818540 0.967340 -0.520699
O18   O     O_R   0.677620 0.987170 0.961730 -0.503568
O19   O     O_3   0.833240 0.833660 0.999890 -0.235346
O20   O     O_R   0.676180 0.324490 0.458320 -0.527535
O21   O     O_R   0.643570 0.521510 0.464260 -0.502842
O22   O     O_R   0.504630 0.675350 0.460920 -0.516527
O23   O     O_R   0.339850 0.642450 0.459830 -0.505056
O24   O     O_R   0.321120 0.501280 0.538470 -0.516918
O25   O     O_R   0.518440 0.337050 0.536710 -0.495765
O26   O     O_R   0.672300 0.322330 0.542880 -0.521164
I1    I     I_    0.427878 0.238571 0.409872 -0.409569
I2    I     I_    0.921644 0.907733 0.779588 -0.444286

loop_
_geom_bond_atom_site_label_1
_geom_bond_atom_site_label_2
_ccdc_geom_bond_type
C8    C9    A    
C15   C18   A    
C59   C60   A    
Cr5   O8    S    
C101  C102  A    
C22   C98   S    
Cr2   O21   S    
C49   H11   S    
C64   H19   S    
C95   H32   S    
C85   H35   S    
C41   C42   A    
C14   C18   A    
C95   C96   A    
C20   O10   A    
C72   C76   A    
C9    H62   S    
C25   C118  S    
C56   H7    S    
Cr5   O15   S    
C7    C8    A    
C33   O22   A    
C56   C57   A    
C59   C64   A    
C62   C63   A    
C115  H46   S    
C66   C97   S    
Cr3   O3    S    
C36   C37   A    
C21   C59   S    
C77   C117  S    
C109  C111  A    
C23   O17   A    
C79   C84   A    
C98   C104  A    
C36   H23   S    
C89   H37   S    
C106  C107  A    
C27   H33   S    
C15   C16   A    
C7    H59   S    
C92   C96   A    
C108  C109  A    
C81   H36   S    
C1    O12   A    
C2    C13   A    
C118  C119  A    
C92   C93   A    
Cr6   O18   S    
C46   H9    S    
C15   H68   S    
C92   H39   S    
C2    C110  A    
C35   C36   A    
C44   C58   S    
C68   C69   A    
C65   C67   A    
C12   C17   A    
C107  C108  A    
C29   H65   S    
C70   C71   A    
C61   H24   S    
C103  H53   S    
C66   O3    A    
C32   H70   S    
C42   C51   S    
C55   O25   A    
C14   H66   S    
C113  H52   S    
C105  C111  A    
C44   O1    A    
C63   C64   A    
C34   C38   A    
C87   C96   S    
C1    C78   S    
C102  C111  S    
C69   C70   A    
C44   O23   A    
Cr2   O26   S    
C20   O9    A    
C112  C113  A    
Cr5   O16   S    
C25   O18   A    
C80   H30   S    
C75   H20   S    
C85   C91   A    
C4    H67   S    
C54   C56   A    
C10   H63   S    
C74   C75   A    
Cr3   O5    S    
Cr4   O7    S    
C102  C103  A    
C69   H25   S    
C47   C48   A    
Cr3   O4    S    
C48   C57   S    
C35   C38   A    
C70   H26   S    
C72   C73   A    
C10   C11   A    
C94   H42   S    
C6    C11   A    
C20   C88   S    
C86   C87   A    
C16   C17   A    
C99   H1    S    
C94   C97   A    
C24   H12   S    
C85   C86   A    
C99   C110  A    
C83   H41   S    
C46   C51   A    
C81   C82   A    
C82   C91   S    
C67   C68   A    
C13   C24   A    
C90   H38   S    
C60   C61   A    
C119  H56   S    
C32   C34   A    
C73   H28   S    
C75   C76   A    
C29   C30   A    
Cr6   O17   S    
C43   C45   A    
C83   C84   A    
C110  H54   S    
Cr6   O11   S    
C73   C78   A    
C22   O15   A    
C1    O20   A    
C19   O7    A    
C50   C51   A    
C26   C27   A    
C94   C95   A    
C32   C37   A    
Cr2   O2    S    
C65   H22   S    
C25   O13   A    
C24   C88   A    
C35   H4    S    
Cr1   O1    S    
C66   O2    A    
C109  I2    S    
C19   C39   S    
C18   C55   S    
C104  H45   S    
C53   C58   A    
C40   C41   A    
Cr3   O22   S    
C12   C14   A    
C93   H40   S    
C49   C50   A    
C98   C100  A    
C105  H48   S    
C55   O26   A    
C47   H8    S    
C74   C78   A    
C54   C58   A    
Cr1   O24   S    
C113  C117  A    
C101  H49   S    
C42   C43   A    
C3    C4    A    
C120  H61   S    
C93   C97   A    
C112  C116  A    
C52   C53   A    
Cr2   O5    S    
C84   H31   S    
C9    C10   A    
C3    C120  A    
Cr3   O23   S    
C46   C47   A    
C28   C29   A    
C13   H3    S    
C72   H27   S    
C100  H43   S    
C50   H13   S    
C21   O6    A    
C40   H5    S    
C108  H50   S    
C23   O16   A    
C33   C38   S    
C80   C81   A    
C119  C120  A    
C16   H58   S    
C77   O24   A    
C114  C115  A    
C6    C7    A    
C33   O21   A    
C68   C76   S    
C114  H55   S    
C12   H64   S    
C105  C106  A    
C6    H60   S    
C8    C17   S    
C39   C45   A    
C5    C118  A    
C21   O11   A    
C87   C89   A    
Cr1   O5    S    
C30   H69   S    
C65   C71   A    
C60   H18   S    
C67   H21   S    
Cr5   O19   S    
C90   C91   A    
C30   C31   A    
Cr4   O14   S    
C28   C37   S    
Cr6   O10   S    
C48   C49   A    
C4    C5    A    
C22   O14   A    
Cr5   O9    S    
C19   O8    A    
C52   H14   S    
C106  H47   S    
Cr2   O20   S    
C62   C71   S    
C54   H17   S    
C53   H15   S    
C61   C62   A    
C77   O4    A    
C107  C116  S    
C88   C99   A    
C3    C11   S    
C52   C57   A    
Cr6   O19   S    
C63   H29   S    
C79   C80   A    
C39   C40   A    
C26   C31   A    
C26   H44   S    
C45   H6    S    
C34   H2    S    
C82   C83   A    
Cr4   O13   S    
Cr4   O6    S    
C103  C104  A    
C74   I1    S    
Cr1   O25   S    
C2    C31   S    
C43   H16   S    
C100  C101  A    
C114  C117  A    
Cr1   O12   S    
C23   C79   S    
C89   C90   A    
C86   H34   S    
C5    H57   S    
C41   H10   S    
C115  C116  A    
C112  H51   S    
C27   C28   A    
Cr4   O19   S    
