data_mof_unit_26740.cif
_audit_creation_date              2012-12-10T18:05:44-0500
_audit_creation_method            fapswitch 2.2
_symmetry_space_group_name_H-M    P1
_symmetry_Int_Tables_number       1
_space_group_crystal_system       triclinic
_cell_length_a                    10.846876
_cell_length_b                    10.808474
_cell_length_c                    9.559953
_cell_angle_alpha                 90.011763
_cell_angle_beta                  91.962788
_cell_angle_gamma                 89.744254
_cell_volume                      1120.12271592

loop_
_atom_site_label
_atom_site_type_symbol
_atom_type_description
_atom_site_fract_x
_atom_site_fract_y
_atom_site_fract_z
_atom_type_partial_charge
C1    C     C_R   0.500170 0.262229 0.499964 0.802935
C2    C     C_R   0.499832 0.737770 0.500036 0.802911
C3    C     C_R   0.871813 0.502199 0.507937 -0.103135
C4    C     C_R   0.128187 0.497788 0.492059 -0.103133
C5    C     C_R   0.943840 0.439847 0.611542 0.104540
C6    C     C_R   0.056159 0.560135 0.388450 0.104527
C7    C     C_R   0.506763 0.063852 0.373308 -0.145106
C8    C     C_R   0.493247 0.936148 0.626692 -0.145092
C9    C     C_R   0.506507 0.935980 0.373312 -0.178857
C10   C     C_R   0.493503 0.064020 0.626689 -0.178792
C11   C     C_R   0.499790 0.871680 0.500012 -0.006507
C12   C     C_R   0.500217 0.128320 0.499988 -0.006481
C13   C     C_R   0.536729 0.397915 0.075423 0.033061
C14   C     C_R   0.463273 0.602086 0.924577 0.033136
C15   C     C_R   0.537223 0.398051 0.927209 -0.051880
C16   C     C_R   0.462779 0.601950 0.072791 -0.051903
C17   C     C_R   0.262223 0.500305 0.497225 0.831952
C18   C     C_R   0.737777 0.499690 0.502774 0.831993
C19   C     C_R   0.130677 0.777165 0.093674 -0.398293
C20   C     C_R   0.869226 0.222848 0.906314 -0.398314
C21   C     C_R   0.103370 0.736495 0.229086 0.475518
C22   C     C_R   0.896511 0.263504 0.770891 0.475430
C23   C     C_R   0.105271 0.608998 0.257638 -0.005963
C24   C     C_R   0.894726 0.391006 0.742361 -0.006016
C25   C     C_R   0.130978 0.524220 0.151811 -0.320059
C26   C     C_R   0.869104 0.475797 0.848204 -0.320161
C27   C     C_R   0.159041 0.564466 0.015866 0.514577
C28   C     C_R   0.841025 0.435562 0.984145 0.514600
C29   C     C_R   0.154287 0.692020 0.987565 0.180904
C30   C     C_R   0.845713 0.308007 0.012443 0.180898
C31   C     C_R   0.929109 0.563874 0.400126 -0.126793
C32   C     C_R   0.070891 0.436116 0.599874 -0.127031
Cu1   Cu    Cu3+1 0.500000 0.500020 0.640660 0.974745
Cu2   Cu    Cu3+1 0.500000 0.499980 0.359340 0.974714
H1    H     H_    0.568216 0.316207 0.873599 0.126058
H2    H     H_    0.431788 0.683795 0.126401 0.126039
H3    H     H_    0.131817 0.874908 0.069533 0.189034
H4    H     H_    0.867996 0.125106 0.930443 0.189025
H5    H     H_    0.124284 0.426859 0.176588 0.176970
H6    H     H_    0.875865 0.573158 0.823446 0.177023
H7    H     H_    0.874103 0.614801 0.323417 0.179302
H8    H     H_    0.125895 0.385205 0.676596 0.179212
H9    H     H_    0.512272 0.111869 0.274301 0.149841
H10   H     H_    0.487738 0.888131 0.725700 0.149839
H11   H     H_    0.511876 0.887820 0.274309 0.139579
H12   H     H_    0.488135 0.112180 0.725692 0.139575
H13   H     H_    0.565738 0.315504 0.131208 0.154370
H14   H     H_    0.434263 0.684498 0.868791 0.154365
N1    N     N_R   0.500030 0.500030 0.852070 -0.155275
N2    N     N_R   0.499970 0.499970 0.147930 -0.155286
O1    O     O_R   0.499990 0.319660 0.618740 -0.606241
O2    O     O_R   0.500010 0.680340 0.381260 -0.606250
O3    O     O_R   0.499990 0.319630 0.381170 -0.591618
O4    O     O_R   0.500010 0.680370 0.618830 -0.591618
O5    O     O_R   0.319650 0.500020 0.618780 -0.521197
O6    O     O_R   0.680350 0.499980 0.381220 -0.521242
O7    O     O_R   0.319640 0.500000 0.381210 -0.594752
O8    O     O_R   0.680360 0.500000 0.618790 -0.594735
Br1   Br    Br    0.175941 0.752646 0.801617 -0.552037
Br2   Br    Br    0.824067 0.247393 0.198398 -0.552038
O9    O     O_3   0.079458 0.818567 0.336709 -0.567434
C33   C     C_3   0.982862 0.900546 0.296633 -0.263335
H15   H     H_    0.945286 0.941873 0.392554 0.215309
H16   H     H_    0.905128 0.852643 0.240268 0.131628
H17   H     H_    0.017911 0.977673 0.232572 0.183393
O10   O     O_3   0.920243 0.181412 0.663234 -0.567397
C34   C     C_3   0.016920 0.099464 0.703149 -0.262891
H18   H     H_    0.982051 0.022480 0.767599 0.183156
H19   H     H_    0.094855 0.147486 0.759078 0.131582
H20   H     H_    0.054159 0.057896 0.607166 0.215381
O11   O     O_3   0.187123 0.485484 0.905821 -0.546127
C35   C     C_3   0.216529 0.363355 0.948205 -0.340673
H21   H     H_    0.260490 0.314881 0.860515 0.181165
H22   H     H_    0.131400 0.311980 0.972354 0.164022
H23   H     H_    0.284195 0.361006 0.038061 0.166502
O12   O     O_3   0.813022 0.514565 0.094198 -0.546180
C36   C     C_3   0.783456 0.636648 0.051773 -0.340683
H24   H     H_    0.739470 0.685098 0.139469 0.181190
H25   H     H_    0.715758 0.638893 0.961938 0.166516
H26   H     H_    0.868514 0.688119 0.027551 0.164007

loop_
_geom_bond_atom_site_label_1
_geom_bond_atom_site_label_2
_ccdc_geom_bond_type
Cu1   O5    S    
Cu2   O6    S    
Cu1   O8    S    
C27   C29   A    
C20   C30   A    
C36   H24   S    
C9    H11   S    
C19   C21   A    
C24   C26   A    
C14   N1    A    
Cu1   N1    S    
C3    C18   S    
C1    O3    A    
C22   O10   S    
C33   H16   S    
C19   H3    S    
C18   O8    A    
C29   Br1   S    
C30   Br2   S    
C10   H12   S    
Cu2   O7    S    
C7    H9    S    
C17   O5    A    
C21   O9    S    
C18   O6    A    
C9    C11   A    
C5    C32   A    
C23   C25   A    
C6    C31   A    
C1    C12   S    
C35   H23   S    
C2    C11   S    
C10   C12   A    
C15   H1    S    
C36   H25   S    
C21   C23   A    
C7    C12   A    
Cu2   N2    S    
C34   H18   S    
O12   C36   S    
C35   H22   S    
C2    O4    A    
C13   H13   S    
C14   H14   S    
C34   H19   S    
C33   H15   S    
C20   H4    S    
Cu1   Cu2   S    
C3    C31   A    
C1    O1    A    
C4    C32   A    
C2    O2    A    
C4    C17   S    
C4    C6    A    
C20   C22   A    
C13   C15   A    
C14   C16   A    
Cu1   O1    S    
C19   C29   A    
C27   O11   S    
C36   H26   S    
Cu1   O4    S    
C7    C9    A    
C31   H7    S    
C33   H17   S    
C26   C28   A    
C8    H10   S    
C16   N2    A    
C35   H21   S    
C3    C5    A    
C25   C27   A    
Cu2   O2    S    
C34   H20   S    
C28   C30   A    
O11   C35   S    
C25   H5    S    
C26   H6    S    
C5    C24   S    
C8    C11   A    
C6    C23   S    
O10   C34   S    
C22   C24   A    
C15   N1    A    
O9    C33   S    
C13   N2    A    
Cu2   O3    S    
C8    C10   A    
C32   H8    S    
C16   H2    S    
C17   O7    A    
C28   O12   S    
