data_mof_unit_25498.cif
_audit_creation_date              2012-12-10T19:00:44-0500
_audit_creation_method            fapswitch 2.2
_symmetry_space_group_name_H-M    P1
_symmetry_Int_Tables_number       1
_space_group_crystal_system       triclinic
_cell_length_a                    15.077563
_cell_length_b                    10.806732
_cell_length_c                    9.569284
_cell_angle_alpha                 89.539714
_cell_angle_beta                  89.406949
_cell_angle_gamma                 91.179759
_cell_volume                      1558.74425185

loop_
_atom_site_label
_atom_site_type_symbol
_atom_type_description
_atom_site_fract_x
_atom_site_fract_y
_atom_site_fract_z
_atom_type_partial_charge
C1    C     C_R   0.498529 0.262460 0.500522 0.802806
C2    C     C_R   0.908700 0.529428 0.376570 0.110166
C3    C     C_R   0.951201 0.440062 0.746624 -0.211880
C4    C     C_R   0.043727 0.441697 0.747428 -0.200900
C5    C     C_R   0.091853 0.471301 0.625108 0.109164
C6    C     C_R   0.046733 0.499966 0.500831 0.061229
C7    C     C_R   0.094492 0.529185 0.376939 0.107937
C8    C     C_R   0.049164 0.558287 0.254190 -0.201727
C9    C     C_R   0.956718 0.558808 0.254122 -0.210125
C10   C     C_R   0.184350 0.472450 0.624675 -0.234065
C11   C     C_R   0.231913 0.500561 0.501321 -0.067332
C12   C     C_R   0.328714 0.500059 0.500567 0.793969
C13   C     C_R   0.186835 0.528780 0.377942 -0.237393
C14   C     C_R   0.510812 0.062441 0.621424 0.117416
C15   C     C_R   0.489072 0.129327 0.502332 -0.169248
C16   C     C_R   0.450795 0.066936 0.388986 -0.159923
C17   C     C_R   0.445423 0.936894 0.387673 -0.033274
C18   C     C_R   0.483030 0.870347 0.500570 -0.194479
C19   C     C_R   0.508498 0.935260 0.619713 0.144167
C20   C     C_3   0.590460 0.925894 0.705315 -0.496245
C21   C     C_3   0.593923 0.066752 0.705465 -0.252351
C22   C     C_R   0.546368 0.588903 0.071801 0.268498
C23   C     C_R   0.495037 0.737313 0.499524 0.792560
C24   C     C_R   0.448117 0.419644 0.078097 -0.022066
C25   C     C_R   0.447339 0.418045 0.929424 0.055854
C26   C     C_R   0.546292 0.589133 0.924521 0.261074
C27   C     C_3   0.643979 0.612546 0.917214 -0.494047
C28   C     C_3   0.644013 0.611559 0.075316 -0.508622
C29   C     C_R   0.671384 0.499723 0.499561 0.817003
C30   C     C_R   0.816321 0.529953 0.377447 -0.243355
C31   C     C_R   0.768392 0.498856 0.499393 -0.075435
C32   C     C_R   0.813440 0.467572 0.621923 -0.247132
C33   C     C_R   0.905878 0.468826 0.623728 0.109951
C34   C     C_R   0.953749 0.499391 0.500387 0.063912
Cu1   Cu    Cu3+1 0.500000 0.499980 0.640670 0.938643
Cu2   Cu    Cu3+1 0.500000 0.500020 0.359330 0.946150
H1    H     H_    0.782070 0.556072 0.283607 0.145585
H2    H     H_    0.575902 0.882358 0.808986 0.206734
H3    H     H_    0.646426 0.884636 0.646529 0.183764
H4    H     H_    0.651808 0.108416 0.647980 0.144435
H5    H     H_    0.407637 0.354504 0.138570 0.185140
H6    H     H_    0.680395 0.533718 0.872699 0.214195
H7    H     H_    0.661768 0.704359 0.870935 0.193715
H8    H     H_    0.679388 0.530922 0.118185 0.213744
H9    H     H_    0.776756 0.441254 0.715707 0.145008
H10   H     H_    0.661925 0.702712 0.121303 0.200302
H11   H     H_    0.915107 0.416757 0.842098 0.145472
H12   H     H_    0.077626 0.419561 0.843486 0.151672
H13   H     H_    0.219169 0.450175 0.719912 0.150033
H14   H     H_    0.223561 0.551357 0.282754 0.156513
H15   H     H_    0.085195 0.580819 0.158438 0.148331
H16   H     H_    0.922780 0.581791 0.158345 0.146167
H17   H     H_    0.425756 0.119562 0.301458 0.207602
N1    N     N_R   0.500570 0.500930 0.147930 -0.218799
N2    N     N_R   0.500570 0.500890 0.852020 -0.235134
O1    O     O_R   0.500000 0.319640 0.618810 -0.605391
O2    O     O_R   0.500010 0.319680 0.381230 -0.573924
O3    O     O_R   0.370250 0.499950 0.618800 -0.616267
O4    O     O_R   0.370260 0.499990 0.381220 -0.595672
O5    O     O_R   0.499990 0.680320 0.618770 -0.561360
O6    O     O_R   0.500000 0.680360 0.381190 -0.595400
O7    O     O_R   0.629740 0.500010 0.618780 -0.587098
O8    O     O_R   0.629750 0.500050 0.381200 -0.578316
C35   C     C_2   0.399638 0.874607 0.269932 0.387065
H18   H     H_    0.374167 0.780476 0.280918 0.083666
O9    O     O_2   0.388002 0.928993 0.159458 -0.519039
C36   C     C_1   0.579726 0.119313 0.845038 0.345168
N3    N     N_1   0.568952 0.160341 0.955101 -0.255702
C37   C     C_2   0.388814 0.323025 0.863876 0.360567
H19   H     H_    0.371766 0.325781 0.755640 0.134218
O10   O     O_2   0.356856 0.237423 0.933175 -0.547892

loop_
_geom_bond_atom_site_label_1
_geom_bond_atom_site_label_2
_ccdc_geom_bond_type
C11   C12   S    
C29   O8    A    
C24   C25   A    
C6    C7    A    
C1    C15   S    
C1    O2    A    
Cu2   O8    S    
C20   H2    S    
C32   H9    S    
C19   C20   S    
C27   H6    S    
C7    C13   A    
C2    C30   A    
Cu2   O4    S    
C12   O3    A    
C32   C33   A    
C2    C34   A    
C17   C18   A    
C10   C11   A    
C5    C10   A    
C22   N1    A    
Cu2   N1    S    
C22   C28   S    
C35   H18   S    
C24   H5    S    
C2    C9    A    
C8    H15   S    
C28   H10   S    
C26   C27   S    
C5    C6    A    
C9    H16   S    
Cu1   O3    S    
C4    C5    A    
C14   C21   S    
C3    H11   S    
C13   H14   S    
C26   N2    A    
C28   H8    S    
C33   C34   A    
Cu1   O7    S    
C37   H19   S    
C12   O4    A    
C17   C35   S    
C22   C26   A    
C30   C31   A    
C31   C32   A    
C11   C13   A    
C7    C8    A    
C15   C16   A    
C3    C33   A    
Cu1   N2    S    
C18   C23   S    
C25   N2    A    
C23   O6    A    
C25   C37   S    
C20   C21   S    
Cu2   O2    S    
C6    C34   A    
C29   C31   S    
C18   C19   A    
C4    H12   S    
C27   C28   S    
C37   O10   D    
C20   H3    S    
C30   H1    S    
C29   O7    A    
Cu1   O5    S    
Cu2   O6    S    
C27   H7    S    
Cu1   O1    S    
C14   C15   A    
C10   H13   S    
C24   N1    A    
C14   C19   A    
C1    O1    A    
C23   O5    A    
C21   C36   S    
C3    C4    A    
C36   N3    T    
C16   C17   A    
C35   O9    D    
C8    C9    A    
C16   H17   S    
Cu1   Cu2   S    
C21   H4    S    
