data_mof_unit_28067.cif
_audit_creation_date              2012-12-10T17:41:50-0500
_audit_creation_method            fapswitch 2.2
_symmetry_space_group_name_H-M    P1
_symmetry_Int_Tables_number       1
_space_group_crystal_system       triclinic
_cell_length_a                    13.759189
_cell_length_b                    13.83327
_cell_length_c                    14.99948
_cell_angle_alpha                 89.473398
_cell_angle_beta                  88.907716
_cell_angle_gamma                 85.221197
_cell_volume                      2844.39547136

loop_
_atom_site_label
_atom_site_type_symbol
_atom_type_description
_atom_site_fract_x
_atom_site_fract_y
_atom_site_fract_z
_atom_type_partial_charge
C1    C     C_R   0.501011 0.498465 0.329120 0.932337
C2    C     C_R   0.499233 0.502436 0.670963 0.931034
C3    C     C_R   0.517251 0.500570 0.952894 -0.154632
C4    C     C_R   0.518204 0.499004 0.046801 -0.158290
C5    C     C_R   0.511495 0.412632 0.906030 -0.125314
C6    C     C_R   0.513508 0.587934 0.093947 -0.129436
C7    C     C_R   0.517543 0.678501 0.953079 0.415530
C8    C     C_R   0.519406 0.320835 0.046049 0.418538
C9    C     C_R   0.520440 0.676546 0.046911 0.399212
C10   C     C_R   0.521203 0.322754 0.952278 0.400621
C11   C     C_R   0.789811 0.560769 0.442736 0.642380
C12   C     C_R   0.210264 0.431161 0.548546 0.622929
C13   C     C_R   0.796965 0.441688 0.558103 -0.082586
C14   C     C_R   0.201817 0.569985 0.453673 -0.064838
C15   C     C_R   0.899423 0.441712 0.560294 -0.042699
C16   C     C_R   0.098809 0.572605 0.453481 -0.031542
C17   C     C_R   0.947453 0.506507 0.505285 -0.024045
C18   C     C_R   0.050901 0.505654 0.505749 -0.018606
C19   C     C_R   0.892072 0.571205 0.449246 -0.189124
C20   C     C_R   0.106457 0.437717 0.558453 -0.190672
C21   C     C_R   0.954324 0.379713 0.617951 -0.282556
C22   C     C_R   0.043066 0.642878 0.404252 -0.300776
C23   C     C_R   0.515608 0.317080 0.501188 0.863725
C24   C     C_R   0.484547 0.682935 0.498312 0.870803
C25   C     C_R   0.056601 0.378933 0.619396 0.500850
C26   C     C_R   0.939828 0.643131 0.400773 0.501233
C27   C     C_1   0.476250 0.785566 0.489096 -0.132642
C28   C     C_1   0.525477 0.214142 0.504526 -0.160951
C29   C     C_2   0.472850 0.975070 0.467910 -0.025642
C30   C     C_2   0.541954 0.023051 0.508114 -0.029250
C31   C     C_1   0.534172 0.127312 0.507018 -0.055369
C32   C     C_1   0.472378 0.871841 0.479355 -0.034400
C33   C     C_R   0.492020 0.417025 0.814075 0.363694
C34   C     C_R   0.497010 0.586283 0.187006 0.382769
C35   C     C_R   0.499567 0.503842 0.767495 -0.282078
C36   C     C_R   0.504129 0.497775 0.232756 -0.288598
C37   C     C_R   0.516625 0.589457 0.811503 0.425910
C38   C     C_R   0.517958 0.409365 0.187905 0.417254
C39   C     C_R   0.516901 0.590376 0.905773 -0.116768
C40   C     C_R   0.518225 0.408939 0.093730 -0.115889
Cu1   Cu    Cu3+1 0.597420 0.500010 0.499990 0.971671
Cu2   Cu    Cu3+1 0.402580 0.499990 0.500010 0.990346
H1    H     H_    0.759491 0.393974 0.602080 0.155215
H2    H     H_    0.238824 0.623074 0.415411 0.142404
H3    H     H_    0.918001 0.331659 0.662618 0.149455
H4    H     H_    0.080599 0.698101 0.369470 0.136593
N1    N     N_R   0.743820 0.499960 0.499930 -0.237957
N2    N     N_R   0.256180 0.500040 0.500070 -0.226776
O1    O     O_R   0.582280 0.500030 0.370250 -0.568674
O2    O     O_R   0.417720 0.499970 0.629750 -0.555262
O3    O     O_R   0.417740 0.500020 0.370270 -0.592873
O4    O     O_R   0.582260 0.499980 0.629730 -0.612823
O5    O     O_R   0.593900 0.362160 0.500010 -0.602217
O6    O     O_R   0.406100 0.637840 0.499990 -0.596847
O7    O     O_R   0.429360 0.362150 0.500030 -0.539348
O8    O     O_R   0.570640 0.637850 0.499970 -0.545339
C41   C     C_R   0.623900 0.972636 0.558471 0.125680
C42   C     C_R   0.641194 0.999733 0.646525 -0.128694
C43   C     C_R   0.718500 0.953141 0.693793 -0.168764
C44   C     C_R   0.779493 0.879621 0.653509 -0.155526
C45   C     C_R   0.763424 0.852640 0.565816 -0.116219
C46   C     C_R   0.686435 0.899253 0.518183 -0.119157
H5    H     H_    0.594335 0.056292 0.678816 0.140315
H6    H     H_    0.730941 0.973864 0.761781 0.116809
H7    H     H_    0.839077 0.843426 0.690312 0.128700
H8    H     H_    0.810806 0.795789 0.534646 0.166003
H9    H     H_    0.675872 0.878439 0.449832 0.155688
C47   C     C_R   0.393732 0.025706 0.414403 0.122478
C48   C     C_R   0.295564 0.013068 0.435188 -0.157883
C49   C     C_R   0.221105 0.061832 0.385896 -0.162933
C50   C     C_R   0.244005 0.122909 0.315176 -0.150617
C51   C     C_R   0.341436 0.134892 0.293214 -0.100777
C52   C     C_R   0.416097 0.086192 0.342209 -0.118335
H10   H     H_    0.276698 0.966589 0.490262 0.137764
H11   H     H_    0.145599 0.052524 0.402736 0.135983
H12   H     H_    0.186252 0.160787 0.277291 0.130619
H13   H     H_    0.359151 0.181858 0.238181 0.193676
H14   H     H_    0.491273 0.095662 0.323952 0.135539
O9    O     O_3   0.469547 0.335972 0.767609 -0.569247
C53   C     C_3   0.368605 0.326821 0.777817 -0.141459
H15   H     H_    0.324933 0.392452 0.752796 0.168027
H16   H     H_    0.348067 0.312582 0.848520 0.147889
H17   H     H_    0.349675 0.264034 0.738109 0.208850
O10   O     O_3   0.476380 0.670795 0.235109 -0.552808
C54   C     C_3   0.374762 0.695271 0.234394 -0.228522
H18   H     H_    0.357983 0.761034 0.275500 0.179416
H19   H     H_    0.333607 0.636551 0.263934 0.131878
H20   H     H_    0.349139 0.712491 0.165713 0.177685
O11   O     O_3   0.526239 0.673125 0.761703 -0.538994
C55   C     C_3   0.626413 0.683837 0.745868 -0.283678
H21   H     H_    0.671681 0.668421 0.805914 0.122336
H22   H     H_    0.634378 0.759895 0.725225 0.198525
H23   H     H_    0.655846 0.637317 0.690385 0.182824
O12   O     O_3   0.523817 0.323638 0.236845 -0.548113
C56   C     C_3   0.622370 0.297512 0.257453 -0.332715
H24   H     H_    0.673285 0.307088 0.199992 0.133965
H25   H     H_    0.629768 0.219782 0.277023 0.176183
H26   H     H_    0.644961 0.338821 0.315260 0.176775
O13   O     O_3   0.495871 0.766029 0.908405 -0.511191
C57   C     C_3   0.572920 0.827152 0.913031 -0.197074
H27   H     H_    0.646169 0.787144 0.918861 0.089359
H28   H     H_    0.559188 0.879434 0.968348 0.189371
H29   H     H_    0.574137 0.870844 0.850699 0.173741
O14   O     O_3   0.500616 0.235813 0.090947 -0.526729
C58   C     C_3   0.581140 0.165687 0.084962 -0.221344
H30   H     H_    0.652759 0.197547 0.079364 0.099384
H31   H     H_    0.572056 0.115808 0.028831 0.191433
H32   H     H_    0.582322 0.120700 0.146587 0.163014
O15   O     O_3   0.521872 0.763528 0.091675 -0.531986
C59   C     C_3   0.617648 0.773452 0.121131 -0.280006
H33   H     H_    0.674755 0.752661 0.069662 0.092782
H34   H     H_    0.633189 0.730448 0.182602 0.212764
H35   H     H_    0.623785 0.850689 0.137617 0.171645
O16   O     O_3   0.524874 0.235673 0.907000 -0.533092
C60   C     C_3   0.620106 0.214991 0.871062 -0.287388
H36   H     H_    0.676687 0.214921 0.923012 0.105254
H37   H     H_    0.637190 0.266879 0.817191 0.188307
H38   H     H_    0.624904 0.141491 0.841511 0.172647
O17   O     O_3   0.736399 0.608079 0.375928 -0.512448
C61   C     C_3   0.758710 0.558548 0.294842 -0.247589
H39   H     H_    0.754191 0.478757 0.301623 0.122507
H40   H     H_    0.832095 0.572325 0.268400 0.144943
H41   H     H_    0.705077 0.585281 0.244370 0.168740
O18   O     O_3   0.265756 0.354452 0.586668 -0.553700
C62   C     C_3   0.257461 0.270434 0.534810 -0.211926
H42   H     H_    0.310003 0.211603 0.559662 0.183128
H43   H     H_    0.275310 0.282859 0.463071 0.155392
H44   H     H_    0.183700 0.243825 0.540490 0.164992
O19   O     O_3   0.107133 0.319152 0.680093 -0.561795
C63   C     C_3   0.104620 0.366705 0.762932 -0.325617
H45   H     H_    0.137905 0.437271 0.757655 0.154204
H46   H     H_    0.147974 0.320328 0.810942 0.179775
H47   H     H_    0.028868 0.377771 0.790458 0.151614
O20   O     O_3   0.882597 0.718162 0.359801 -0.552912
C64   C     C_3   0.925027 0.750373 0.279567 -0.350515
H48   H     H_    0.961189 0.689619 0.239605 0.139248
H49   H     H_    0.976814 0.805537 0.293556 0.166692
H50   H     H_    0.866237 0.786159 0.238218 0.185525

loop_
_geom_bond_atom_site_label_1
_geom_bond_atom_site_label_2
_ccdc_geom_bond_type
C2    C35   S    
C64   H50   S    
Cu1   Cu2   S    
C11   N1    A    
C56   H24   S    
C24   C27   S    
C12   N2    A    
C11   O17   S    
C6    C9    A    
O16   C60   S    
C55   H21   S    
C56   H26   S    
C64   H48   S    
C54   H18   S    
C58   H31   S    
C11   C19   A    
C43   H6    S    
C51   H13   S    
C7    O13   S    
C46   H9    S    
C35   C37   A    
C29   C32   S    
C30   C31   S    
C53   H15   S    
C20   C25   A    
C24   O6    A    
C60   H36   S    
C30   C41   S    
C64   H49   S    
C19   C26   A    
C59   H33   S    
C2    O2    A    
C17   C19   A    
C45   H8    S    
C4    C40   A    
C47   C48   A    
C60   H37   S    
C5    C33   A    
C62   H44   S    
C52   H14   S    
C49   C50   A    
Cu1   O4    S    
C18   C20   A    
C45   C46   A    
C10   O16   S    
C61   H41   S    
Cu2   O3    S    
C25   O19   S    
C43   C44   A    
C38   O12   S    
O12   C56   S    
C34   O10   S    
C53   H17   S    
Cu1   O1    S    
O14   C58   S    
C61   H40   S    
C23   O5    A    
C21   H3    S    
C54   H19   S    
C9    O15   S    
C58   H32   S    
C41   C46   A    
O10   C54   S    
C4    C6    A    
C13   N1    A    
C33   O9    S    
C14   N2    A    
C42   C43   A    
C57   H29   S    
C6    C34   A    
C44   C45   A    
C63   H46   S    
Cu1   O8    S    
C29   C30   D    
C26   O20   S    
Cu2   O7    S    
C29   C47   S    
C8    O14   S    
C55   H22   S    
O13   C57   S    
C12   O18   S    
C15   C21   A    
C60   H38   S    
C12   C20   A    
C57   H28   S    
C17   C18   A    
Cu1   N1    S    
C48   H10   S    
C16   C18   A    
Cu2   N2    S    
C23   C28   S    
C1    O3    A    
C59   H35   S    
Cu1   O5    S    
C2    O4    A    
Cu2   O2    S    
C53   H16   S    
C22   H4    S    
C44   H7    S    
C13   C15   A    
C62   H42   S    
C14   C16   A    
C63   H47   S    
C3    C4    A    
C13   H1    S    
C61   H39   S    
C55   H23   S    
C14   H2    S    
O19   C63   S    
C54   H20   S    
C42   H5    S    
C15   C17   A    
C21   C25   A    
C16   C22   A    
C27   C32   T    
C28   C31   T    
C51   C52   A    
C3    C5    A    
O17   C61   S    
C56   H25   S    
C23   O7    A    
O20   C64   S    
C24   O8    A    
C58   H30   S    
C37   O11   S    
C36   C38   A    
C63   H45   S    
C47   C52   A    
C5    C10   A    
C37   C39   A    
O15   C59   S    
Cu2   O6    S    
C38   C40   A    
C41   C42   A    
C50   H12   S    
C57   H27   S    
C33   C35   A    
C34   C36   A    
C48   C49   A    
C59   H34   S    
C3    C39   A    
O9    C53   S    
C7    C9    A    
C50   C51   A    
C8    C10   A    
C22   C26   A    
C49   H11   S    
C62   H43   S    
C7    C39   A    
C8    C40   A    
O11   C55   S    
C1    O1    A    
C1    C36   S    
O18   C62   S    
