data_mof_unit_6827.cif
_audit_creation_date              2012-12-10T19:00:49-0500
_audit_creation_method            fapswitch 2.2
_symmetry_space_group_name_H-M    P1
_symmetry_Int_Tables_number       1
_space_group_crystal_system       triclinic
_cell_length_a                    15.087649
_cell_length_b                    10.825806
_cell_length_c                    9.537072
_cell_angle_alpha                 90.039053
_cell_angle_beta                  89.99937
_cell_angle_gamma                 91.290746
_cell_volume                      1557.35119736

loop_
_atom_site_label
_atom_site_type_symbol
_atom_type_description
_atom_site_fract_x
_atom_site_fract_y
_atom_site_fract_z
_atom_type_partial_charge
C1    C     C_R   0.501765 0.262411 0.499917 0.806016
C2    C     C_R   0.908742 0.617960 0.515782 0.075337
C3    C     C_R   0.946540 0.282537 0.462370 -0.217738
C4    C     C_R   0.038628 0.280383 0.460012 -0.200700
C5    C     C_R   0.089940 0.389793 0.478663 0.077633
C6    C     C_R   0.046488 0.503068 0.498187 0.040710
C7    C     C_R   0.096131 0.614620 0.515661 0.037414
C8    C     C_R   0.050996 0.725671 0.534442 -0.216178
C9    C     C_R   0.959352 0.727481 0.533005 -0.199267
C10   C     C_R   0.183412 0.388616 0.477217 -0.102976
C11   C     C_R   0.232366 0.499295 0.499640 -0.139001
C12   C     C_R   0.329049 0.497350 0.499891 0.891143
C13   C     C_R   0.189444 0.612645 0.516661 -0.034755
C14   C     C_R   0.518367 0.064288 0.624305 0.120220
C15   C     C_R   0.511168 0.129856 0.499154 -0.078401
C16   C     C_R   0.517369 0.064965 0.371777 -0.226791
C17   C     C_R   0.515984 0.936052 0.371922 -0.245090
C18   C     C_R   0.509148 0.871167 0.499472 -0.063278
C19   C     C_R   0.517113 0.937570 0.624565 0.146740
C20   C     C_3   0.467893 0.930801 0.760394 -0.457125
C21   C     C_3   0.469545 0.071431 0.760016 -0.504599
C22   C     C_R   0.534263 0.598856 0.073764 0.264034
C23   C     C_R   0.501335 0.737778 0.500023 0.860602
C24   C     C_R   0.457668 0.408816 0.074396 -0.086103
C25   C     C_R   0.457568 0.408896 0.925446 -0.076653
C26   C     C_R   0.534297 0.598803 0.926442 0.278010
C27   C     C_3   0.627012 0.648941 0.920828 -0.524733
C28   C     C_3   0.626910 0.649200 0.080068 -0.520446
C29   C     C_R   0.670903 0.503250 0.499915 0.812018
C30   C     C_R   0.815177 0.619061 0.514222 -0.070293
C31   C     C_R   0.767113 0.506776 0.499522 -0.094940
C32   C     C_R   0.810876 0.395577 0.482934 -0.267828
C33   C     C_R   0.903219 0.393889 0.481556 0.117488
C34   C     C_R   0.952801 0.504964 0.498957 0.060513
Cu1   Cu    Cu3+1 0.500000 0.499980 0.640670 0.972573
Cu2   Cu    Cu3+1 0.500000 0.500020 0.359330 0.945567
H1    H     H_    0.516152 0.887997 0.272299 0.159425
H2    H     H_    0.400133 0.890087 0.750062 0.245504
H3    H     H_    0.508402 0.891385 0.845980 0.186217
H4    H     H_    0.402916 0.111975 0.748916 0.198942
H5    H     H_    0.511388 0.112282 0.844859 0.196157
H6    H     H_    0.424840 0.333807 0.130070 0.137607
H7    H     H_    0.424416 0.334179 0.869674 0.134138
H8    H     H_    0.674201 0.582570 0.875162 0.222675
H9    H     H_    0.630340 0.743291 0.875264 0.190056
H10   H     H_    0.674111 0.583056 0.126022 0.224540
H11   H     H_    0.772578 0.310199 0.470455 0.126681
H12   H     H_    0.630141 0.743696 0.125709 0.185652
H13   H     H_    0.909080 0.196748 0.448489 0.146425
H14   H     H_    0.068963 0.191900 0.443874 0.163235
H15   H     H_    0.085585 0.812938 0.551497 0.139316
H16   H     H_    0.928957 0.816227 0.546562 0.166351
H17   H     H_    0.517889 0.112801 0.272072 0.162775
N1    N     N_R   0.500570 0.500930 0.147930 -0.185807
N2    N     N_R   0.500570 0.500890 0.852020 -0.184042
O1    O     O_R   0.500000 0.319640 0.618810 -0.592657
O2    O     O_R   0.500010 0.319680 0.381230 -0.592300
O3    O     O_R   0.370250 0.499950 0.618800 -0.543719
O4    O     O_R   0.370260 0.499990 0.381220 -0.593458
O5    O     O_R   0.499990 0.680320 0.618770 -0.557421
O6    O     O_R   0.500000 0.680360 0.381190 -0.598128
O7    O     O_R   0.629740 0.500010 0.618780 -0.586213
O8    O     O_R   0.629750 0.500050 0.381200 -0.585148
C35   C     C_R   0.769422 0.738477 0.520684 0.092864
C36   C     C_R   0.754385 0.803662 0.396134 -0.158648
C37   C     C_R   0.731925 0.928115 0.401159 -0.140057
C38   C     C_R   0.723830 0.987737 0.530390 -0.096988
C39   C     C_R   0.735800 0.922131 0.654902 -0.155614
C40   C     C_R   0.758956 0.797902 0.650211 -0.166311
H18   H     H_    0.764747 0.759944 0.295491 0.130240
H19   H     H_    0.722228 0.978917 0.304877 0.129312
H20   H     H_    0.707713 0.084575 0.534057 0.117726
H21   H     H_    0.729183 0.968339 0.754899 0.129504
H22   H     H_    0.773793 0.750062 0.746714 0.134721
C41   C     C_R   0.230066 0.272732 0.446424 0.098705
C42   C     C_R   0.256818 0.247159 0.308693 -0.125988
C43   C     C_R   0.293295 0.133158 0.276310 -0.158115
C44   C     C_R   0.302583 0.044176 0.380956 -0.087900
C45   C     C_R   0.277655 0.070162 0.518832 -0.159318
C46   C     C_R   0.241721 0.184370 0.551902 -0.186915
H23   H     H_    0.247872 0.314571 0.226316 0.128953
H24   H     H_    0.313404 0.113239 0.169876 0.120748
H25   H     H_    0.329586 0.955311 0.355195 0.139449
H26   H     H_    0.285395 0.001454 0.599859 0.157934
H27   H     H_    0.221043 0.202909 0.658458 0.133596
C47   C     C_2   0.242020 0.729845 0.528479 0.289239
H28   H     H_    0.224483 0.808819 0.465530 0.059963
O9    O     O_2   0.303499 0.739779 0.610886 -0.573032

loop_
_geom_bond_atom_site_label_1
_geom_bond_atom_site_label_2
_ccdc_geom_bond_type
C8    C9    A    
C29   O8    A    
C30   C35   S    
C24   H6    S    
C19   C20   S    
Cu2   O4    S    
C26   N2    A    
C25   H7    S    
C3    H13   S    
C7    C8    A    
C22   N1    A    
C43   C44   A    
C28   H10   S    
C26   C27   S    
Cu1   O3    S    
C5    C6    A    
C14   C21   S    
C1    O1    A    
C18   C19   A    
C45   H26   S    
C47   O9    D    
C3    C33   A    
C24   N1    A    
C36   H18   S    
C38   H20   S    
C16   H17   S    
C12   O4    A    
C27   H8    S    
C31   C32   A    
C16   C17   A    
C13   C47   S    
C1    C15   S    
Cu2   O8    S    
C41   C46   A    
C12   O3    A    
C27   H9    S    
C37   C38   A    
C22   C28   S    
C9    H16   S    
C44   H25   S    
C17   C18   A    
C23   O5    A    
C15   C16   A    
Cu1   N2    S    
C38   C39   A    
C24   C25   A    
Cu2   O2    S    
C20   H3    S    
C44   C45   A    
C39   C40   A    
C39   H21   S    
C18   C23   S    
C4    H14   S    
Cu1   O5    S    
Cu1   Cu2   S    
C41   C42   A    
C46   H27   S    
C1    O2    A    
C20   H2    S    
C10   C41   S    
C37   H19   S    
C7    C13   A    
C33   C34   A    
C40   H22   S    
C17   H1    S    
C35   C40   A    
C42   C43   A    
C8    H15   S    
C21   H5    S    
C32   H11   S    
C3    C4    A    
C29   O7    A    
C28   H12   S    
Cu1   O1    S    
C47   H28   S    
C14   C19   A    
C25   N2    A    
C4    C5    A    
C42   H23   S    
C11   C12   S    
C6    C7    A    
C2    C30   A    
C35   C36   A    
C5    C10   A    
C29   C31   S    
C32   C33   A    
C11   C13   A    
C2    C34   A    
C30   C31   A    
C21   H4    S    
C43   H24   S    
Cu1   O7    S    
Cu2   N1    S    
C10   C11   A    
C45   C46   A    
C6    C34   A    
C23   O6    A    
C20   C21   S    
C36   C37   A    
C22   C26   A    
C27   C28   S    
C14   C15   A    
C2    C9    A    
Cu2   O6    S    
