data_mof_unit_33294.cif
_audit_creation_date              2012-12-11T16:26:30-0500
_audit_creation_method            fapswitch 2.2
_symmetry_space_group_name_H-M    P1
_symmetry_Int_Tables_number       1
_space_group_crystal_system       triclinic
_cell_length_a                    13.937705
_cell_length_b                    13.9377
_cell_length_c                    31.907108
_cell_angle_alpha                 90.000018
_cell_angle_beta                  90.0
_cell_angle_gamma                 120.000252
_cell_volume                      5367.83739824

loop_
_atom_site_label
_atom_site_type_symbol
_atom_type_description
_atom_site_fract_x
_atom_site_fract_y
_atom_site_fract_z
_atom_type_partial_charge
C1    C     C_R   0.565571 0.445304 0.810072 0.540746
C2    C     C_R   0.445304 0.565571 0.189927 0.540746
C3    C     C_3   0.939585 0.660048 0.654117 -0.338398
C4    C     C_3   0.720463 0.060415 0.845883 -0.338399
C5    C     C_3   0.339951 0.279535 0.654117 -0.338399
C6    C     C_3   0.660048 0.939585 0.345883 -0.338398
C7    C     C_3   0.060415 0.720463 0.154117 -0.338399
C8    C     C_3   0.279535 0.339951 0.345883 -0.338398
C9    C     C_3   0.660048 0.939585 0.154117 -0.338398
C10   C     C_3   0.060415 0.720463 0.345883 -0.338399
C11   C     C_3   0.279535 0.339951 0.154117 -0.338399
C12   C     C_1   0.043086 0.712673 0.063575 0.215701
C13   C     C_R   0.434429 0.879733 0.310072 0.540745
C14   C     C_1   0.669586 0.956913 0.436426 0.215701
C15   C     C_1   0.287326 0.330413 0.063575 0.215701
C16   C     C_1   0.043086 0.712673 0.436425 0.215701
C17   C     C_1   0.669586 0.956913 0.063574 0.215701
C18   C     C_1   0.287326 0.330413 0.436425 0.215702
C19   C     C_1   0.712673 0.043086 0.563575 0.215701
C20   C     C_1   0.956913 0.669586 0.936426 0.215701
C21   C     C_1   0.330413 0.287326 0.563575 0.215701
C22   C     C_1   0.712673 0.043086 0.936425 0.215701
C23   C     C_1   0.956913 0.669586 0.563574 0.215701
C24   C     C_R   0.120267 0.554696 0.189927 0.540745
C25   C     C_1   0.330413 0.287326 0.936425 0.215702
C26   C     C_1   0.992592 0.331525 0.150423 0.225423
C27   C     C_1   0.338934 0.007408 0.349577 0.225424
C28   C     C_1   0.668475 0.661067 0.150423 0.225424
C29   C     C_1   0.992592 0.331525 0.349577 0.225424
C30   C     C_1   0.338934 0.007408 0.150423 0.225424
C31   C     C_1   0.668475 0.661067 0.349577 0.225424
C32   C     C_1   0.331525 0.992592 0.650423 0.225424
C33   C     C_1   0.007408 0.338934 0.849577 0.225424
C34   C     C_1   0.661067 0.668475 0.650423 0.225423
C35   C     C_1   0.001736 0.519143 0.018781 0.013328
C36   C     C_1   0.331525 0.992592 0.849577 0.225424
C37   C     C_1   0.007408 0.338934 0.650423 0.225424
C38   C     C_1   0.661067 0.668475 0.849577 0.225424
C39   C     C_1   0.954673 0.322378 0.062768 0.219737
C40   C     C_1   0.367706 0.045327 0.437231 0.219737
C41   C     C_1   0.677622 0.632295 0.062768 0.219737
C42   C     C_1   0.954673 0.322378 0.437232 0.219737
C43   C     C_1   0.367706 0.045327 0.062768 0.219737
C44   C     C_1   0.677622 0.632295 0.437232 0.219738
C45   C     C_1   0.322378 0.954673 0.562768 0.219737
C46   C     C_1   0.517407 0.998264 0.481219 0.013328
C47   C     C_1   0.045327 0.367706 0.937232 0.219737
C48   C     C_1   0.632295 0.677622 0.562768 0.219737
C49   C     C_1   0.322378 0.954673 0.937232 0.219737
C50   C     C_1   0.045327 0.367706 0.562768 0.219737
C51   C     C_1   0.632295 0.677622 0.937232 0.219737
C52   C     C_1   0.480857 0.482593 0.018781 0.013328
C53   C     C_1   0.001736 0.519143 0.481219 0.013328
C54   C     C_1   0.517407 0.998264 0.018781 0.013328
C55   C     C_1   0.480857 0.482593 0.481219 0.013328
C56   C     C_1   0.519143 0.001736 0.518781 0.013328
C57   C     C_R   0.879733 0.434429 0.689927 0.540745
C58   C     C_1   0.998264 0.517407 0.981219 0.013328
C59   C     C_1   0.482593 0.480856 0.518781 0.013328
C60   C     C_1   0.519143 0.001736 0.981219 0.013328
C61   C     C_1   0.998264 0.517407 0.518781 0.013328
C62   C     C_1   0.482593 0.480856 0.981219 0.013328
C63   C     C_R   0.943667 0.478123 0.850044 -0.009973
C64   C     C_R   0.534455 0.056332 0.649956 -0.009973
C65   C     C_R   0.521877 0.465545 0.850044 -0.009973
C66   C     C_R   0.943667 0.478123 0.649956 -0.009973
C67   C     C_R   0.534455 0.056332 0.850044 -0.009973
C68   C     C_R   0.554696 0.120267 0.810072 0.540745
C69   C     C_R   0.521877 0.465545 0.649956 -0.009973
C70   C     C_R   0.478123 0.943667 0.350044 -0.009973
C71   C     C_R   0.056332 0.534455 0.149956 -0.009973
C72   C     C_R   0.465545 0.521877 0.350044 -0.009973
C73   C     C_R   0.478123 0.943667 0.149955 -0.009973
C74   C     C_R   0.056332 0.534455 0.350044 -0.009973
C75   C     C_R   0.465545 0.521877 0.149955 -0.009973
C76   C     C_R   0.950305 0.572516 0.870278 -0.043638
C77   C     C_R   0.622211 0.049695 0.629722 -0.043638
C78   C     C_R   0.427484 0.377788 0.870278 -0.043638
C79   C     C_R   0.565571 0.445304 0.689927 0.540746
C80   C     C_R   0.950305 0.572516 0.629722 -0.043638
C81   C     C_R   0.622211 0.049695 0.870278 -0.043638
C82   C     C_R   0.427484 0.377788 0.629722 -0.043638
C83   C     C_R   0.572516 0.950305 0.370278 -0.043638
C84   C     C_R   0.049695 0.622211 0.129722 -0.043638
C85   C     C_R   0.377788 0.427484 0.370278 -0.043638
C86   C     C_R   0.572516 0.950305 0.129722 -0.043638
C87   C     C_R   0.049695 0.622211 0.370278 -0.043638
C88   C     C_R   0.377788 0.427484 0.129722 -0.043638
C89   C     C_R   0.968306 0.585237 0.913953 -0.003640
C90   C     C_R   0.879732 0.434429 0.810072 0.540745
C91   C     C_R   0.616931 0.031694 0.586047 -0.003640
C92   C     C_R   0.414763 0.383068 0.913953 -0.003639
C93   C     C_R   0.968306 0.585237 0.586047 -0.003640
C94   C     C_R   0.616931 0.031694 0.913953 -0.003640
C95   C     C_R   0.414763 0.383068 0.586047 -0.003639
C96   C     C_R   0.585237 0.968306 0.413953 -0.003640
C97   C     C_R   0.031694 0.616931 0.086047 -0.003640
C98   C     C_R   0.383068 0.414763 0.413953 -0.003639
C99   C     C_R   0.585237 0.968305 0.086047 -0.003640
C100  C     C_R   0.031694 0.616931 0.413953 -0.003640
C101  C     C_R   0.554696 0.120267 0.689927 0.540745
C102  C     C_R   0.383068 0.414763 0.086047 -0.003639
C103  C     C_R   0.992384 0.512761 0.936140 -0.014099
C104  C     C_R   0.520376 0.007616 0.563860 -0.014099
C105  C     C_R   0.487239 0.479623 0.936140 -0.014099
C106  C     C_R   0.992384 0.512761 0.563860 -0.014099
C107  C     C_R   0.520376 0.007616 0.936140 -0.014099
C108  C     C_R   0.487239 0.479623 0.563860 -0.014099
C109  C     C_R   0.512761 0.992384 0.436140 -0.014099
C110  C     C_R   0.007616 0.520376 0.063860 -0.014099
C111  C     C_R   0.479623 0.487239 0.436140 -0.014099
C112  C     C_R   0.445304 0.565571 0.310072 0.540746
C113  C     C_R   0.512761 0.992384 0.063860 -0.014099
C114  C     C_R   0.007616 0.520376 0.436140 -0.014099
C115  C     C_R   0.479623 0.487239 0.063860 -0.014099
C116  C     C_R   0.008647 0.434126 0.914630 -0.034188
C117  C     C_R   0.425478 0.991353 0.585370 -0.034188
C118  C     C_R   0.565875 0.574521 0.914630 -0.034188
C119  C     C_R   0.008647 0.434126 0.585370 -0.034188
C120  C     C_R   0.425478 0.991353 0.914630 -0.034188
C121  C     C_R   0.565875 0.574521 0.585370 -0.034188
C122  C     C_R   0.434126 0.008647 0.414630 -0.034188
C123  C     C_R   0.434429 0.879732 0.189927 0.540745
C124  C     C_R   0.991353 0.425478 0.085370 -0.034188
C125  C     C_R   0.574521 0.565875 0.414630 -0.034188
C126  C     C_R   0.434126 0.008647 0.085370 -0.034188
C127  C     C_R   0.991353 0.425478 0.414630 -0.034188
C128  C     C_R   0.574521 0.565875 0.085370 -0.034188
C129  C     C_R   0.985598 0.417338 0.871483 -0.044973
C130  C     C_R   0.431738 0.014401 0.628517 -0.044973
C131  C     C_R   0.582663 0.568261 0.871483 -0.044974
C132  C     C_R   0.985598 0.417337 0.628517 -0.044973
C133  C     C_R   0.431738 0.014401 0.871483 -0.044973
C134  C     C_R   0.120267 0.554696 0.310072 0.540745
C135  C     C_R   0.582663 0.568261 0.628517 -0.044973
C136  C     C_R   0.417337 0.985599 0.371483 -0.044973
C137  C     C_R   0.014401 0.431738 0.128517 -0.044974
C138  C     C_R   0.568261 0.582663 0.371483 -0.044974
C139  C     C_R   0.417337 0.985598 0.128517 -0.044973
C140  C     C_R   0.014402 0.431738 0.371483 -0.044973
C141  C     C_R   0.568261 0.582663 0.128517 -0.044974
C142  C     C_3   0.939585 0.660048 0.845883 -0.338398
C143  C     C_3   0.720463 0.060415 0.654117 -0.338399
C144  C     C_3   0.339951 0.279536 0.845883 -0.338398
Cr1   Cr    Cr6+3 0.504240 0.249200 0.750000 1.032683
Cr2   Cr    Cr6+3 0.744960 0.495760 0.750000 1.032683
Cr3   Cr    Cr6+3 0.750800 0.255040 0.750000 1.032682
Cr4   Cr    Cr6+3 0.249200 0.504240 0.250000 1.032683
Cr5   Cr    Cr6+3 0.495760 0.744960 0.250000 1.032683
Cr6   Cr    Cr6+3 0.255040 0.750800 0.250000 1.032682
H1    H     H_    0.977440 0.671701 0.814327 0.149328
H2    H     H_    0.977440 0.671701 0.685673 0.149328
H3    H     H_    0.985141 0.742561 0.638893 0.156606
H4    H     H_    0.851122 0.636203 0.656744 0.179979
H5    H     H_    0.694259 0.022559 0.814327 0.149327
H6    H     H_    0.785080 0.148877 0.843256 0.179979
H7    H     H_    0.757419 0.014858 0.861107 0.156605
H8    H     H_    0.328299 0.305739 0.685673 0.149327
H9    H     H_    0.257438 0.242579 0.638893 0.156605
H10   H     H_    0.363796 0.214919 0.656744 0.179979
H11   H     H_    0.671700 0.977440 0.314327 0.149328
H12   H     H_    0.851122 0.636203 0.843256 0.179979
H13   H     H_    0.742561 0.985141 0.361107 0.156605
H14   H     H_    0.636203 0.851123 0.343256 0.179979
H15   H     H_    0.022559 0.694259 0.185673 0.149327
H16   H     H_    0.148876 0.785080 0.156744 0.179979
H17   H     H_    0.014858 0.757419 0.138893 0.156605
H18   H     H_    0.214919 0.363796 0.343256 0.179979
H19   H     H_    0.305739 0.328299 0.314327 0.149327
H20   H     H_    0.242579 0.257438 0.361107 0.156605
H21   H     H_    0.671700 0.977440 0.185673 0.149328
H22   H     H_    0.636203 0.851123 0.156743 0.179979
H23   H     H_    0.985141 0.742561 0.861107 0.156606
H24   H     H_    0.742561 0.985141 0.138893 0.156605
H25   H     H_    0.022559 0.694259 0.314327 0.149327
H26   H     H_    0.014858 0.757419 0.361106 0.156605
H27   H     H_    0.148877 0.785081 0.343256 0.179979
H28   H     H_    0.214919 0.363796 0.156744 0.179980
H29   H     H_    0.242578 0.257438 0.138893 0.156605
H30   H     H_    0.305739 0.328299 0.185673 0.149328
H31   H     H_    0.694259 0.022559 0.685673 0.149327
H32   H     H_    0.757419 0.014858 0.638893 0.156605
H33   H     H_    0.785080 0.148877 0.656744 0.179980
H34   H     H_    0.328299 0.305739 0.814327 0.149327
H35   H     H_    0.363796 0.214919 0.843256 0.179979
H36   H     H_    0.257438 0.242579 0.861107 0.156605
N1    N     N_1   0.052506 0.789244 0.045758 -0.194512
N2    N     N_1   0.789244 0.052506 0.954242 -0.194512
N3    N     N_1   0.947493 0.736737 0.545758 -0.194512
N4    N     N_1   0.263262 0.210755 0.954242 -0.194512
N5    N     N_1   0.974724 0.251307 0.167772 -0.279008
N6    N     N_1   0.276585 0.025276 0.332227 -0.279007
N7    N     N_1   0.748693 0.723417 0.167772 -0.279007
N8    N     N_1   0.974724 0.251307 0.332228 -0.279008
N9    N     N_1   0.276585 0.025276 0.167773 -0.279007
N10   N     N_1   0.748693 0.723418 0.332228 -0.279007
N11   N     N_1   0.251307 0.974724 0.667772 -0.279008
N12   N     N_1   0.736737 0.947493 0.454242 -0.194512
N13   N     N_1   0.025276 0.276585 0.832227 -0.279007
N14   N     N_1   0.723417 0.748693 0.667772 -0.279007
N15   N     N_1   0.251307 0.974724 0.832228 -0.279008
N16   N     N_1   0.025276 0.276584 0.667773 -0.279007
N17   N     N_1   0.723418 0.748693 0.832228 -0.279007
N18   N     N_1   0.925351 0.240213 0.044791 -0.213013
N19   N     N_1   0.314863 0.074649 0.455209 -0.213013
N20   N     N_1   0.759787 0.685138 0.044791 -0.213012
N21   N     N_1   0.925351 0.240213 0.455209 -0.213013
N22   N     N_1   0.314863 0.074649 0.044791 -0.213013
N23   N     N_1   0.210755 0.263261 0.045758 -0.194512
N24   N     N_1   0.759787 0.685138 0.455209 -0.213013
N25   N     N_1   0.240213 0.925351 0.544791 -0.213013
N26   N     N_1   0.074649 0.314863 0.955209 -0.213013
N27   N     N_1   0.685139 0.759787 0.544791 -0.213012
N28   N     N_1   0.240213 0.925351 0.955209 -0.213013
N29   N     N_1   0.074649 0.314863 0.544791 -0.213014
N30   N     N_1   0.685139 0.759787 0.955209 -0.213012
N31   N     N_1   0.052506 0.789244 0.454242 -0.194512
N32   N     N_1   0.736737 0.947493 0.045758 -0.194512
N33   N     N_1   0.210755 0.263261 0.454242 -0.194512
N34   N     N_1   0.789244 0.052506 0.545758 -0.194512
N35   N     N_1   0.947493 0.736737 0.954242 -0.194512
N36   N     N_1   0.263262 0.210755 0.545758 -0.194512
O1    O     O_R   0.480350 0.140770 0.796330 -0.499617
O2    O     O_R   0.140770 0.480350 0.203670 -0.499617
O3    O     O_R   0.519650 0.660420 0.296330 -0.499617
O4    O     O_R   0.339580 0.859230 0.203670 -0.499616
O5    O     O_R   0.514930 0.348530 0.793250 -0.503851
O6    O     O_R   0.833600 0.485070 0.706750 -0.503851
O7    O     O_R   0.651470 0.166400 0.793250 -0.503851
O8    O     O_R   0.514930 0.348530 0.706750 -0.503851
O9    O     O_R   0.833600 0.485070 0.793250 -0.503851
O10   O     O_R   0.651470 0.166400 0.706750 -0.503851
O11   O     O_R   0.348530 0.514930 0.293250 -0.503851
O12   O     O_R   0.660420 0.519650 0.703670 -0.499617
O13   O     O_R   0.485070 0.833600 0.206750 -0.503851
O14   O     O_R   0.166400 0.651470 0.293250 -0.503851
O15   O     O_R   0.348530 0.514930 0.206750 -0.503851
O16   O     O_R   0.485070 0.833600 0.293250 -0.503851
O17   O     O_R   0.166400 0.651470 0.206750 -0.503851
O18   O     O_3   0.666667 0.333333 0.750000 -0.229677
O19   O     O_3   0.333333 0.666667 0.250000 -0.229677
O20   O     O_R   0.859230 0.339580 0.796330 -0.499616
O21   O     O_R   0.480350 0.140770 0.703670 -0.499617
O22   O     O_R   0.660420 0.519650 0.796330 -0.499617
O23   O     O_R   0.859230 0.339580 0.703670 -0.499616
O24   O     O_R   0.140770 0.480350 0.296330 -0.499617
O25   O     O_R   0.519650 0.660420 0.203670 -0.499617
O26   O     O_R   0.339580 0.859230 0.296330 -0.499616

loop_
_geom_bond_atom_site_label_1
_geom_bond_atom_site_label_2
_ccdc_geom_bond_type
C51   N30   T    
C8    H19   S    
Cr1   O8    S    
C144  H34   S    
C81   C94   A    
C55   C59   T    
C106  C119  A    
C28   C141  S    
Cr5   O3    S    
C64   C77   A    
C40   C122  S    
C91   C104  A    
C26   C137  S    
C36   C133  S    
Cr2   O12   S    
C72   C85   A    
Cr6   O17   S    
C66   C80   A    
C71   C137  A    
C123  O4    A    
C144  H36   S    
Cr3   O18   S    
C53   C114  S    
Cr6   O26   S    
Cr1   O5    S    
C3    H2    S    
Cr5   O13   S    
C35   C58   T    
Cr6   O4    S    
C27   C136  S    
C143  H31   S    
C67   C133  A    
C120  C133  A    
C25   N4    T    
C31   N10   T    
C93   C106  A    
C35   C110  S    
C109  C122  A    
C49   C120  S    
C13   C70   S    
C33   N13   T    
C33   C129  S    
C112  O11   A    
C54   C113  S    
C3    H3    S    
C51   C118  S    
Cr1   O21   S    
Cr4   O11   S    
C14   C96   S    
C41   N20   T    
C85   C98   A    
C75   C141  A    
C110  C124  A    
C48   N27   T    
C57   O6    A    
C53   C61   T    
Cr6   O19   S    
C4    C81   S    
C30   N9    T    
C5    H9    S    
C127  C140  A    
C111  C125  A    
C1    C65   S    
C37   N16   T    
C102  C115  A    
C74   C87   A    
C8    H18   S    
C128  C141  A    
C108  C121  A    
C76   C89   A    
C144  H35   S    
C1    O5    A    
C72   C138  A    
C7    C84   S    
C7    H15   S    
Cr5   O25   S    
C22   N2    T    
C39   N18   T    
C89   C103  A    
C70   C136  A    
C22   C94   S    
C41   C128  S    
C64   C101  S    
C101  O21   A    
C3    C80   S    
C43   C126  S    
C32   C130  S    
C65   C131  A    
C8    H20   S    
C28   N7    T    
C142  H23   S    
C66   C132  A    
Cr2   O9    S    
C24   O2    A    
C10   H26   S    
C47   C116  S    
C82   C95   A    
C94   C107  A    
C21   N36   T    
C116  C129  A    
C67   C68   S    
C143  H32   S    
C70   C83   A    
C124  C137  A    
C42   N21   T    
C100  C114  A    
C56   C104  S    
C57   O23   A    
C48   C121  S    
C62   C105  S    
C16   C100  S    
C54   C60   T    
C113  C126  A    
C21   C95   S    
Cr3   O20   S    
C73   C123  S    
C12   N1    T    
C74   C140  A    
C49   N28   T    
C8    C85   S    
C3    H4    S    
C115  C128  A    
C6    C83   S    
C5    C82   S    
C58   C103  S    
C143  H33   S    
C142  H1    S    
C71   C84   A    
C30   C139  S    
C2    O25   A    
C77   C143  S    
C79   O8    A    
C142  H12   S    
C32   N11   T    
C117  C130  A    
C1    O22   A    
C78   C144  S    
C9    C86   S    
C14   N12   T    
Cr3   O10   S    
C75   C88   A    
C4    H7    S    
C6    H11   S    
C11   C88   S    
C20   N35   T    
C5    H10   S    
C4    H5    S    
Cr4   O24   S    
Cr5   O16   S    
C16   N31   T    
C11   H28   S    
C45   N25   T    
C121  C135  A    
C31   C138  S    
C86   C99   A    
C17   C99   S    
C122  C136  A    
C12   C97   S    
C60   C107  S    
C42   C127  S    
C123  O13   A    
Cr5   O19   S    
Cr1   O18   S    
C4    H6    S    
C7    H16   S    
Cr2   O18   S    
C67   C81   A    
C96   C109  A    
C38   N17   T    
C90   O20   A    
C34   N14   T    
Cr4   O19   S    
C18   N33   T    
C105  C118  A    
C9    H21   S    
C68   O1    A    
C11   H29   S    
C36   N15   T    
C84   C97   A    
C46   C56   T    
Cr6   O14   S    
C61   C106  S    
C107  C120  A    
C23   N3    T    
C114  C127  A    
C68   O7    A    
C87   C100  A    
C112  O3    A    
C52   C115  S    
C45   C117  S    
C10   H25   S    
C29   C140  S    
C7    H17   S    
C40   N19   T    
C77   C91   A    
C25   C92   S    
C98   C111  A    
C55   C111  S    
C43   N22   T    
C10   H27   S    
C19   C91   S    
C126  C139  A    
C79   O12   A    
C64   C130  A    
C119  C132  A    
C99   C113  A    
C88   C102  A    
Cr4   O15   S    
C2    O15   A    
C13   O16   A    
Cr1   O1    S    
C26   N5    T    
C125  C138  A    
C73   C139  A    
C20   C89   S    
C104  C117  A    
C59   C108  S    
C37   C132  S    
C65   C78   A    
C78   C92   A    
C72   C112  S    
C2    C75   S    
C103  C116  A    
Cr4   O2    S    
C15   N23   T    
C57   C66   S    
C52   C62   T    
C38   C131  S    
C97   C110  A    
Cr3   O7    S    
C10   C87   S    
C118  C131  A    
Cr2   O6    S    
C34   C135  S    
C9    H24   S    
C83   C96   A    
C74   C134  S    
C63   C90   S    
C11   H30   S    
C69   C82   A    
C101  O10   A    
C44   N24   T    
C63   C129  A    
C15   C102  S    
C6    H14   S    
C90   O9    A    
C24   O17   A    
C73   C86   A    
C69   C79   S    
C95   C108  A    
C39   C124  S    
C50   C119  S    
C44   C125  S    
C23   C93   S    
C92   C105  A    
C13   O26   A    
C6    H13   S    
Cr3   O23   S    
C69   C135  A    
C5    H8    S    
C27   N6    T    
C46   C109  S    
Cr2   O22   S    
C134  O14   A    
C63   C76   A    
C9    H22   S    
C50   N29   T    
C19   N34   T    
C18   C98   S    
C80   C93   A    
C47   N26   T    
C134  O24   A    
C17   N32   T    
C29   N8    T    
C24   C71   S    
C76   C142  S    
