data_mof_unit_61628.cif
_audit_creation_date              2012-10-26T20:09:00-0400
_audit_creation_method            fapswitch 2.2
_symmetry_space_group_name_H-M    P1
_symmetry_Int_Tables_number       1
_space_group_crystal_system       triclinic
_cell_length_a                    12.750384
_cell_length_b                    13.913572
_cell_length_c                    15.927154
_cell_angle_alpha                 90.175853
_cell_angle_beta                  92.83295
_cell_angle_gamma                 98.054448
_cell_volume                      2794.09644257

loop_
_atom_site_label
_atom_site_type_symbol
_atom_type_description
_atom_site_fract_x
_atom_site_fract_y
_atom_site_fract_z
_atom_type_partial_charge
C1    C     C_R   0.483475 0.315893 0.499177 0.553293
C2    C     C_2   0.543659 0.978021 0.500038 0.103584
C3    C     C_2   0.456399 0.022011 0.499396 0.100478
C4    C     C_R   0.500574 0.499959 0.340090 0.563931
C5    C     C_1   0.465338 0.125759 0.499193 0.031163
C6    C     C_1   0.534712 0.874265 0.500405 0.033598
C7    C     C_1   0.473845 0.212716 0.499126 0.029066
C8    C     C_2   0.028866 0.478401 0.466660 -0.021642
C9    C     C_2   0.971022 0.518478 0.523958 -0.135047
C10   C     C_1   0.854239 0.516410 0.517144 0.154579
C11   C     C_1   0.145725 0.482583 0.479666 0.175779
C12   C     C_3   0.403942 0.429800 0.947806 -0.088743
C13   C     C_R   0.516529 0.684113 0.500777 0.554292
C14   C     C_R   0.499498 0.499877 0.659938 0.544821
C15   C     C_3   0.407822 0.421359 0.046189 0.173181
C16   C     C_3   0.614964 0.467071 0.056368 0.145624
C17   C     C_3   0.611963 0.454290 0.955440 0.115638
C18   C     C_1   0.499246 0.498768 0.749130 -0.029608
C19   C     C_3   0.504503 0.495627 0.083863 0.013410
C20   C     C_3   0.358446 0.335279 0.895896 -0.269873
C21   C     C_3   0.237153 0.312516 0.893464 -0.419275
C22   C     C_3   0.972211 0.426291 0.389589 -0.267658
C23   C     C_3   0.507238 0.496663 0.916659 0.041778
C24   C     C_3   0.046405 0.397514 0.324159 -0.380562
C25   C     C_3   0.723728 0.494612 0.920847 -0.223555
C26   C     C_3   0.736845 0.495760 0.825414 -0.392870
C27   C     C_3   0.415399 0.662324 0.903512 -0.229714
C28   C     C_3   0.295666 0.628072 0.901015 -0.428910
C29   C     C_3   0.500800 0.605126 0.950022 0.055835
C30   C     C_3   0.496260 0.601218 0.048651 -0.030856
C31   C     C_1   0.503030 0.497706 0.824522 -0.028973
C32   C     C_1   0.502930 0.497610 0.175804 0.067619
C33   C     C_1   0.501878 0.498939 0.250991 0.076678
C34   C     C_1   0.526178 0.787301 0.500644 0.031933
Cu1   Cu    Cu3+1 0.395330 0.493960 0.494700 1.038109
Cu2   Cu    Cu3+1 0.604670 0.506040 0.505300 1.042007
H1    H     H_    0.340850 0.472282 0.935376 0.166393
H2    H     H_    0.096475 0.344856 0.351072 0.174838
H3    H     H_    0.998635 0.362672 0.269231 0.187046
H4    H     H_    0.921639 0.359718 0.410075 0.175834
H5    H     H_    0.919620 0.474205 0.358296 0.183889
H6    H     H_    0.697635 0.428644 0.793260 0.192855
H7    H     H_    0.706875 0.559793 0.796830 0.186510
H8    H     H_    0.822622 0.502932 0.813298 0.149434
H9    H     H_    0.755950 0.567465 0.943493 0.202167
H10   H     H_    0.782139 0.449642 0.948349 0.197815
H11   H     H_    0.272793 0.570476 0.852448 0.138230
H12   H     H_    0.012411 0.554629 0.579074 0.122877
H13   H     H_    0.267580 0.604281 0.963074 0.213996
H14   H     H_    0.253238 0.689561 0.881673 0.170403
H15   H     H_    0.425285 0.737086 0.930474 0.214040
H16   H     H_    0.435305 0.672194 0.836584 0.170855
H17   H     H_    0.567205 0.648512 0.073792 0.198099
H18   H     H_    0.209025 0.294819 0.957056 0.217940
H19   H     H_    0.200127 0.374680 0.867950 0.155154
H20   H     H_    0.210851 0.248454 0.852014 0.167939
H21   H     H_    0.380433 0.341555 0.829560 0.168875
H22   H     H_    0.388799 0.269848 0.919921 0.229330
H23   H     H_    0.097896 0.462706 0.302142 0.192574
I1    I     I_    0.256550 0.447945 0.092874 -0.343268
I2    I     I_    0.638814 0.710552 0.920439 -0.373634
I3    I     I_    0.300453 0.944320 0.498825 -0.278932
I4    I     I_    0.699590 0.055770 0.500465 -0.275784
I5    I     I_    0.401087 0.274415 0.094441 -0.224516
I6    I     I_    0.745793 0.572272 0.112593 -0.310905
I7    I     I_    0.673039 0.349221 0.127631 -0.196903
I8    I     I_    0.605672 0.300630 0.917339 -0.322661
I9    I     I_    0.393873 0.689955 0.109809 -0.287448
N1    N     N_1   0.238030 0.484880 0.486720 -0.186471
N2    N     N_1   0.761970 0.515120 0.513270 -0.177336
O1    O     O_R   0.399110 0.356330 0.494870 -0.490407
O2    O     O_R   0.575900 0.366540 0.503830 -0.483579
O3    O     O_R   0.411570 0.494900 0.374960 -0.480668
O4    O     O_R   0.588350 0.505100 0.383910 -0.483914
O5    O     O_R   0.424100 0.633460 0.496170 -0.481549
O6    O     O_R   0.600890 0.643670 0.505130 -0.484377
O7    O     O_R   0.411650 0.494900 0.616090 -0.496386
O8    O     O_R   0.588430 0.505100 0.625040 -0.497466

loop_
_geom_bond_atom_site_label_1
_geom_bond_atom_site_label_2
_ccdc_geom_bond_type
C28   H11   S    
C27   C29   S    
C15   I1    S    
C14   C18   S    
Cu1   Cu2   S    
C26   H8    S    
C2    I4    S    
C15   C19   S    
C12   C23   S    
Cu1   O5    S    
C17   C23   S    
C23   C29   S    
C24   H23   S    
C21   H18   S    
C22   H5    S    
C24   H3    S    
C14   O7    A    
C12   H1    S    
Cu2   O6    S    
C28   H14   S    
C13   O5    A    
Cu2   N2    S    
C8    C9    D    
C24   H2    S    
C15   I5    S    
C12   C15   S    
C9    C10   S    
C4    O4    A    
Cu1   O1    S    
C2    C6    S    
C19   C32   S    
C27   H15   S    
C26   H7    S    
C16   C19   S    
C30   H17   S    
C29   I2    S    
C17   I8    S    
C1    O2    A    
C21   H19   S    
C16   C17   S    
C25   C26   S    
Cu1   O7    S    
C6    C34   T    
C23   C31   S    
C29   C30   S    
C28   H13   S    
C8    C22   S    
C13   O6    A    
C22   H4    S    
C12   C20   S    
C1    O1    A    
C4    O3    A    
Cu2   O4    S    
C10   N2    T    
C22   C24   S    
C16   I7    S    
C20   H22   S    
C25   H9    S    
C27   H16   S    
C26   H6    S    
C5    C7    T    
C3    I3    S    
C4    C33   S    
Cu1   O3    S    
C1    C7    S    
C3    C5    S    
C21   H20   S    
C11   N1    T    
C18   C31   T    
C17   C25   S    
C32   C33   T    
C2    C3    D    
C13   C34   S    
Cu2   O8    S    
C8    C11   S    
C14   O8    A    
C20   C21   S    
Cu1   N1    S    
C9    H12   S    
C27   C28   S    
C16   I6    S    
C20   H21   S    
C19   C30   S    
C25   H10   S    
C30   I9    S    
Cu2   O2    S    
