data_mof_unit_36782.cif
_audit_creation_date              2012-12-11T14:19:15-0500
_audit_creation_method            fapswitch 2.2
_symmetry_space_group_name_H-M    P1
_symmetry_Int_Tables_number       1
_space_group_crystal_system       triclinic
_cell_length_a                    19.425522
_cell_length_b                    7.240725
_cell_length_c                    17.742226
_cell_angle_alpha                 89.999957
_cell_angle_beta                  107.799994
_cell_angle_gamma                 89.99999
_cell_volume                      2376.06788946

loop_
_atom_site_label
_atom_site_type_symbol
_atom_type_description
_atom_site_fract_x
_atom_site_fract_y
_atom_site_fract_z
_atom_type_partial_charge
O1    O     O_R   0.414820 0.494320 0.416790 -0.538962
O2    O     O_R   0.585180 0.994320 0.583210 -0.538962
O3    O     O_R   0.560270 0.819500 0.430140 -0.542842
O4    O     O_R   0.439730 0.319500 0.569860 -0.542844
C1    C     C_R   0.582535 0.655090 0.416197 0.714923
C2    C     C_R   0.417465 0.155090 0.583803 0.714921
O5    O     O_R   0.413840 0.823740 0.407440 -0.541909
O6    O     O_R   0.586160 0.323740 0.592560 -0.541910
O7    O     O_R   0.437710 0.998590 0.560350 -0.535276
O8    O     O_R   0.562290 0.498590 0.439650 -0.535277
C3    C     C_R   0.387544 0.654941 0.385301 0.736047
C4    C     C_R   0.612456 0.154940 0.614699 0.736047
O9    O     O_3   0.508000 0.662290 0.550200 -0.375760
O10   O     O_3   0.492000 0.162290 0.449800 -0.375758
V1    V     V_3+5 0.498520 0.935380 0.490690 1.451791
V2    V     V_3+5 0.501480 0.435380 0.509310 1.451787
C5    C     C_2   0.785463 0.271952 0.788243 -0.116366
C6    C     C_2   0.214537 0.771952 0.211757 -0.116366
C7    C     C_2   0.820439 0.113497 0.817016 -0.298360
C8    C     C_2   0.179561 0.613496 0.182984 -0.298359
H1    H     H_    0.807511 0.402288 0.815332 0.142962
H2    H     H_    0.192489 0.902288 0.184668 0.142962
H3    H     H_    0.800154 0.981751 0.790615 0.130395
H4    H     H_    0.199846 0.481750 0.209385 0.130396
C9    C     C_2   0.717630 0.284742 0.720119 -0.123291
C10   C     C_2   0.282370 0.784742 0.279881 -0.123291
C11   C     C_2   0.679385 0.138518 0.682488 -0.280709
C12   C     C_2   0.320615 0.638518 0.317512 -0.280706
H5    H     H_    0.698527 0.423060 0.700936 0.139593
H6    H     H_    0.301473 0.923060 0.299064 0.139594
H7    H     H_    0.697049 0.999359 0.701010 0.133501
H8    H     H_    0.302951 0.499359 0.298990 0.133502
C13   C     C_R   0.312880 0.004960 0.619315 0.209202
C14   C     C_R   0.687121 0.504962 0.380686 0.209225
C15   C     C_R   0.366188 0.145512 0.631389 -0.144825
C16   C     C_R   0.633812 0.645512 0.368611 -0.144833
C17   C     C_R   0.369944 0.282111 0.688816 -0.152501
C18   C     C_R   0.630055 0.782110 0.311183 -0.152498
C19   C     C_R   0.321653 0.284799 0.734165 -0.058662
C20   C     C_R   0.678345 0.784796 0.265833 -0.058667
C21   C     C_R   0.270638 0.139675 0.723958 -0.065732
C22   C     C_R   0.729362 0.639675 0.276041 -0.065944
C23   C     C_R   0.266829 0.999083 0.667302 0.173287
C24   C     C_R   0.733173 0.499085 0.332699 0.173195
C25   C     C_R   0.323067 0.426900 0.790066 0.466688
C26   C     C_R   0.676930 0.926894 0.209930 0.466640
C27   C     C_R   0.274186 0.421103 0.834189 -0.245617
C28   C     C_R   0.725811 0.921097 0.165807 -0.245639
C29   C     C_R   0.224812 0.276002 0.825476 0.014636
C30   C     C_R   0.775186 0.775999 0.174522 0.014672
C31   C     C_R   0.223312 0.133913 0.770809 0.079096
C32   C     C_R   0.776688 0.633913 0.229190 0.079020
C33   C     C_R   0.174569 0.985304 0.763274 0.135130
C34   C     C_R   0.825431 0.485305 0.236727 0.135105
C35   C     C_R   0.172360 0.845358 0.708281 -0.217976
C36   C     C_R   0.827641 0.345361 0.291721 -0.218003
C37   C     C_R   0.217255 0.853017 0.660292 -0.108128
C38   C     C_R   0.782747 0.353021 0.339710 -0.108147
C39   C     C_R   0.177288 0.270126 0.871372 -0.165756
C40   C     C_R   0.822710 0.770124 0.128626 -0.165758
C41   C     C_R   0.129346 0.121070 0.864867 -0.078456
C42   C     C_R   0.870653 0.621070 0.135133 -0.078457
C43   C     C_R   0.128694 0.978697 0.810824 -0.208299
C44   C     C_R   0.871307 0.478699 0.189177 -0.208291
H9    H     H_    0.411852 0.385039 0.697992 0.213962
H10   H     H_    0.588147 0.885037 0.302007 0.213968
H11   H     H_    0.275243 0.529155 0.876737 0.191682
H12   H     H_    0.724753 0.029147 0.123258 0.191674
H13   H     H_    0.178728 0.379807 0.913435 0.131610
H14   H     H_    0.821270 0.879803 0.086561 0.131607
H15   H     H_    0.091655 0.863693 0.804872 0.125904
H16   H     H_    0.908346 0.363696 0.195130 0.125905
H17   H     H_    0.135506 0.729934 0.702003 0.124255
H18   H     H_    0.864497 0.229939 0.298000 0.124271
H19   H     H_    0.213576 0.741793 0.618455 0.157168
H20   H     H_    0.786427 0.241798 0.381548 0.157189
O11   O     O_R   0.937810 0.773680 0.060480 -0.538809
O12   O     O_R   0.062190 0.273680 0.939520 -0.538810
O13   O     O_R   0.086190 0.439740 0.092580 -0.543310
O14   O     O_R   0.913810 0.939740 0.907420 -0.543311
C45   C     C_R   0.112475 0.608319 0.114789 0.733573
C46   C     C_R   0.887525 0.108319 0.885211 0.733571
O15   O     O_R   0.939760 0.444210 0.069890 -0.541255
O16   O     O_R   0.060240 0.944210 0.930110 -0.541254
O17   O     O_R   0.914790 0.269640 0.916760 -0.534955
O18   O     O_R   0.085210 0.769640 0.083240 -0.534954
C47   C     C_R   0.919306 0.612610 0.085031 0.697960
C48   C     C_R   0.080694 0.112611 0.914969 0.697963
O19   O     O_3   0.992050 0.601530 0.949880 -0.379763
O20   O     O_3   0.007950 0.101530 0.050120 -0.379763
V3    V     V_3+5 0.001480 0.328340 0.009300 1.411297
V4    V     V_3+5 0.998520 0.828340 0.990700 1.411298
N1    N     N_3   0.303298 0.869823 0.557592 -0.686881
H21   H     H_    0.298308 0.936846 0.503981 0.212795
H22   H     H_    0.347757 0.780912 0.571627 0.277947
N2    N     N_3   0.696703 0.369826 0.442410 -0.686869
H23   H     H_    0.652244 0.280913 0.428374 0.277944
H24   H     H_    0.701693 0.436849 0.496019 0.212797
S1    S     S_3+6 0.385845 0.612202 0.808816 0.000158
O21   O     O_2   0.459909 0.538747 0.851289 -0.295409
O22   O     O_2   0.386805 0.698679 0.732221 -0.372551
O23   O     O_3   0.363625 0.774185 0.865354 -0.495084
H25   H     H_    0.391346 0.885501 0.859787 0.382077
S2    S     S_3+6 0.614151 0.112193 0.191180 0.000211
O24   O     O_2   0.540083 0.038739 0.148722 -0.295295
O25   O     O_2   0.613201 0.198680 0.267778 -0.372646
O26   O     O_3   0.636361 0.274161 0.134626 -0.495055
H26   H     H_    0.608885 0.385693 0.140447 0.382004

loop_
_geom_bond_atom_site_label_1
_geom_bond_atom_site_label_2
_ccdc_geom_bond_type
O15   C47   A    
O11   V4    S    
O4    V2    S    
N1    H21   S    
C7    H3    S    
O1    C3    A    
O2    C4    A    
C2    O7    A    
S2    O25   D    
O17   V3    S    
C38   H20   S    
C27   C29   A    
C20   C26   A    
C15   C17   A    
C14   N2    S    
C1    C16   S    
C2    C15   S    
C40   C42   A    
C25   C27   A    
C41   C43   A    
C42   C44   A    
C5    C7    D    
C18   H10   S    
C24   C38   A    
C29   C31   A    
C6    C10   S    
C30   C32   A    
O26   H26   S    
C7    C46   S    
O13   V3    S    
C45   O18   A    
C19   C25   A    
C20   C22   A    
O6    V2    S    
C8    C45   S    
C21   C23   A    
C22   C24   A    
C27   H11   S    
S2    O24   D    
C32   C34   A    
C34   C36   A    
C33   C35   A    
C9    H5    S    
C26   C28   A    
C39   C41   A    
C36   H18   S    
C4    C11   S    
C11   H7    S    
C13   C23   A    
C8    H4    S    
C12   H8    S    
C14   C24   A    
O4    C2    A    
C25   S1    S    
O13   C45   A    
O5    V1    S    
C26   S2    S    
C5    H1    S    
C17   H9    S    
C31   C33   A    
O14   V4    S    
O5    C3    A    
C41   C48   S    
S1    O21   D    
N2    H24   S    
C40   H14   S    
O6    C4    A    
N2    H23   S    
O1    V2    S    
C28   H12   S    
O19   V4    S    
O2    V1    S    
O11   C47   A    
C39   H13   S    
O14   C46   A    
S1    O22   D    
C43   H15   S    
C10   H6    S    
C35   C37   A    
O3    V1    S    
O12   C48   A    
C6    H2    S    
O16   C48   A    
O3    C1    A    
C13   N1    S    
O12   V3    S    
C9    C11   D    
C46   O17   A    
O15   V3    S    
C42   C47   S    
C10   C12   D    
C29   C39   A    
C30   C40   A    
C37   H19   S    
C16   C18   A    
O7    V1    S    
C5    C9    S    
C1    O8    A    
C17   C19   A    
O8    V2    S    
C18   C20   A    
C33   C43   A    
O20   V3    S    
C34   C44   A    
C3    C12   S    
C28   C30   A    
C13   C15   A    
C14   C16   A    
C36   C38   A    
C6    C8    D    
C44   H16   S    
O23   H25   S    
C23   C37   A    
C35   H17   S    
S1    O23   S    
C19   C21   A    
N1    H22   S    
O9    V2    S    
O10   V1    S    
O18   V4    S    
O16   V4    S    
C21   C31   A    
S2    O26   S    
C22   C32   A    
