data_mof_unit_43522.cif
_audit_creation_date              2012-12-10T20:37:30-0500
_audit_creation_method            fapswitch 2.2
_symmetry_space_group_name_H-M    P1
_symmetry_Int_Tables_number       1
_space_group_crystal_system       triclinic
_cell_length_a                    15.689132
_cell_length_b                    10.659381
_cell_length_c                    9.87502
_cell_angle_alpha                 89.992244
_cell_angle_beta                  91.270687
_cell_angle_gamma                 90.084474
_cell_volume                      1651.05522388

loop_
_atom_site_label
_atom_site_type_symbol
_atom_type_description
_atom_site_fract_x
_atom_site_fract_y
_atom_site_fract_z
_atom_type_partial_charge
C1    C     C_R   0.502568 0.259978 0.500145 0.899582
C2    C     C_3   0.083349 0.531324 0.481472 0.134704
C3    C     C_3   0.974940 0.629151 0.561392 -0.003074
C4    C     C_3   0.916184 0.532709 0.490698 0.110510
C5    C     C_3   0.027063 0.639978 0.431006 -0.034825
C6    C     C_3   0.967365 0.543025 0.360222 -0.004466
C7    C     C_1   0.174005 0.519782 0.486637 -0.078644
C8    C     C_1   0.825859 0.521191 0.500623 -0.113713
C9    C     C_R   0.515239 0.063919 0.623746 0.109287
C10   C     C_R   0.516355 0.128627 0.501370 -0.101444
C11   C     C_R   0.534112 0.064918 0.380996 -0.181163
C12   C     C_R   0.337873 0.500276 0.498376 0.925836
C13   C     C_R   0.534370 0.935247 0.381028 -0.224813
C14   C     C_R   0.516788 0.871358 0.501407 -0.100398
C15   C     C_R   0.515519 0.936031 0.623785 0.109716
C16   C     C_3   0.453744 0.928441 0.736695 -0.455290
C17   C     C_3   0.453305 0.070625 0.736469 -0.448921
C18   C     C_R   0.458369 0.407867 0.069846 0.194676
C19   C     C_R   0.547598 0.583854 0.073614 -0.145763
C20   C     C_R   0.547606 0.583863 0.929685 -0.135697
C21   C     C_R   0.458208 0.408037 0.927359 0.153808
C22   C     C_3   0.365122 0.379511 0.918606 -0.550754
C23   C     C_R   0.502813 0.739997 0.500106 0.870514
C24   C     C_3   0.365441 0.379229 0.072630 0.187090
C25   C     C_R   0.662109 0.500635 0.501443 0.897830
C26   C     C_3   0.973364 0.424253 0.540811 -0.155111
C27   C     C_3   0.025389 0.434555 0.410135 -0.183977
C28   C     C_1   0.249068 0.509425 0.493245 -0.191585
C29   C     C_1   0.750858 0.510439 0.503998 -0.207844
C30   C     C_3   0.032696 0.520630 0.612130 -0.209864
H1    H     H_    0.047328 0.354555 0.347927 0.146467
H2    H     H_    0.483142 0.887678 0.830230 0.203344
H3    H     H_    0.390894 0.111310 0.703967 0.203347
H4    H     H_    0.482258 0.112130 0.830011 0.215460
H5    H     H_    0.584739 0.653144 0.129129 0.146538
H6    H     H_    0.584731 0.653169 0.876751 0.143819
H7    H     H_    0.327327 0.457920 0.873761 0.194059
H8    H     H_    0.352174 0.286416 0.871886 0.229900
H9    H     H_    0.327116 0.455893 0.117190 0.131611
H10   H     H_    0.950481 0.335570 0.586603 0.146992
H11   H     H_    0.062875 0.507668 0.713545 0.134099
H12   H     H_    0.541739 0.114070 0.285980 0.188944
H13   H     H_    0.542173 0.886170 0.286045 0.169277
H14   H     H_    0.391545 0.886468 0.704678 0.204287
N1    N     N_R   0.499430 0.499140 0.142800 -0.128488
N2    N     N_R   0.499430 0.499180 0.857150 -0.098814
O1    O     O_R   0.500010 0.316790 0.614690 -0.620423
O2    O     O_R   0.500000 0.316760 0.385350 -0.590634
O3    O     O_R   0.376780 0.500010 0.614650 -0.618307
O4    O     O_R   0.376770 0.499970 0.385310 -0.603545
O5    O     O_R   0.500000 0.683240 0.614650 -0.622212
O6    O     O_R   0.499990 0.683210 0.385310 -0.628147
O7    O     O_R   0.623230 0.500030 0.614690 -0.616170
O8    O     O_R   0.623220 0.499990 0.385350 -0.623059
Zn1   Zn    Zn3+2 0.500010 0.500020 0.653130 0.943792
Zn2   Zn    Zn3+2 0.499990 0.499980 0.346870 0.961855
Cl1   Cl    Cl    0.346219 0.227859 0.143092 -0.647834
C31   C     C_R   0.938855 0.552939 0.213671 0.107552
C32   C     C_R   0.000767 0.573099 0.115609 -0.144310
C33   C     C_R   0.977212 0.583306 0.979106 -0.122687
C34   C     C_R   0.891867 0.570417 0.938249 -0.088330
C35   C     C_R   0.829694 0.550024 0.034715 -0.151410
C36   C     C_R   0.852864 0.541651 0.171940 -0.162100
H15   H     H_    0.067440 0.581814 0.145032 0.134774
H16   H     H_    0.025538 0.601402 0.905771 0.125772
H17   H     H_    0.873791 0.575737 0.832141 0.144903
H18   H     H_    0.763477 0.540351 0.003154 0.137302
H19   H     H_    0.803282 0.525022 0.243219 0.153117
C37   C     C_R   0.049842 0.764728 0.368425 0.109403
C38   C     C_R   0.983935 0.846400 0.327305 -0.108525
C39   C     C_R   0.002683 0.962131 0.268338 -0.148939
C40   C     C_R   0.087389 0.997583 0.250159 -0.105177
C41   C     C_R   0.153392 0.917255 0.290910 -0.113910
C42   C     C_R   0.134880 0.801277 0.349776 -0.182283
H20   H     H_    0.917928 0.820123 0.340647 0.126310
H21   H     H_    0.951523 0.024318 0.236733 0.129297
H22   H     H_    0.101885 0.087261 0.204589 0.145788
H23   H     H_    0.219034 0.944873 0.276854 0.167024
H24   H     H_    0.187213 0.741454 0.380119 0.138527
C43   C     C_R   0.954707 0.741765 0.647505 0.107931
C44   C     C_R   0.021267 0.802586 0.718996 -0.151533
C45   C     C_R   0.004453 0.906253 0.800801 -0.117623
C46   C     C_R   0.921262 0.951312 0.810310 -0.101650
C47   C     C_R   0.854934 0.893330 0.737154 -0.133633
C48   C     C_R   0.871481 0.789398 0.655476 -0.176743
H25   H     H_    0.086124 0.768812 0.712427 0.126235
H26   H     H_    0.055932 0.951624 0.856847 0.135914
H27   H     H_    0.908286 0.031589 0.873675 0.121721
H28   H     H_    0.790615 0.929142 0.743428 0.128987
H29   H     H_    0.819235 0.747844 0.598537 0.135928

loop_
_geom_bond_atom_site_label_1
_geom_bond_atom_site_label_2
_ccdc_geom_bond_type
C18   C21   A    
C41   C42   A    
C6    C31   S    
C19   C20   A    
C4    C8    S    
C12   O3    A    
C26   C27   S    
C35   C36   A    
C35   H18   S    
C12   C28   S    
C46   C47   A    
C18   C24   S    
C8    C29   T    
C25   O7    A    
C5    C6    S    
C43   C44   A    
C45   H26   S    
C22   H8    S    
C24   H9    S    
C11   H12   S    
C5    C37   S    
C40   H22   S    
C34   H17   S    
C2    C7    S    
N1    Zn2   S    
C16   C17   S    
N2    Zn1   S    
C41   H23   S    
C30   H11   S    
C2    C27   S    
C9    C10   A    
C16   H14   S    
C44   H25   S    
C46   H27   S    
C32   C33   A    
C21   C22   S    
C34   C35   A    
C17   H3    S    
C3    C43   S    
C44   C45   A    
O7    Zn1   S    
C25   C29   S    
O8    Zn2   S    
C15   C16   S    
C27   H1    S    
C25   O8    A    
C4    C6    S    
C24   Cl1   S    
C31   C32   A    
O3    Zn1   S    
C22   H7    S    
O4    Zn2   S    
C7    C28   T    
C33   C34   A    
C14   C23   S    
C3    C30   S    
C43   C48   A    
C23   O5    A    
C6    C27   S    
C32   H15   S    
C37   C42   A    
C47   C48   A    
C38   C39   A    
C9    C17   S    
C33   H16   S    
C26   C30   S    
C42   H24   S    
C22   C24   S    
C2    C5    S    
C17   H4    S    
C3    C4    S    
C18   N1    A    
C13   H13   S    
O1    Zn1   S    
C21   N2    A    
C31   C36   A    
O2    Zn2   S    
C36   H19   S    
C1    O1    A    
C1    C10   S    
C40   C41   A    
C3    C5    S    
C4    C26   S    
C48   H29   S    
C19   N1    A    
C1    O2    A    
C16   H2    S    
C2    C30   S    
C9    C15   A    
C39   C40   A    
C19   H5    S    
C11   C13   A    
C26   H10   S    
C23   O6    A    
C39   H21   S    
O5    Zn1   S    
C37   C38   A    
C10   C11   A    
C20   H6    S    
C45   C46   A    
C47   H28   S    
C38   H20   S    
C14   C15   A    
C13   C14   A    
C12   O4    A    
C20   N2    A    
O6    Zn2   S    
