data_mof_unit_26179.cif
_audit_creation_date              2012-12-10T17:49:36-0500
_audit_creation_method            fapswitch 2.2
_symmetry_space_group_name_H-M    P1
_symmetry_Int_Tables_number       1
_space_group_crystal_system       triclinic
_cell_length_a                    14.68815
_cell_length_b                    14.793254
_cell_length_c                    15.87548
_cell_angle_alpha                 76.808567
_cell_angle_beta                  103.030895
_cell_angle_gamma                 115.372493
_cell_volume                      3002.39615881

loop_
_atom_site_label
_atom_site_type_symbol
_atom_type_description
_atom_site_fract_x
_atom_site_fract_y
_atom_site_fract_z
_atom_type_partial_charge
C1    C     C_R   0.879819 0.312682 0.517510 0.790192
C2    C     C_3   0.036762 0.419512 0.073361 -0.374963
C3    C     C_3   0.001075 0.500838 0.082749 0.331758
C4    C     C_3   0.073865 0.605588 0.041705 -0.377993
C5    C     C_3   0.073691 0.605675 0.944002 -0.379135
C6    C     C_1   0.001074 0.500673 0.174997 -0.118444
C7    C     C_1   0.000488 0.500956 0.824881 -0.121785
C8    C     C_1   0.000177 0.500693 0.749296 -0.188551
C9    C     C_R   0.810906 0.208969 0.546464 -0.047010
C10   C     C_R   0.188722 0.796142 0.489556 -0.090240
C11   C     C_R   0.772686 0.062809 0.659436 -0.202989
C12   C     C_R   0.000034 0.500200 0.659680 0.819611
C13   C     C_R   0.843866 0.148491 0.617035 -0.196862
C14   C     C_R   0.706911 0.179775 0.515347 -0.252700
C15   C     C_R   0.633657 0.096259 0.559079 0.085282
C16   C     C_R   0.668028 0.037528 0.632208 0.162658
C17   C     C_R   0.527331 0.069035 0.531934 0.064662
C18   C     C_R   0.457799 0.975028 0.569707 0.053021
C19   C     C_R   0.493772 0.927892 0.649849 -0.208927
C20   C     C_R   0.597413 0.956835 0.679335 -0.238513
C21   C     C_R   0.487874 0.133576 0.470717 -0.222945
C22   C     C_R   0.384268 0.101859 0.441387 -0.215458
C23   C     C_R   0.120395 0.687717 0.489883 0.785891
C24   C     C_R   0.318313 0.002112 0.465426 0.153158
C25   C     C_R   0.354709 0.934438 0.527083 0.037304
C26   C     C_R   0.217032 0.969257 0.425401 -0.204550
C27   C     C_R   0.152897 0.867803 0.437940 -0.213178
C28   C     C_R   0.289336 0.828797 0.537067 -0.078851
C29   C     C_R   0.713689 0.664203 0.352065 -0.324367
C30   C     C_R   0.796743 0.637290 0.377131 0.079987
C31   C     C_R   0.714004 0.508270 0.487441 0.005398
C32   C     C_R   0.626745 0.531890 0.465227 -0.024315
C33   C     C_R   0.628610 0.612011 0.395890 0.169882
C34   C     C_R   0.000234 0.500164 0.340279 0.830675
C35   C     C_R   0.539095 0.480224 0.509405 0.071425
C36   C     C_R   0.455121 0.510654 0.483468 0.066621
C37   C     C_R   0.461112 0.590789 0.413689 -0.245216
C38   C     C_R   0.546040 0.640044 0.370939 -0.204151
C39   C     C_R   0.532864 0.399781 0.578940 -0.234893
C40   C     C_R   0.449232 0.352607 0.623414 -0.198451
C41   C     C_R   0.368032 0.382750 0.600158 0.160677
C42   C     C_R   0.368729 0.460967 0.529259 -0.026730
C43   C     C_R   0.285816 0.335108 0.647630 -0.330393
C44   C     C_R   0.204585 0.364844 0.624750 0.082904
C45   C     C_3   0.036590 0.419607 0.975673 -0.380101
C46   C     C_R   0.282749 0.486592 0.508601 0.041158
C47   C     C_3   0.892277 0.477616 0.933559 -0.375277
C48   C     C_3   0.892457 0.477527 0.031229 -0.377588
C49   C     C_1   0.000778 0.500436 0.250589 -0.184950
C50   C     C_3   0.000771 0.500988 0.917111 0.334118
Cu1   Cu    Cu3+1 0.081750 0.475690 0.522550 0.941767
Cu2   Cu    Cu3+1 0.918250 0.524310 0.477450 0.933905
H1    H     H_    0.985536 0.343363 0.102264 0.159996
H2    H     H_    0.114596 0.434830 0.965170 0.157910
H3    H     H_    0.114849 0.434679 0.109727 0.161502
H4    H     H_    0.049758 0.665471 0.047474 0.158767
H5    H     H_    0.622280 0.915638 0.739066 0.141819
H6    H     H_    0.076130 0.844657 0.402686 0.154908
H7    H     H_    0.356534 0.154085 0.395271 0.142323
H8    H     H_    0.799360 0.018431 0.715564 0.129325
H9    H     H_    0.924020 0.170747 0.642723 0.143028
H10   H     H_    0.685122 0.225348 0.457805 0.143734
H11   H     H_    0.985290 0.343500 0.957726 0.159390
H12   H     H_    0.442555 0.869481 0.691685 0.160522
H13   H     H_    0.534883 0.210553 0.446952 0.145271
H14   H     H_    0.188404 0.021717 0.380768 0.133956
H15   H     H_    0.547305 0.701391 0.317951 0.136914
H16   H     H_    0.275671 0.543919 0.455263 0.122963
H17   H     H_    0.140729 0.327983 0.660998 0.118587
H18   H     H_    0.448373 0.291958 0.677006 0.140574
H19   H     H_    0.716062 0.725615 0.298921 0.132809
H20   H     H_    0.862655 0.677455 0.343529 0.121140
H21   H     H_    0.719942 0.449210 0.539418 0.127823
H22   H     H_    0.864797 0.535221 0.892284 0.161784
H23   H     H_    0.401523 0.618266 0.390543 0.132478
H24   H     H_    0.591837 0.371358 0.601283 0.135785
H25   H     H_    0.284402 0.275287 0.702105 0.134206
H26   H     H_    0.838343 0.402564 0.914848 0.160308
H27   H     H_    0.838603 0.402431 0.059363 0.160713
H28   H     H_    0.865058 0.535090 0.036806 0.160584
H29   H     H_    0.152353 0.624210 0.932917 0.156840
H30   H     H_    0.049502 0.665597 0.902911 0.160316
H31   H     H_    0.152616 0.624091 0.077502 0.159504
N1    N     N_R   0.795410 0.560790 0.443550 -0.177141
N2    N     N_R   0.204590 0.439170 0.556520 -0.173118
O1    O     O_R   0.977910 0.338120 0.529720 -0.586480
O2    O     O_R   0.839850 0.379180 0.491640 -0.586700
O3    O     O_R   0.069060 0.479460 0.639610 -0.582145
O4    O     O_R   0.931000 0.520530 0.601530 -0.575929
O5    O     O_R   0.160150 0.620820 0.508360 -0.569013
O6    O     O_R   0.022090 0.661880 0.470280 -0.588491
O7    O     O_R   0.069000 0.479470 0.398470 -0.579701
O8    O     O_R   0.930940 0.520540 0.360390 -0.578614
C51   C     C_R   0.327429 0.751641 0.589617 0.120387
C52   C     C_R   0.406099 0.737900 0.564691 -0.125252
C53   C     C_R   0.446093 0.670034 0.617400 -0.141717
C54   C     C_R   0.405163 0.612387 0.693151 -0.116995
C55   C     C_R   0.325044 0.623530 0.717106 -0.117483
C56   C     C_R   0.286672 0.693409 0.666035 -0.118211
H32   H     H_    0.438068 0.781716 0.505880 0.126308
H33   H     H_    0.508359 0.661532 0.599163 0.142883
H34   H     H_    0.435317 0.558806 0.733090 0.126799
H35   H     H_    0.293207 0.578623 0.775639 0.119202
H36   H     H_    0.225786 0.702730 0.686033 0.103109

loop_
_geom_bond_atom_site_label_1
_geom_bond_atom_site_label_2
_ccdc_geom_bond_type
C10   C27   A    
C1    O2    A    
C41   C42   A    
C36   C42   A    
C52   C53   A    
C34   O8    A    
C9    C14   A    
C3    C6    S    
Cu1   N2    S    
C54   C55   A    
C7    C8    T    
C25   C28   A    
C26   C27   A    
C29   C30   A    
C40   H18   S    
C51   C56   A    
C48   H27   S    
C36   C37   A    
C24   C26   A    
C2    H3    S    
Cu1   O5    S    
C31   H21   S    
C55   H35   S    
C14   H10   S    
C29   C33   A    
C3    C48   S    
C28   C51   S    
C18   C19   A    
C42   C46   A    
Cu2   N1    S    
C9    C13   A    
C35   C36   A    
C47   C48   S    
C54   H34   S    
C8    C12   S    
C46   N2    A    
C56   H36   S    
C37   H23   S    
C21   C22   A    
C4    H4    S    
C41   C43   A    
Cu2   O4    S    
C18   C25   A    
Cu1   O1    S    
C47   C50   S    
C2    C45   S    
C15   C16   A    
C12   O3    A    
Cu1   Cu2   S    
C26   H14   S    
C32   C35   A    
C12   O4    A    
C44   H17   S    
C1    C9    S    
C24   C25   A    
C7    C50   S    
C39   C40   A    
C52   H32   S    
C27   H6    S    
C17   C21   A    
C31   N1    A    
C35   C39   A    
C43   C44   A    
C46   H16   S    
C37   C38   A    
Cu1   O7    S    
C5    H29   S    
C11   C16   A    
C31   C32   A    
C19   H12   S    
C16   C20   A    
C53   C54   A    
C17   C18   A    
C3    C4    S    
C23   O5    A    
Cu2   O8    S    
C39   H24   S    
C40   C41   A    
C45   H2    S    
C23   O6    A    
C5    C50   S    
C44   N2    A    
C22   H7    S    
C10   C28   A    
C1    O1    A    
C15   C17   A    
C34   C49   S    
C21   H13   S    
Cu2   O2    S    
C47   H22   S    
C4    C5    S    
C2    H1    S    
Cu1   O3    S    
C30   H20   S    
C10   C23   S    
C43   H25   S    
C33   C38   A    
C32   C33   A    
C48   H28   S    
C19   C20   A    
C2    C3    S    
C5    H30   S    
C11   C13   A    
C4    H31   S    
C45   C50   S    
C45   H11   S    
C22   C24   A    
C6    C49   T    
C30   N1    A    
C51   C52   A    
C34   O7    A    
C13   H9    S    
C38   H15   S    
C55   C56   A    
C14   C15   A    
Cu2   O6    S    
C47   H26   S    
C20   H5    S    
C53   H33   S    
C11   H8    S    
C29   H19   S    
