data_mof_unit_10204.cif
_audit_creation_date              2013-03-05T15:56:03-0500
_audit_creation_method            fapswitch 2.2
_symmetry_space_group_name_H-M    P1
_symmetry_Int_Tables_number       1
_space_group_crystal_system       triclinic
_cell_length_a                    12.430485
_cell_length_b                    13.29331
_cell_length_c                    17.242776
_cell_angle_alpha                 106.366095
_cell_angle_beta                  74.4736
_cell_angle_gamma                 117.271236
_cell_volume                      2397.62835924

loop_
_atom_site_label
_atom_site_type_symbol
_atom_site_description
_atom_site_fract_x
_atom_site_fract_y
_atom_site_fract_z
_atom_type_partial_charge
O1    O     O_R   0.025490 0.682370 0.523640 -0.549230
O2    O     O_R   0.194150 0.640180 0.491890 -0.624927
C1    C     C_R   0.144152 0.713259 0.514145 0.783476
O3    O     O_R   0.905900 0.523560 0.631310 -0.549795
O4    O     O_R   0.074570 0.481370 0.599560 -0.574936
C2    C     C_R   0.983704 0.498088 0.651791 0.852106
Cu1   Cu    Cu3+1 0.900140 0.524980 0.518800 1.107860
Cu2   Cu    Cu3+1 0.099860 0.475020 0.481200 0.988235
O5    O     O_R   0.805850 0.359820 0.508110 -0.508938
O6    O     O_R   0.974510 0.317630 0.476360 -0.579605
O7    O     O_R   0.925430 0.518630 0.400440 -0.500707
O8    O     O_R   0.094100 0.476440 0.368690 -0.619945
C3    C     C_R   0.855981 0.286746 0.490225 0.902021
C4    C     C_R   0.016052 0.501247 0.348398 0.839571
C5    C     C_R   0.970973 0.490337 0.737432 -0.116070
C6    C     C_R   0.027534 0.432787 0.759010 0.338835
C7    C     C_R   0.027763 0.441785 0.841553 -0.187236
C8    C     C_R   0.969169 0.503417 0.902713 0.110197
C9    C     C_R   0.904471 0.551332 0.881410 -0.137034
C10   C     C_R   0.905698 0.545251 0.799419 -0.177316
C11   C     C_R   0.029693 0.611581 0.164427 -0.108404
C12   C     C_R   0.010070 0.599528 0.246386 0.260694
C13   C     C_R   0.081061 0.445858 0.200838 -0.215300
C14   C     C_R   0.098071 0.455764 0.120141 -0.146363
C15   C     C_R   0.069065 0.535026 0.101255 0.056548
C16   C     C_2   0.972482 0.516863 0.989411 -0.157744
C17   C     C_2   0.070967 0.527673 0.014539 -0.127829
C18   C     C_R   0.034130 0.514814 0.264000 -0.132584
H1    H     H_    0.101577 0.381910 0.213834 0.168294
H2    H     H_    0.150153 0.522195 0.970852 0.163287
H3    H     H_    0.856191 0.596693 0.928285 0.160645
H4    H     H_    0.857706 0.586043 0.784915 0.222619
H5    H     H_    0.893614 0.521673 0.033981 0.155915
H6    H     H_    0.070595 0.397374 0.857852 0.165569
H7    H     H_    0.129481 0.398033 0.071852 0.156934
C19   C     C_R   0.715736 0.985289 0.380667 0.343598
H8    H     H_    0.896843 0.121038 0.374765 0.198481
H9    H     H_    0.515488 0.822827 0.318653 0.191226
C20   C     C_R   0.774135 0.164227 0.478415 -0.162493
C21   C     C_R   0.198630 0.877407 0.626116 -0.172316
C22   C     C_R   0.290217 0.963408 0.668403 -0.112620
C23   C     C_R   0.410901 0.005849 0.628834 -0.064894
C24   C     C_R   0.441901 0.971210 0.543506 0.129053
C25   C     C_R   0.347725 0.880279 0.501349 0.074435
C26   C     C_R   0.564294 0.017003 0.499679 -0.041061
C27   C     C_R   0.592957 0.953656 0.421021 -0.010879
C28   C     C_R   0.497936 0.864972 0.381226 -0.125897
C29   C     C_R   0.377252 0.833344 0.419057 -0.163850
C30   C     C_R   0.658065 0.125291 0.527793 0.320330
C31   C     C_R   0.804839 0.091562 0.409490 -0.270498
C32   C     C_R   0.226462 0.832045 0.543568 -0.048488
H10   H     H_    0.109690 0.835973 0.661009 0.175586
H11   H     H_    0.478615 0.059248 0.668020 0.182953
H12   H     H_    0.269070 0.991002 0.733827 0.166806
H13   H     H_    0.307003 0.767864 0.384072 0.164948
C33   C     C_R   0.650845 0.687882 0.621465 -0.250179
H14   H     H_    0.652393 0.759841 0.670578 0.196834
N1    N     N_R   0.749710 0.562810 0.547300 -0.264759
C34   C     C_R   0.252587 0.358127 0.384240 0.117917
C35   C     C_R   0.358066 0.339382 0.351399 -0.239812
C36   C     C_R   0.459321 0.398985 0.391617 -0.063485
C37   C     C_R   0.454241 0.472836 0.468222 0.030562
C38   C     C_R   0.347974 0.496519 0.495195 0.281595
C39   C     C_R   0.553128 0.530317 0.515715 -0.097355
C40   C     C_R   0.551901 0.625190 0.578998 0.036916
C41   C     C_R   0.450121 0.653848 0.600622 -0.035159
C42   C     C_R   0.348206 0.585164 0.562068 -0.190179
C43   C     C_R   0.651240 0.495873 0.505074 0.511734
C44   C     C_R   0.750518 0.659894 0.602733 0.136063
N2    N     N_R   0.249640 0.437820 0.453210 -0.204757
H15   H     H_    0.174977 0.313841 0.351938 0.130122
H16   H     H_    0.542115 0.390271 0.359154 0.207859
H17   H     H_    0.362797 0.281427 0.293435 0.167331
H18   H     H_    0.272545 0.608405 0.583191 0.206960
N3    N     N_R   0.080104 0.361098 0.698766 0.134048
O9    O     O_R   0.181786 0.361927 0.706579 -0.331644
O10   O     O_R   0.016439 0.281325 0.644518 -0.299235
N4    N     N_R   0.750529 0.912110 0.309298 0.139897
O11   O     O_R   0.707246 0.801993 0.307464 -0.292141
O12   O     O_R   0.839674 0.956989 0.252170 -0.322770
N5    N     N_R   0.636682 0.201769 0.601880 0.098005
O13   O     O_R   0.709616 0.243084 0.655773 -0.364473
O14   O     O_R   0.553921 0.240371 0.611728 -0.294162
C45   C     C_2   0.855222 0.742515 0.643957 0.879472
O15   O     O_2   0.883790 0.716098 0.695122 -0.637544
O16   O     O_R   0.911211 0.856310 0.631481 -0.711705
H19   H     H_    0.971104 0.910292 0.670391 0.337683
N6    N     N_R   0.974870 0.678518 0.311810 0.150153
O17   O     O_R   0.859830 0.660444 0.334088 -0.264679
O18   O     O_R   0.055739 0.760620 0.354940 -0.350443
C46   C     C_2   0.445636 0.755441 0.663510 0.825863
O19   O     O_2   0.353575 0.745328 0.714927 -0.589737
O20   O     O_R   0.544192 0.863435 0.661817 -0.751667
H20   H     H_    0.531177 0.924720 0.708922 0.339838
N7    N     N_R   0.638524 0.383793 0.459137 0.112820
O21   O     O_R   0.708756 0.372738 0.389307 -0.374987
O22   O     O_R   0.540720 0.293695 0.478013 -0.317809
C47   C     C_2   0.016473 0.707484 0.145178 0.879920
O23   O     O_2   0.933866 0.736352 0.183708 -0.474065
O24   O     O_R   0.098926 0.764708 0.082394 -0.740280
H21   H     H_    0.080154 0.827525 0.074620 0.348169

loop_
_geom_bond_atom_site_label_1
_geom_bond_atom_site_label_2
_geom_bond_distance
_ccdc_geom_bond_type
C29   H13   1.083352 S    
O20   H20   1.013473 S    
C11   C47   1.490687 S    
C6    N3    1.436544 S    
C22   C23   1.388403 A    
C9    C10   1.389486 A    
C8    C16   1.464255 S    
N3    O9    1.301316 A    
C9    H3    1.083669 S    
N5    O13   1.301625 A    
Cu1   Cu2   2.726060 S    
C26   C27   1.431153 A    
Cu1   O7    1.963362 S    
C16   C17   1.339682 D    
C39   C43   1.440584 A    
C45   O16   1.399069 S    
C23   H11   1.074972 S    
O4    C2    1.307253 A    
O7    C4    1.306942 A    
N4    O12   1.301975 A    
C33   C40   1.393680 A    
C35   H17   1.082605 S    
C33   H14   1.080686 S    
C8    C9    1.395284 A    
C30   N5    1.438783 S    
O5    C3    1.307696 A    
C37   C39   1.446024 A    
C2    C5    1.470357 S    
N7    O21   1.299467 A    
C6    C7    1.394957 A    
C13   C14   1.385056 A    
C19   C27   1.413687 A    
C12   N6    1.433831 S    
Cu1   N1    2.054631 S    
C41   C42   1.388995 A    
C34   C35   1.387188 A    
O1    Cu1   1.948324 S    
C11   C12   1.410513 A    
C17   H2    1.086019 S    
O3    Cu1   1.966027 S    
N5    O14   1.300633 A    
C5    C10   1.404446 A    
C38   C42   1.396837 A    
C43   N7    1.434703 S    
C5    C6    1.418239 A    
C14   H7    1.084031 S    
C14   C15   1.396635 A    
O3    C2    1.313430 A    
C46   O19   1.223386 D    
C33   C44   1.385025 A    
C1    C32   1.464077 S    
O16   H19   1.012839 S    
C21   H10   1.077155 S    
C35   C36   1.391626 A    
O1    C1    1.313267 A    
C24   C25   1.422532 A    
C37   C38   1.424792 A    
C46   O20   1.398361 S    
N3    O10   1.301545 A    
C16   H5    1.087296 S    
C28   C29   1.380367 A    
C38   N2    1.381446 A    
C26   C30   1.427382 A    
Cu2   O8    1.966028 S    
C7    C8    1.400923 A    
C42   H18   1.064003 S    
C13   C18   1.397852 A    
C45   O15   1.218324 D    
C24   C26   1.432239 A    
H9    C28   1.082088 S    
C25   C32   1.415296 A    
N1    C43   1.390693 A    
C21   C22   1.384435 A    
C20   C30   1.407417 A    
N6    O18   1.300828 A    
C47   O23   1.222805 D    
C47   O24   1.398811 S    
C7    H6    1.082891 S    
C13   H1    1.083763 S    
C19   C31   1.390915 A    
C36   H16   1.072496 S    
C10   H4    1.079456 S    
Cu1   O5    1.938415 S    
C11   C15   1.417042 A    
C27   C28   1.399195 A    
N4    O11   1.301731 A    
O2    Cu2   1.938414 S    
O8    C4    1.308562 A    
O6    C3    1.307259 A    
O4    Cu2   1.963362 S    
N7    O22   1.300744 A    
N1    C44   1.370170 A    
C41   C46   1.488009 S    
C15   C17   1.465137 S    
C21   C32   1.397537 A    
Cu2   N2    2.042567 S    
C39   C40   1.419384 A    
O2    C1    1.301074 A    
C44   C45   1.466580 S    
C19   N4    1.440048 S    
H8    C31   1.083943 S    
O24   H21   1.013963 S    
C36   C37   1.412041 A    
C22   H12   1.082899 S    
C3    C20   1.461047 S    
C34   N2    1.356535 A    
C20   C31   1.392568 A    
N6    O17   1.301254 A    
Cu2   O6    1.948325 S    
C40   C41   1.412064 A    
C23   C24   1.415093 A    
C12   C18   1.414160 A    
C4    C18   1.461682 S    
C25   C29   1.403393 A    
C34   H15   1.081620 S    
