data_mof_unit_35903.cif
_audit_creation_date              2012-12-10T16:45:20-0500
_audit_creation_method            fapswitch 2.2
_symmetry_space_group_name_H-M    P1
_symmetry_Int_Tables_number       1
_space_group_crystal_system       triclinic
_cell_length_a                    7.433318
_cell_length_b                    8.733993
_cell_length_c                    15.802334
_cell_angle_alpha                 94.609699
_cell_angle_beta                  74.649205
_cell_angle_gamma                 102.992915
_cell_volume                      963.759692668

loop_
_atom_site_label
_atom_site_type_symbol
_atom_type_description
_atom_site_fract_x
_atom_site_fract_y
_atom_site_fract_z
_atom_type_partial_charge
C1    C     C_R   0.542540 0.799412 0.504312 0.816742
C2    C     C_R   0.457460 0.200588 0.495689 0.816831
C3    C     C_R   0.279788 0.406030 0.082044 -0.159591
C4    C     C_R   0.720106 0.594720 0.918042 -0.159561
C5    C     C_R   0.150226 0.362576 0.031046 -0.214653
C6    C     C_R   0.849642 0.638208 0.969053 -0.214610
C7    C     C_2   0.547356 0.963551 0.520798 -0.199161
C8    C     C_2   0.452645 0.036449 0.479203 -0.199263
C9    C     C_R   0.382038 0.481969 0.666265 0.784527
C10   C     C_R   0.617963 0.518064 0.333739 0.784519
C11   C     C_R   0.307719 0.456167 0.761764 -0.118016
C12   C     C_R   0.692287 0.544028 0.238257 -0.117931
C13   C     C_R   0.070961 0.346523 0.891984 -0.167465
C14   C     C_R   0.928921 0.654103 0.108106 -0.167420
C15   C     C_R   0.121380 0.371341 0.801417 -0.031741
C16   C     C_R   0.878534 0.629090 0.198654 -0.031710
C17   C     C_R   0.436403 0.511609 0.813737 -0.170884
C18   C     C_R   0.563652 0.488579 0.186264 -0.171058
C19   C     C_R   0.391801 0.476843 0.903173 0.093920
C20   C     C_R   0.608166 0.523635 0.096873 0.093977
C21   C     C_R   0.204122 0.395744 0.942170 0.098709
C22   C     C_R   0.795787 0.604885 0.057907 0.098666
C23   C     C_R   0.528298 0.518887 0.954592 0.075440
C24   C     C_R   0.471645 0.481693 0.045465 0.075424
Cu1   Cu    Cu3+1 0.322120 0.483240 0.490330 1.124030
Cu2   Cu    Cu3+1 0.677880 0.516760 0.509670 1.124024
H1    H     H_    0.005511 0.303026 0.061848 0.158551
H2    H     H_    0.994308 0.697902 0.938276 0.158542
H3    H     H_    0.427510 0.418423 0.218090 0.164765
H4    H     H_    0.572672 0.581482 0.781849 0.164931
H5    H     H_    0.928667 0.282501 0.923266 0.178236
H6    H     H_    0.071159 0.718272 0.076854 0.178270
H7    H     H_    0.222661 0.378663 0.150363 0.168234
H8    H     H_    0.777199 0.622297 0.849751 0.168085
N1    N     N_2   0.945180 0.542040 0.524240 0.229108
N2    N     N_2   0.054820 0.457960 0.475760 0.229114
O1    O     O_R   0.384450 0.714270 0.493720 -0.512984
O2    O     O_R   0.615550 0.285730 0.506280 -0.512963
O3    O     O_R   0.684880 0.742590 0.510050 -0.617335
O4    O     O_R   0.315120 0.257410 0.489950 -0.617301
O5    O     O_R   0.265540 0.477900 0.617090 -0.571800
O6    O     O_R   0.734460 0.522100 0.382910 -0.571804
O7    O     O_R   0.565970 0.506210 0.633420 -0.539162
O8    O     O_R   0.434030 0.493790 0.366580 -0.539163
C25   C     C_2   0.019573 0.701590 0.249405 0.427038
H9    H     H_    0.974159 0.735505 0.317838 0.099716
O9    O     O_2   0.190522 0.728419 0.214184 -0.523583
C26   C     C_2   0.980265 0.298869 0.750700 0.427231
H10   H     H_    0.025616 0.264733 0.682300 0.099696
O10   O     O_2   0.809317 0.272318 0.785918 -0.523612
C27   C     C_2   0.626577 0.032597 0.596403 0.395718
H11   H     H_    0.749655 0.997011 0.606956 0.093629
O11   O     O_2   0.548505 0.120909 0.650361 -0.516772
C28   C     C_2   0.373428 0.967402 0.403597 0.395830
H12   H     H_    0.250343 0.002980 0.393045 0.093682
O12   O     O_2   0.451512 0.879099 0.349637 -0.516721
F1    F     F_    0.007233 0.621454 0.590407 -0.565464
F2    F     F_    0.992767 0.378546 0.409593 -0.565455

loop_
_geom_bond_atom_site_label_1
_geom_bond_atom_site_label_2
_ccdc_geom_bond_type
C16   C25   S    
C19   C23   A    
C23   C24   A    
C14   C16   A    
C6    H2    S    
C10   O6    A    
C2    O2    A    
C9    O5    A    
N1    N2    D    
C10   O8    A    
C1    O1    A    
N1    F1    S    
Cu1   O1    S    
C14   C22   A    
C26   O10   D    
C3    C5    A    
C13   C21   A    
C7    C8    D    
C18   H3    S    
Cu1   O5    S    
C25   H9    S    
C17   H4    S    
C9    C11   S    
C3    C24   A    
C10   C12   S    
C15   C26   S    
C1    C7    S    
Cu1   O8    S    
C26   H10   S    
C19   C21   A    
C20   C22   A    
Cu2   O7    S    
C28   O12   D    
C13   C15   A    
Cu1   O4    S    
C20   C24   A    
C4    H8    S    
Cu2   O3    S    
C9    O7    A    
C1    O3    A    
N2    F2    S    
C12   C18   A    
C27   H11   S    
C6    C22   A    
C2    O4    A    
Cu2   N1    S    
C5    C21   A    
Cu2   O6    S    
C18   C20   A    
C4    C6    A    
C7    C27   S    
C25   O9    D    
C8    C28   S    
C4    C23   A    
C3    H7    S    
C28   H12   S    
Cu2   O2    S    
C2    C8    S    
Cu1   N2    S    
C17   C19   A    
Cu1   Cu2   S    
C5    H1    S    
C11   C15   A    
C13   H5    S    
C11   C17   A    
C12   C16   A    
C14   H6    S    
C27   O11   D    
