data_mof_unit_19067.cif
_audit_creation_date              2012-12-10T17:16:34-0500
_audit_creation_method            fapswitch 2.2
_symmetry_space_group_name_H-M    P1
_symmetry_Int_Tables_number       1
_space_group_crystal_system       triclinic
_cell_length_a                    10.195955
_cell_length_b                    10.623194
_cell_length_c                    10.793118
_cell_angle_alpha                 92.087337
_cell_angle_beta                  97.664663
_cell_angle_gamma                 83.203305
_cell_volume                      1150.20167028

loop_
_atom_site_label
_atom_site_type_symbol
_atom_type_description
_atom_site_fract_x
_atom_site_fract_y
_atom_site_fract_z
_atom_type_partial_charge
C1    C     C_R   0.441718 0.507555 0.267154 0.807035
C2    C     C_R   0.501827 0.738426 0.500292 0.862934
C3    C     C_R   0.536550 0.118747 0.277258 -0.143988
C4    C     C_R   0.462680 0.881376 0.722747 -0.149447
C5    C     C_R   0.564020 0.046943 0.171353 -0.145278
C6    C     C_R   0.435154 0.953266 0.828595 -0.145535
C7    C     C_R   0.569952 0.915802 0.172627 -0.143327
C8    C     C_R   0.430184 0.084344 0.827530 -0.139612
C9    C     C_R   0.548518 0.856422 0.279827 -0.155108
C10   C     C_R   0.452601 0.143544 0.720610 -0.179485
C11   C     C_R   0.525223 0.927702 0.390292 0.071447
C12   C     C_R   0.558273 0.492004 0.732825 0.799949
C13   C     C_R   0.475111 0.072305 0.609978 0.073113
C14   C     C_R   0.519293 0.059573 0.389025 0.075369
C15   C     C_R   0.480511 0.940472 0.611118 0.077915
C16   C     C_R   0.505235 0.870707 0.501205 -0.196134
C17   C     C_R   0.494846 0.129309 0.499007 -0.203113
C18   C     C_2   0.727937 0.411484 0.913714 0.386707
C19   C     C_2   0.270974 0.583689 0.085267 0.408054
C20   C     C_3   0.884862 0.570530 0.649176 -0.326263
C21   C     C_3   0.973055 0.665232 0.717339 -0.903374
C22   C     C_3   0.130244 0.325826 0.558492 -0.323418
C23   C     C_2   0.404347 0.518552 0.133340 -0.224051
C24   C     C_3   0.033648 0.241384 0.601296 -0.905910
C25   C     C_2   0.595634 0.479440 0.866478 -0.216722
C26   C     C_2   0.499608 0.476746 0.062437 -0.133157
C27   C     C_2   0.500719 0.521451 0.937686 -0.133497
C28   C     C_2   0.076075 0.463834 0.538579 0.152136
C29   C     C_2   0.928804 0.500635 0.532399 0.166221
C30   C     C_R   0.498216 0.261582 0.499850 0.874920
H1    H     H_    0.409682 0.140511 0.909882 0.146278
H2    H     H_    0.585386 0.414381 0.102781 0.210814
H3    H     H_    0.880875 0.394717 0.377824 0.174597
H4    H     H_    0.113835 0.641728 0.529770 0.177178
H5    H     H_    0.777815 0.343083 0.853306 0.071882
H6    H     H_    0.219061 0.651053 0.145154 0.081649
H7    H     H_    0.072719 0.618059 0.754426 0.311034
H8    H     H_    0.980884 0.744816 0.655905 0.247270
H9    H     H_    0.926256 0.706719 0.799093 0.269457
H10   H     H_    0.789258 0.627595 0.626193 0.266412
H11   H     H_    0.878017 0.498116 0.718714 0.225306
H12   H     H_    0.590602 0.859716 0.090258 0.144882
H13   H     H_    0.991790 0.283197 0.685405 0.265717
H14   H     H_    0.951923 0.226108 0.525578 0.265047
H15   H     H_    0.088307 0.147060 0.626161 0.263886
H16   H     H_    0.163175 0.284500 0.470278 0.221406
H17   H     H_    0.214755 0.322614 0.634943 0.252490
H18   H     H_    0.528999 0.220643 0.270035 0.136635
H19   H     H_    0.469792 0.779493 0.729907 0.136639
H20   H     H_    0.580274 0.093368 0.088071 0.138099
H21   H     H_    0.418387 0.906936 0.911759 0.137037
H22   H     H_    0.550846 0.754541 0.274433 0.155439
H23   H     H_    0.451600 0.245293 0.726284 0.147585
H24   H     H_    0.415431 0.584792 0.897856 0.207648
N1    N     N_2   0.157300 0.551390 0.551120 -0.219778
N2    N     N_2   0.842700 0.448610 0.448880 -0.216447
O1    O     O_R   0.568940 0.489660 0.307530 -0.593190
O2    O     O_2   0.214795 0.557699 0.982062 -0.576816
O3    O     O_R   0.431060 0.510340 0.692470 -0.594565
O4    O     O_R   0.348880 0.522640 0.340350 -0.607952
O5    O     O_R   0.651120 0.477360 0.659650 -0.646163
O6    O     O_R   0.610030 0.300280 0.483580 -0.600508
O7    O     O_R   0.389970 0.699720 0.516420 -0.608250
O8    O     O_R   0.389970 0.333270 0.516400 -0.642193
O9    O     O_R   0.610030 0.666730 0.483600 -0.630959
O10   O     O_2   0.785571 0.436083 0.016723 -0.561554
Zn1   Zn    Zn3+2 0.646940 0.477980 0.478080 0.927938
Zn2   Zn    Zn3+2 0.353060 0.522020 0.521920 0.927667

loop_
_geom_bond_atom_site_label_1
_geom_bond_atom_site_label_2
_ccdc_geom_bond_type
C24   H14   S    
C19   C23   S    
C7    H12   S    
C26   H2    S    
C12   O5    A    
C29   N2    D    
C1    O1    A    
C6    H21   S    
C18   O10   D    
N2    Zn1   S    
C2    C16   S    
C18   H5    S    
O5    Zn1   S    
C21   H9    S    
C13   C17   A    
C12   C25   S    
C19   H6    S    
C2    O9    A    
H3    N2    S    
C13   C15   A    
C22   H17   S    
C27   H24   S    
H4    N1    S    
C8    H1    S    
C22   C28   S    
C2    O7    A    
C17   C30   S    
C9    C11   A    
C14   C17   A    
C26   C27   S    
C18   C25   S    
O6    Zn1   S    
C4    C15   A    
C20   H11   S    
C24   H15   S    
O8    Zn2   S    
C8    C10   A    
C28   C29   S    
C22   H16   S    
C28   N1    D    
O1    Zn1   S    
C1    C23   S    
C9    H22   S    
C30   O8    A    
C20   C29   S    
C30   O6    A    
C19   O2    D    
C25   C27   D    
C20   H10   S    
C11   C14   A    
C22   C24   S    
C5    H20   S    
C1    O4    A    
C3    C14   A    
C15   C16   A    
C7    C9    A    
C3    H18   S    
C21   H7    S    
C20   C21   S    
O4    Zn2   S    
C4    C6    A    
C11   C16   A    
C23   C26   D    
C5    C7    A    
O3    Zn2   S    
N1    Zn2   S    
O7    Zn2   S    
C4    H19   S    
C24   H13   S    
C6    C8    A    
C3    C5    A    
C12   O3    A    
C10   H23   S    
C21   H8    S    
O9    Zn1   S    
C10   C13   A    
