data_mof_unit_26615.cif
_audit_creation_date              2012-12-11T15:50:32-0500
_audit_creation_method            fapswitch 2.2
_symmetry_space_group_name_H-M    P1
_symmetry_Int_Tables_number       1
_space_group_crystal_system       triclinic
_cell_length_a                    18.909259
_cell_length_b                    10.959122
_cell_length_c                    18.71357
_cell_angle_alpha                 90.289105
_cell_angle_beta                  91.403658
_cell_angle_gamma                 90.172534
_cell_volume                      3876.75999133

loop_
_atom_site_label
_atom_site_type_symbol
_atom_type_description
_atom_site_fract_x
_atom_site_fract_y
_atom_site_fract_z
_atom_type_partial_charge
C1    C     C_R   0.274042 0.039333 0.855044 0.549275
C2    C     C_R   0.760551 0.572726 0.928566 0.018003
C3    C     C_R   0.229403 0.549914 0.352582 0.543897
C4    C     C_R   0.468399 0.823732 0.645878 0.538452
C5    C     C_R   0.528847 0.823543 0.352289 0.548136
C6    C     C_R   0.968397 0.323732 0.645877 0.538447
C7    C     C_R   0.028847 0.323544 0.352289 0.548136
C8    C     C_R   0.274444 0.690868 0.637054 0.572563
C9    C     C_R   0.726742 0.686919 0.363605 0.570345
C10   C     C_R   0.774443 0.190867 0.637054 0.572559
C11   C     C_R   0.226741 0.186920 0.363605 0.570349
C12   C     C_3   0.484566 0.912926 0.030738 -0.111007
C13   C     C_R   0.741759 0.077519 0.073060 0.017021
C14   C     C_3   0.534284 0.938049 0.967971 -0.125465
C15   C     C_3   0.984523 0.412831 0.030750 -0.111003
C16   C     C_3   0.034227 0.438091 0.967994 -0.125447
C17   C     C_3   0.450231 0.805612 0.988925 -0.103781
C18   C     C_3   0.589660 0.848640 0.000602 -0.137931
C19   C     C_3   0.950260 0.305486 0.988911 -0.103765
C20   C     C_3   0.089653 0.348769 0.000611 -0.137962
C21   C     C_3   0.500515 0.830310 0.927420 0.050692
C22   C     C_3   0.539249 0.823518 0.062009 0.052639
C23   C     C_3   0.000529 0.330319 0.927416 0.050690
C24   C     C_R   0.260566 0.072692 0.928580 0.017986
C25   C     C_3   0.039257 0.323513 0.062007 0.052622
C26   C     C_R   0.305885 0.553660 0.040089 0.007596
C27   C     C_R   0.696304 0.549072 0.961080 -0.008348
C28   C     C_R   0.805886 0.053673 0.040090 0.007594
C29   C     C_R   0.196315 0.049066 0.961090 -0.008367
C30   C     C_R   0.311383 0.563402 0.966422 0.021617
C31   C     C_R   0.690326 0.558751 0.034657 0.023686
C32   C     C_R   0.811382 0.063403 0.966422 0.021584
C33   C     C_R   0.726656 0.040498 0.145590 0.541871
C34   C     C_R   0.190338 0.058727 0.034668 0.023712
C35   C     C_R   0.188431 0.619097 0.956697 -0.179751
C36   C     C_R   0.814177 0.610564 0.045577 -0.174683
C37   C     C_R   0.688432 0.119091 0.956695 -0.179751
C38   C     C_R   0.314201 0.110471 0.045599 -0.174661
C39   C     C_R   0.184192 0.617369 0.030226 -0.174483
C40   C     C_R   0.818991 0.608055 0.972020 -0.166460
C41   C     C_R   0.684189 0.117352 0.030223 -0.174452
C42   C     C_R   0.319018 0.107964 0.972041 -0.166455
C43   C     C_3   0.351943 0.443729 0.043600 -0.271015
C44   C     C_R   0.774038 0.539341 0.855040 0.549287
C45   C     C_3   0.650550 0.438437 0.956629 -0.272288
C46   C     C_3   0.851954 0.943752 0.043608 -0.271015
C47   C     C_3   0.150540 0.938455 0.956625 -0.272298
C48   C     C_3   0.358025 0.453761 0.963187 -0.279472
C49   C     C_3   0.644179 0.448018 0.036980 -0.275161
C50   C     C_3   0.858028 0.953766 0.963192 -0.279468
C51   C     C_3   0.144180 0.948003 0.036978 -0.275154
C52   C     C_R   0.251839 0.590831 0.923430 0.014530
C53   C     C_R   0.749661 0.585808 0.078001 0.018550
C54   C     C_R   0.751839 0.090824 0.923429 0.014529
C55   C     C_R   0.226656 0.540497 0.145590 0.541870
C56   C     C_R   0.249677 0.085753 0.078018 0.018554
C57   C     C_R   0.494124 0.830955 0.420835 0.021493
C58   C     C_R   0.485959 0.831551 0.570850 0.020081
C59   C     C_R   0.994118 0.330958 0.420832 0.021495
C60   C     C_R   0.985953 0.331551 0.570847 0.020083
C61   C     C_R   0.472006 0.822193 0.854492 0.546914
C62   C     C_R   0.561005 0.816872 0.137708 0.565043
C63   C     C_R   0.972021 0.322197 0.854487 0.546872
C64   C     C_R   0.061004 0.316871 0.137708 0.565049
C65   C     C_R   0.481050 0.723246 0.458284 0.028588
C66   C     C_3   0.554923 0.741338 0.958571 -0.125590
C67   C     C_R   0.480219 0.724570 0.531251 0.028058
C68   C     C_R   0.981032 0.223249 0.458279 0.028591
C69   C     C_R   0.980201 0.224570 0.531247 0.028054
C70   C     C_R   0.485026 0.942753 0.533188 -0.162325
C71   C     C_R   0.488793 0.942465 0.458127 -0.167102
C72   C     C_R   0.985026 0.442755 0.533187 -0.162318
C73   C     C_R   0.988795 0.442468 0.458126 -0.167093
C74   C     C_3   0.516611 0.600980 0.458830 -0.271353
C75   C     C_3   0.517498 0.606146 0.539645 -0.282733
C76   C     C_3   0.016587 0.100976 0.458825 -0.271354
C77   C     C_3   0.504994 0.716236 0.020802 -0.102198
C78   C     C_3   0.017478 0.106146 0.539640 -0.282737
C79   C     C_R   0.252945 0.617194 0.415737 0.023376
C80   C     C_R   0.745153 0.604083 0.582618 0.021580
C81   C     C_R   0.752943 0.117194 0.415737 0.023379
C82   C     C_R   0.245152 0.104096 0.582621 0.021578
C83   C     C_R   0.204200 0.692092 0.450462 0.032212
C84   C     C_R   0.778266 0.707948 0.555353 0.028713
C85   C     C_R   0.704194 0.192078 0.450465 0.032208
C86   C     C_R   0.278278 0.207950 0.555351 0.028721
C87   C     C_R   0.213002 0.719532 0.521750 0.016700
C88   C     C_3   0.054989 0.241436 0.958552 -0.125625
C89   C     C_R   0.771799 0.734092 0.483486 0.014469
C90   C     C_R   0.712996 0.219516 0.521753 0.016684
C91   C     C_R   0.271811 0.234090 0.483484 0.014484
C92   C     C_R   0.325438 0.616758 0.523281 -0.156284
C93   C     C_R   0.696160 0.557968 0.465807 -0.167954
C94   C     C_R   0.825438 0.116770 0.523278 -0.156291
C95   C     C_R   0.196143 0.057994 0.465814 -0.167952
C96   C     C_R   0.317673 0.593135 0.449957 -0.161078
C97   C     C_R   0.699657 0.535405 0.538271 -0.178129
C98   C     C_R   0.817675 0.093151 0.449954 -0.161081
C99   C     C_3   0.005075 0.216199 0.020774 -0.102197
C100  C     C_R   0.199641 0.035435 0.538279 -0.178126
C101  C     C_3   0.125951 0.675616 0.457454 -0.268527
C102  C     C_3   0.854848 0.743969 0.558100 -0.265851
C103  C     C_3   0.625947 0.175585 0.457459 -0.268525
C104  C     C_3   0.354867 0.243945 0.558093 -0.265839
C105  C     C_3   0.135762 0.703318 0.535755 -0.271822
C106  C     C_3   0.848325 0.767052 0.479030 -0.269870
C107  C     C_3   0.635758 0.203291 0.535760 -0.271827
C108  C     C_3   0.348344 0.267020 0.479022 -0.269847
C109  C     C_R   0.260813 0.635559 0.851343 0.551728
C110  C     C_R   0.241761 0.577522 0.073060 0.017009
C111  C     C_R   0.739560 0.634116 0.149182 0.546965
C112  C     C_R   0.760816 0.135569 0.851346 0.551738
C113  C     C_R   0.239564 0.134105 0.149190 0.546979
C114  C     C_R   0.270944 0.673979 0.560351 0.016453
C115  C     C_R   0.732756 0.657380 0.437937 0.023273
C116  C     C_R   0.770942 0.173976 0.560351 0.016454
C117  C     C_R   0.232753 0.157387 0.437938 0.023270
C118  C     C_R   0.270428 0.048435 0.647502 0.549331
C119  C     C_R   0.729403 0.049914 0.352582 0.543895
C120  C     C_R   0.770428 0.548432 0.647502 0.549328
Cr1   Cr    Cr6+3 0.229640 0.835880 0.747370 0.998797
Cr2   Cr    Cr6+3 0.614230 0.677220 0.250660 1.002524
Cr3   Cr    Cr6+3 0.885770 0.177220 0.749340 1.007051
Cr4   Cr    Cr6+3 0.114230 0.177220 0.250660 1.002521
Cr5   Cr    Cr6+3 0.770360 0.835880 0.252630 1.000081
Cr6   Cr    Cr6+3 0.729640 0.335880 0.747370 0.998800
Cr7   Cr    Cr6+3 0.270360 0.335880 0.252630 1.000082
Cr8   Cr    Cr6+3 0.387390 0.989720 0.750850 1.001989
Cr9   Cr    Cr6+3 0.612610 0.989720 0.249150 1.002460
Cr10  Cr    Cr6+3 0.887390 0.489720 0.750850 1.001991
Cr11  Cr    Cr6+3 0.112610 0.489720 0.249150 1.002464
Cr12  Cr    Cr6+3 0.385770 0.677220 0.749340 1.007050
H1    H     H_    0.392440 0.789196 0.982666 0.122773
H2    H     H_    0.985190 0.033481 0.564107 0.131834
H3    H     H_    0.569479 0.604930 0.436321 0.171673
H4    H     H_    0.485209 0.533480 0.564110 0.131835
H5    H     H_    0.482233 0.527218 0.436334 0.121259
H6    H     H_    0.570918 0.618620 0.564350 0.147994
H7    H     H_    0.982203 0.027218 0.436331 0.121250
H8    H     H_    0.070899 0.118620 0.564343 0.147994
H9    H     H_    0.358527 0.545512 0.421915 0.118449
H10   H     H_    0.672779 0.456368 0.558132 0.138175
H11   H     H_    0.858532 0.045535 0.421912 0.118443
H12   H     H_    0.647516 0.863922 0.007056 0.119109
H13   H     H_    0.172751 0.956412 0.558143 0.138158
H14   H     H_    0.109058 0.579936 0.447742 0.162383
H15   H     H_    0.891820 0.668229 0.570280 0.158701
H16   H     H_    0.609062 0.079901 0.447748 0.162387
H17   H     H_    0.391832 0.168194 0.570276 0.158695
H18   H     H_    0.095062 0.746217 0.427922 0.132713
H19   H     H_    0.864268 0.828518 0.590090 0.137356
H20   H     H_    0.595051 0.246178 0.427928 0.132715
H21   H     H_    0.364298 0.328500 0.590080 0.137342
H22   H     H_    0.108510 0.788063 0.552050 0.124852
H23   H     H_    0.892482 0.288965 0.982645 0.122793
H24   H     H_    0.857202 0.863052 0.465393 0.132653
H25   H     H_    0.608504 0.288035 0.552055 0.124857
H26   H     H_    0.357237 0.363020 0.465381 0.132634
H27   H     H_    0.124604 0.622906 0.569808 0.159671
H28   H     H_    0.878821 0.700868 0.446756 0.151864
H29   H     H_    0.624605 0.122878 0.569814 0.159676
H30   H     H_    0.378830 0.200814 0.446750 0.151858
H31   H     H_    0.456029 0.982772 0.061853 0.119075
H32   H     H_    0.543662 0.028683 0.944083 0.106633
H33   H     H_    0.955939 0.482590 0.061882 0.119117
H34   H     H_    0.147497 0.364125 0.007074 0.119133
H35   H     H_    0.043565 0.528755 0.944135 0.106631
H36   H     H_    0.581805 0.673718 0.924755 0.125136
H37   H     H_    0.492669 0.625104 0.042903 0.118806
H38   H     H_    0.081917 0.173899 0.924722 0.125123
H39   H     H_    0.992802 0.125036 0.042855 0.118775
H40   H     H_    0.142300 0.647848 0.925883 0.130238
H41   H     H_    0.860618 0.637356 0.076973 0.130980
H42   H     H_    0.642307 0.147865 0.925881 0.130230
H43   H     H_    0.360642 0.137249 0.077000 0.130970
H44   H     H_    0.133271 0.638284 0.052512 0.146097
H45   H     H_    0.483636 0.028876 0.561529 0.121309
H46   H     H_    0.870339 0.626567 0.949944 0.143455
H47   H     H_    0.633268 0.138264 0.052509 0.146095
H48   H     H_    0.370370 0.126449 0.949967 0.143453
H49   H     H_    0.822848 0.861102 0.060313 0.171306
H50   H     H_    0.180392 0.857480 0.939191 0.177347
H51   H     H_    0.322831 0.361077 0.060292 0.171308
H52   H     H_    0.680420 0.357471 0.939212 0.177336
H53   H     H_    0.402582 0.461606 0.073231 0.130588
H54   H     H_    0.599886 0.454741 0.926943 0.126154
H55   H     H_    0.902595 0.961647 0.073234 0.130600
H56   H     H_    0.492774 0.028363 0.430250 0.121202
H57   H     H_    0.099877 0.954805 0.926948 0.126173
H58   H     H_    0.412320 0.477563 0.946349 0.141824
H59   H     H_    0.589765 0.470159 0.053873 0.134494
H60   H     H_    0.912320 0.977570 0.946347 0.141828
H61   H     H_    0.089771 0.970145 0.053884 0.134472
H62   H     H_    0.332852 0.376435 0.933305 0.142098
H63   H     H_    0.669690 0.371527 0.066537 0.145688
H64   H     H_    0.832854 0.876430 0.933318 0.142097
H65   H     H_    0.169689 0.871494 0.066521 0.145690
H66   H     H_    0.370783 0.581542 0.552004 0.139361
H67   H     H_    0.983641 0.528879 0.561530 0.121310
H68   H     H_    0.667178 0.494415 0.431517 0.137188
H69   H     H_    0.870785 0.081561 0.552001 0.139363
H70   H     H_    0.167153 0.994445 0.431527 0.137176
H71   H     H_    0.992780 0.528366 0.430250 0.121203
H72   H     H_    0.069456 0.104914 0.436315 0.171669
O1    O     O_R   0.214300 0.709080 0.827500 -0.531224
O2    O     O_R   0.543340 0.717710 0.330180 -0.528925
O3    O     O_R   0.956660 0.217710 0.669820 -0.528574
O4    O     O_R   0.043340 0.217710 0.330180 -0.528927
O5    O     O_R   0.320590 0.625770 0.672930 -0.510013
O6    O     O_R   0.679410 0.625770 0.327070 -0.514381
O7    O     O_R   0.820590 0.125770 0.672930 -0.510013
O8    O     O_R   0.179410 0.125770 0.327070 -0.514381
O9    O     O_3   0.334270 0.834280 0.749190 -0.268424
O10   O     O_3   0.665730 0.834280 0.250810 -0.285793
O11   O     O_3   0.834270 0.334280 0.749190 -0.268418
O12   O     O_R   0.785700 0.709080 0.172500 -0.528717
O13   O     O_3   0.165730 0.334280 0.250810 -0.285794
O14   O     O_R   0.236190 0.958390 0.823150 -0.503229
O15   O     O_R   0.763810 0.958390 0.176850 -0.503482
O16   O     O_R   0.736190 0.458390 0.823150 -0.503228
O17   O     O_R   0.263810 0.458390 0.176850 -0.503474
O18   O     O_R   0.332090 0.075280 0.831290 -0.527789
O19   O     O_R   0.667910 0.075280 0.168710 -0.533213
O20   O     O_R   0.832090 0.575280 0.831290 -0.527793
O21   O     O_R   0.167910 0.575280 0.168710 -0.533210
O22   O     O_R   0.446280 0.918040 0.826620 -0.503724
O23   O     O_R   0.714300 0.209080 0.827500 -0.531226
O24   O     O_R   0.553720 0.918040 0.173380 -0.501314
O25   O     O_R   0.946280 0.418040 0.826620 -0.503703
O26   O     O_R   0.053720 0.418040 0.173380 -0.501314
O27   O     O_R   0.457080 0.716270 0.831760 -0.521543
O28   O     O_R   0.542920 0.716270 0.168240 -0.519186
O29   O     O_R   0.957080 0.216270 0.831760 -0.521527
O30   O     O_R   0.042920 0.216270 0.168240 -0.519183
O31   O     O_R   0.320980 0.624440 0.823040 -0.491673
O32   O     O_R   0.679020 0.624440 0.176960 -0.506998
O33   O     O_R   0.820980 0.124440 0.823040 -0.491674
O34   O     O_R   0.285700 0.209080 0.172500 -0.528717
O35   O     O_R   0.179020 0.124440 0.176960 -0.507007
O36   O     O_R   0.213880 0.710510 0.665560 -0.521718
O37   O     O_R   0.786120 0.710510 0.334440 -0.513615
O38   O     O_R   0.713880 0.210510 0.665560 -0.521718
O39   O     O_R   0.286120 0.210510 0.334440 -0.513621
O40   O     O_R   0.235800 0.959720 0.673040 -0.525683
O41   O     O_R   0.764200 0.959720 0.326960 -0.517341
O42   O     O_R   0.735800 0.459720 0.673040 -0.525689
O43   O     O_R   0.264200 0.459720 0.326960 -0.517340
O44   O     O_R   0.331670 0.076720 0.669350 -0.524447
O45   O     O_R   0.445900 0.919370 0.676500 -0.509208
O46   O     O_R   0.668330 0.076720 0.330650 -0.521906
O47   O     O_R   0.831670 0.576720 0.669350 -0.524449
O48   O     O_R   0.168330 0.576720 0.330650 -0.521907
O49   O     O_R   0.554100 0.919370 0.323500 -0.504394
O50   O     O_R   0.945900 0.419370 0.676500 -0.509209
O51   O     O_R   0.054100 0.419370 0.323500 -0.504394
O52   O     O_R   0.456660 0.717710 0.669820 -0.528571

loop_
_geom_bond_atom_site_label_1
_geom_bond_atom_site_label_2
_ccdc_geom_bond_type
C38   C56   A    
Cr1   O40   S    
Cr2   O32   S    
C80   C120  S    
C34   C56   A    
Cr3   O11   S    
C21   C66   S    
C36   C40   A    
C19   H23   S    
Cr1   O14   S    
Cr2   O2    S    
Cr5   O41   S    
Cr6   O23   S    
C44   O16   A    
C120  O47   A    
Cr1   O1    S    
C71   H56   S    
Cr9   O19   S    
C86   C104  S    
C13   C41   A    
Cr10  O47   S    
C105  H27   S    
C24   C42   A    
C95   C117  A    
C95   H70   S    
C15   C19   S    
C89   C115  A    
C73   H71   S    
C28   C46   S    
C34   C51   S    
C3    O43   A    
C29   C47   S    
C60   C69   A    
C14   C21   S    
C30   C48   S    
C7    O51   A    
C80   C97   A    
C76   C78   S    
C90   C107  S    
C38   C42   A    
C86   C91   A    
C98   H11   S    
Cr5   O12   S    
C118  O44   A    
C45   H54   S    
C15   C25   S    
C82   C118  S    
C99   H39   S    
C81   C98   A    
C94   C98   A    
C16   H35   S    
C15   C16   S    
C12   C22   S    
C101  H18   S    
C92   C96   A    
C84   C102  S    
C6    O50   A    
C93   C115  A    
C5    O49   A    
Cr9   O10   S    
C14   C18   S    
C24   C29   A    
C87   C114  A    
C36   C53   A    
C51   H65   S    
C100  H13   S    
C61   O27   A    
C5    O2    A    
Cr3   O29   S    
C63   O25   A    
C50   H64   S    
C25   C99   S    
C39   C110  A    
C2    C44   S    
C107  H29   S    
C42   H48   S    
C68   C69   A    
C65   C67   A    
Cr3   O7    S    
C12   C17   S    
C103  H16   S    
C54   C112  S    
C56   C113  S    
C91   C117  A    
C13   C28   A    
Cr5   O37   S    
C2    C27   A    
C44   O20   A    
C90   C116  A    
C104  H21   S    
C50   H60   S    
C43   C48   S    
C59   C73   A    
C48   H58   S    
C85   C103  S    
C8    C114  S    
Cr8   O9    S    
C55   O17   A    
Cr4   O30   S    
C53   C111  S    
C46   C50   S    
C23   C63   S    
C105  H22   S    
C37   H42   S    
C3    C79   S    
C36   H41   S    
C112  O23   A    
C18   C22   S    
Cr4   O4    S    
C14   H32   S    
C35   H40   S    
C26   C110  A    
C69   C78   S    
C120  O42   A    
C31   C49   S    
C47   H50   S    
C92   H66   S    
C32   C54   A    
C107  H25   S    
Cr6   O16   S    
C26   C43   S    
C33   O15   A    
C11   O8    A    
C101  C105  S    
C74   H5    S    
C101  H14   S    
C88   H38   S    
C74   C75   S    
C27   C31   A    
C80   C84   A    
C9    C115  S    
C6    C60   S    
C28   C32   A    
C93   H68   S    
Cr7   O39   S    
C111  O12   A    
C72   C73   A    
C51   H61   S    
C119  O46   A    
Cr8   O18   S    
Cr4   O35   S    
C94   C116  A    
C95   C100  A    
C58   C70   A    
C47   C51   S    
C49   H63   S    
Cr10  O25   S    
C82   C86   A    
C108  H30   S    
C29   C34   A    
C17   C21   S    
C65   C74   S    
Cr2   O10   S    
C1    O18   A    
Cr9   O49   S    
C25   C64   S    
Cr1   O9    S    
C104  H17   S    
C47   H57   S    
C35   C39   A    
Cr6   O38   S    
C102  H15   S    
C22   C62   S    
C57   C71   A    
Cr5   O10   S    
Cr11  O21   S    
C93   C97   A    
C87   C105  S    
Cr7   O13   S    
C45   C49   S    
C9    O6    A    
C16   C20   S    
Cr7   O43   S    
C74   H3    S    
Cr2   O6    S    
C111  O32   A    
Cr3   O3    S    
Cr10  O11   S    
C94   H69   S    
C3    O48   A    
C109  O1    A    
C78   H2    S    
C32   C50   S    
C6    O3    A    
C1    O14   A    
C8    O36   A    
C103  H20   S    
C1    C24   S    
C40   H46   S    
C37   C54   A    
C109  O31   A    
Cr11  O26   S    
Cr8   O22   S    
C113  O34   A    
C12   C14   S    
C9    O37   A    
C26   C30   A    
C16   C23   S    
C106  H24   S    
C23   C88   S    
C55   C110  S    
C17   H1    S    
C46   H55   S    
C89   C106  S    
C83   C101  S    
C31   C53   A    
C67   C75   S    
C84   C89   A    
C4    O52   A    
Cr12  O52   S    
C8    O5    A    
C11   C117  S    
Cr12  O27   S    
C33   O19   A    
C104  C108  S    
C70   C71   A    
C10   C116  S    
Cr11  O48   S    
C19   C23   S    
C76   H7    S    
C66   C77   S    
C30   C52   A    
Cr9   O46   S    
C19   C99   S    
Cr8   O44   S    
Cr5   O15   S    
C48   H62   S    
C64   O30   A    
C75   H4    S    
C21   C61   S    
C91   C108  S    
C41   H47   S    
C10   O7    A    
Cr12  O5    S    
C61   O22   A    
C22   C77   S    
C57   C65   A    
C39   H44   S    
Cr10  O50   S    
C75   H6    S    
C78   H8    S    
C83   C87   A    
C4    O45   A    
C7    O4    A    
C85   C90   A    
C76   H72   S    
C70   H45   S    
C13   C33   S    
C49   H59   S    
C66   H36   S    
C68   C76   S    
Cr1   O36   S    
Cr4   O8    S    
C102  H19   S    
C62   O28   A    
Cr8   O45   S    
C5    C57   S    
C11   O39   A    
C82   C100  A    
C20   H34   S    
C55   O21   A    
C18   H12   S    
C119  O41   A    
C79   C96   A    
C96   H9    S    
C64   O26   A    
C81   C119  S    
C12   H31   S    
C79   C83   A    
C17   C77   S    
C27   C45   S    
C38   H43   S    
Cr6   O42   S    
Cr4   O13   S    
C52   C109  S    
C62   O24   A    
C20   C88   S    
Cr9   O24   S    
C43   H51   S    
C118  O40   A    
C102  C106  S    
Cr11  O51   S    
Cr10  O20   S    
C60   C72   A    
C37   C41   A    
C18   C66   S    
Cr12  O31   S    
C97   H10   S    
C88   C99   S    
Cr6   O11   S    
Cr7   O17   S    
C63   O29   A    
C10   O38   A    
C2    C40   A    
C58   C67   A    
C113  O35   A    
C108  H26   S    
Cr7   O34   S    
C77   H37   S    
C112  O33   A    
C20   C25   S    
C4    C58   S    
C35   C52   A    
C43   H53   S    
C15   H33   S    
C59   C68   A    
C103  C107  S    
Cr12  O9    S    
C46   H49   S    
Cr3   O33   S    
Cr11  O13   S    
C92   C114  A    
Cr2   O28   S    
C81   C85   A    
C7    C59   S    
C45   H52   S    
C106  H28   S    
C72   H67   S    
