data_mof_unit_42027.cif
_audit_creation_date              2012-12-10T21:26:01-0500
_audit_creation_method            fapswitch 2.2
_symmetry_space_group_name_H-M    P1
_symmetry_Int_Tables_number       1
_space_group_crystal_system       triclinic
_cell_length_a                    8.581815
_cell_length_b                    16.12468
_cell_length_c                    16.861854
_cell_angle_alpha                 87.774211
_cell_angle_beta                  90.831441
_cell_angle_gamma                 101.29698
_cell_volume                      2286.33556835

loop_
_atom_site_label
_atom_site_type_symbol
_atom_type_description
_atom_site_fract_x
_atom_site_fract_y
_atom_site_fract_z
_atom_type_partial_charge
C1    C     C_R   0.495487 0.488631 0.652886 0.859009
C2    C     C_R   0.496754 0.510756 0.347097 0.868510
C3    C     C_R   0.414266 0.755509 0.466588 -0.125988
C4    C     C_R   0.586993 0.245223 0.533335 -0.136100
C5    C     C_R   0.420235 0.843194 0.468387 -0.270843
C6    C     C_R   0.583535 0.157730 0.531365 -0.288711
C7    C     C_R   0.536869 0.894077 0.514841 0.277422
C8    C     C_R   0.469984 0.106525 0.483672 0.283675
C9    C     C_R   0.642981 0.853952 0.558504 -0.410807
C10   C     C_R   0.363725 0.145921 0.439483 -0.405367
C11   C     C_R   0.631086 0.765234 0.556818 0.623332
C12   C     C_R   0.367300 0.233649 0.444715 0.619566
C13   C     C_R   0.801005 0.522025 0.501274 0.977917
C14   C     C_R   0.198981 0.477964 0.499430 0.973147
C15   C     C_2   0.967126 0.534055 0.501797 -0.373117
C16   C     C_2   0.032891 0.466067 0.500279 -0.399018
C17   C     C_R   0.471590 0.480310 0.737981 -0.027460
C18   C     C_R   0.472009 0.515234 0.261912 -0.031849
C19   C     C_R   0.430865 0.547834 0.777389 -0.251758
C20   C     C_R   0.420370 0.440025 0.222101 -0.219117
C21   C     C_R   0.402743 0.540554 0.857927 -0.162570
C22   C     C_R   0.391413 0.442783 0.141448 -0.172532
C23   C     C_R   0.416776 0.465488 0.900566 0.328394
C24   C     C_R   0.416091 0.521205 0.099108 0.329708
C25   C     C_R   0.452239 0.397195 0.860784 -0.193561
C26   C     C_R   0.461523 0.596302 0.139322 -0.192318
C27   C     C_R   0.479802 0.404367 0.779612 -0.217727
C28   C     C_R   0.489741 0.593583 0.220605 -0.221644
H1    H     H_    0.034736 0.598587 0.502831 0.183693
H2    H     H_    0.964935 0.401675 0.499800 0.164628
H3    H     H_    0.401621 0.378835 0.253172 0.192088
H4    H     H_    0.419724 0.606348 0.746045 0.156254
H5    H     H_    0.353035 0.383533 0.112218 0.149996
H6    H     H_    0.372870 0.594186 0.886734 0.148668
H7    H     H_    0.462912 0.339261 0.893268 0.138853
H8    H     H_    0.480038 0.656807 0.107072 0.138800
H9    H     H_    0.509040 0.351185 0.749750 0.159181
H10   H     H_    0.527053 0.652350 0.250785 0.163147
H11   H     H_    0.674990 0.284162 0.569651 0.156756
H12   H     H_    0.325743 0.717056 0.430161 0.159118
H13   H     H_    0.669305 0.130964 0.566516 0.165538
H14   H     H_    0.334914 0.870496 0.433409 0.167995
H15   H     H_    0.735428 0.891724 0.593394 0.155896
H16   H     H_    0.277518 0.108279 0.401264 0.156337
N1    N     N_2   0.408058 0.458418 0.983921 -0.207596
N2    N     N_2   0.408896 0.526925 0.015688 -0.208904
N3    N     N_R   0.519180 0.718290 0.509780 -0.122503
N4    N     N_R   0.480820 0.281710 0.490220 -0.119710
N5    N     N_2   0.552453 0.984241 0.519889 -0.174887
N6    N     N_2   0.456442 0.016576 0.478192 -0.170824
O1    O     O_R   0.493140 0.422050 0.612640 -0.630794
O2    O     O_R   0.506860 0.577950 0.387360 -0.632052
O3    O     O_R   0.505450 0.562230 0.618920 -0.612604
O4    O     O_R   0.494550 0.437770 0.381080 -0.587838
O5    O     O_R   0.723530 0.446300 0.497600 -0.629279
O6    O     O_R   0.276470 0.553700 0.502400 -0.625895
O7    O     O_R   0.735850 0.586490 0.503880 -0.573149
O8    O     O_R   0.264150 0.413510 0.496120 -0.603418
Zn1   Zn    Zn3+2 0.491780 0.406400 0.495810 0.970154
Zn2   Zn    Zn3+2 0.508220 0.593600 0.504190 0.974385
O9    O     O_3   0.740843 0.725683 0.596101 -0.622061
C29   C     C_3   0.742924 0.738465 0.678798 0.065628
H17   H     H_    0.713450 0.675308 0.709651 0.176299
H18   H     H_    0.654273 0.775285 0.699051 0.108241
C30   C     C_3   0.910151 0.781280 0.704334 -0.344759
H19   H     H_    0.996661 0.742298 0.686894 0.233490
H20   H     H_    0.942824 0.844477 0.673786 0.216753
C31   C     C_3   0.920668 0.791913 0.793898 -0.961429
H21   H     H_    0.837381 0.832142 0.812503 0.264230
H22   H     H_    0.043413 0.822816 0.810502 0.265579
H23   H     H_    0.891186 0.729243 0.825696 0.267820
O10   O     O_3   0.264993 0.273205 0.399589 -0.630989
C32   C     C_3   0.103732 0.237338 0.416284 0.071476
H24   H     H_    0.046898 0.288053 0.438189 0.170364
H25   H     H_    0.085471 0.185813 0.463432 0.111235
C33   C     C_3   0.018097 0.204997 0.340073 -0.367596
H26   H     H_    0.031677 0.257463 0.294386 0.234629
H27   H     H_    0.072256 0.153626 0.317065 0.216013
C34   C     C_3   0.841389 0.171292 0.354582 -0.922559
H28   H     H_    0.824743 0.117928 0.399320 0.271323
H29   H     H_    0.782582 0.148183 0.298347 0.264675
H30   H     H_    0.783948 0.222254 0.375927 0.269416

loop_
_geom_bond_atom_site_label_1
_geom_bond_atom_site_label_2
_ccdc_geom_bond_type
C14   O6    A    
C5    H14   S    
C23   N1    S    
O5    Zn1   S    
C2    C18   S    
C32   H24   S    
C11   N3    A    
C33   C34   S    
C12   N4    A    
N1    N2    D    
C22   C24   A    
C19   C21   A    
C24   C26   A    
C13   O7    A    
C16   H2    S    
C15   C16   D    
C1    O3    A    
C29   H18   S    
O2    Zn2   S    
N3    Zn2   S    
C31   H21   S    
C30   H20   S    
C6    H13   S    
C12   O10   S    
C32   H25   S    
C19   H4    S    
C10   C12   A    
O3    Zn2   S    
C15   H1    S    
O4    Zn1   S    
C14   O8    A    
C9    H15   S    
C10   H16   S    
C17   C27   A    
C18   C28   A    
C33   H26   S    
C7    N5    S    
C4    C6    A    
C2    O4    A    
C34   H29   S    
O7    Zn2   S    
C6    C8    A    
C21   H6    S    
C3    C5    A    
O8    Zn1   S    
O6    Zn2   S    
C29   H17   S    
C1    O1    A    
C4    H11   S    
C28   H10   S    
C30   C31   S    
C9    C11   A    
C2    O2    A    
C25   H7    S    
C26   H8    S    
C20   C22   A    
C3    H12   S    
N5    N6    D    
C21   C23   A    
C32   C33   S    
C14   C16   S    
O1    Zn1   S    
C8    N6    S    
N4    Zn1   S    
C5    C7    A    
C4    N4    A    
C7    C9    A    
C22   H5    S    
C29   C30   S    
C26   C28   A    
C33   H27   S    
O10   C32   S    
C11   O9    S    
C34   H30   S    
C25   C27   A    
C1    C17   S    
C24   N2    S    
C13   C15   S    
C27   H9    S    
C31   H23   S    
C3    N3    A    
C17   C19   A    
C18   C20   A    
C23   C25   A    
O9    C29   S    
C34   H28   S    
C8    C10   A    
C30   H19   S    
C31   H22   S    
C13   O5    A    
C20   H3    S    
