data_mof_unit_61856.cif
_audit_creation_date              2013-03-05T16:13:40-0500
_audit_creation_method            fapswitch 2.2
_symmetry_space_group_name_H-M    P1
_symmetry_Int_Tables_number       1
_space_group_crystal_system       triclinic
_cell_length_a                    23.536441
_cell_length_b                    14.651019
_cell_length_c                    15.910954
_cell_angle_alpha                 89.927215
_cell_angle_beta                  89.980064
_cell_angle_gamma                 89.954868
_cell_volume                      5486.61306367

loop_
_atom_site_label
_atom_site_type_symbol
_atom_site_description
_atom_site_fract_x
_atom_site_fract_y
_atom_site_fract_z
_atom_type_partial_charge
O1    O     O_R   0.500060 0.424030 0.620640 -0.567791
O2    O     O_R   0.500060 0.575970 0.620640 -0.557780
C1    C     C_R   0.499979 0.499952 0.660235 0.837485
O3    O     O_R   0.582180 0.424050 0.500100 -0.578039
O4    O     O_R   0.582180 0.575950 0.500100 -0.580355
C2    C     C_R   0.609421 0.499941 0.500119 0.823064
Cu1   Cu    Cu3+1 0.500070 0.410080 0.500090 1.033317
Cu2   Cu    Cu3+1 0.500070 0.589920 0.500090 1.033925
O5    O     O_R   0.500060 0.424100 0.379510 -0.553635
O6    O     O_R   0.500060 0.575900 0.379510 -0.563180
O7    O     O_R   0.417940 0.424080 0.500050 -0.559141
O8    O     O_R   0.417940 0.575920 0.500050 -0.553331
C3    C     C_R   0.499958 0.500048 0.339902 0.830352
C4    C     C_R   0.390880 0.500028 0.499958 0.854211
C5    C     C_R   0.119851 0.529795 0.430429 0.589760
N1    N     N_R   0.148258 0.497914 0.499361 -0.466365
C6    C     C_R   0.120207 0.465059 0.568329 0.576615
C7    C     C_R   0.060299 0.466231 0.571729 -0.064310
C8    C     C_R   0.030303 0.496141 0.499263 -0.075122
C9    C     C_R   0.060119 0.525138 0.426495 -0.126097
C10   C     C_R   0.029021 0.438712 0.644050 0.196711
C11   C     C_R   0.969796 0.441057 0.642923 -0.166307
C12   C     C_R   0.940055 0.469917 0.571665 -0.049389
C13   C     C_R   0.970183 0.497377 0.499587 -0.009208
C14   C     C_R   0.940045 0.526351 0.427922 -0.073010
C15   C     C_R   0.969783 0.552781 0.355809 -0.181668
C16   C     C_R   0.029098 0.550968 0.353540 0.335782
C17   C     C_R   0.880422 0.471915 0.570793 0.593745
N2    N     N_R   0.852011 0.499060 0.500103 -0.468164
C18   C     C_R   0.880404 0.526479 0.429503 0.591203
O9    O     O_2   0.149663 0.568299 0.367282 -0.449083
O10   O     O_2   0.150780 0.430820 0.632523 -0.483438
H1    H     H_    0.946911 0.420081 0.698770 0.213983
O11   O     O_2   0.850975 0.446763 0.639838 -0.485675
O12   O     O_2   0.850949 0.553147 0.360959 -0.497781
H2    H     H_    0.946946 0.572705 0.299565 0.225587
C19   C     C_R   0.761528 0.580553 0.510694 -0.112481
H3    H     H_    0.784551 0.643823 0.519260 0.161531
C20   C     C_R   0.702312 0.581256 0.510587 -0.176092
H4    H     H_    0.680353 0.645553 0.519207 0.174004
C21   C     C_R   0.671952 0.499595 0.499996 -0.074306
C22   C     C_R   0.701827 0.417396 0.489018 -0.211172
H5    H     H_    0.679245 0.353774 0.480085 0.180444
C23   C     C_R   0.761111 0.416592 0.488537 0.211393
C24   C     C_R   0.791137 0.498505 0.499883 0.292453
C25   C     C_R   0.238894 0.551901 0.557872 -0.097569
H6    H     H_    0.215575 0.592166 0.603329 0.180792
C26   C     C_R   0.298162 0.552508 0.558748 0.093355
C27   C     C_R   0.328623 0.500017 0.499520 -0.139173
C28   C     C_R   0.298713 0.447255 0.439972 0.093046
C29   C     C_R   0.239456 0.446819 0.440597 -0.100102
H7    H     H_    0.216568 0.406131 0.395047 0.184397
C30   C     C_R   0.209348 0.498957 0.499263 0.251922
C31   C     C_3   0.473273 0.413951 0.950918 -0.453652
C32   C     C_3   0.473358 0.585878 0.950091 -0.471954
C33   C     C_3   0.468219 0.583113 0.047451 0.155337
C34   C     C_3   0.472950 0.412394 0.048529 0.139426
H8    H     H_    0.427631 0.414104 0.069055 0.131330
H9    H     H_    0.422499 0.571561 0.062583 0.127808
H10   H     H_    0.428532 0.415621 0.928155 0.173776
H11   H     H_    0.429922 0.588906 0.922438 0.186658
H12   H     H_    0.495497 0.648825 0.928839 0.250772
H13   H     H_    0.491527 0.349997 0.925206 0.260693
C35   C     C_1   0.500323 0.500141 0.250488 -0.075966
C36   C     C_3   0.505240 0.499770 0.917178 0.002866
C37   C     C_3   0.502386 0.500103 0.083013 -0.043359
C38   C     C_3   0.564858 0.503981 0.051198 -0.396137
C39   C     C_3   0.568505 0.501767 0.951880 0.552970
C40   C     C_1   0.500999 0.500162 0.175139 0.051141
C41   C     C_1   0.502766 0.499835 0.824993 0.095667
C42   C     C_1   0.501096 0.499857 0.749644 -0.071745
H14   H     H_    0.588923 0.446230 0.079041 0.227035
H15   H     H_    0.585989 0.564062 0.079169 0.239736
C43   C     C_3   0.477896 0.946805 0.412437 -0.333313
C44   C     C_3   0.477897 0.053502 0.412433 -0.327603
C45   C     C_3   0.558939 0.946584 0.514639 -0.345970
C46   C     C_3   0.558940 0.053228 0.514632 -0.340571
H16   H     H_    0.505969 0.078779 0.361170 0.191848
H17   H     H_    0.505965 0.921598 0.361172 0.190859
H18   H     H_    0.574912 0.921254 0.576221 0.180508
H19   H     H_    0.574914 0.078356 0.576211 0.182751
H20   H     H_    0.588721 0.921378 0.465529 0.177391
H21   H     H_    0.588722 0.078492 0.465519 0.179239
N3    N     N_1   0.498850 0.275030 0.498610 -0.134584
N4    N     N_1   0.498850 0.724970 0.498610 -0.134317
C47   C     C_3   0.498473 0.908147 0.498164 0.163088
C48   C     C_3   0.498473 0.091859 0.498158 0.162537
C49   C     C_3   0.458562 0.053287 0.567385 -0.345527
C50   C     C_3   0.458564 0.946615 0.567393 -0.335545
C51   C     C_1   0.498587 0.195038 0.498294 0.124938
C52   C     C_1   0.498588 0.804965 0.498302 0.123998
H22   H     H_    0.414527 0.921429 0.557077 0.182428
H23   H     H_    0.414524 0.078593 0.557051 0.179215
H24   H     H_    0.472417 0.921279 0.630087 0.182998
H25   H     H_    0.472408 0.078419 0.630080 0.181470
H26   H     H_    0.434263 0.921638 0.398874 0.185054
H27   H     H_    0.434266 0.078832 0.398863 0.187445
I1    I     I_    0.063603 0.394923 0.761414 -0.124630
I2    I     I_    0.338218 0.629920 0.654859 -0.308294
I3    I     I_    0.339582 0.370718 0.343866 -0.253578
N5    N     N_R   0.484396 0.670497 0.085864 0.153525
O13   O     O_R   0.448312 0.713171 0.133767 -0.320122
O14   O     O_R   0.533155 0.708494 0.070040 -0.288133
N6    N     N_R   0.497968 0.327852 0.082065 0.152694
O15   O     O_R   0.469526 0.279419 0.136227 -0.312960
O16   O     O_R   0.546218 0.296699 0.054228 -0.292235
N7    N     N_R   0.601578 0.420338 0.926765 0.155930
O17   O     O_R   0.585963 0.368756 0.864377 -0.329782
O18   O     O_R   0.652736 0.409774 0.956354 -0.261024
N8    N     N_R   0.598724 0.582569 0.917858 0.127733
O19   O     O_R   0.610263 0.586549 0.837917 -0.314674
O20   O     O_R   0.620515 0.644864 0.966315 -0.277472
N9    N     N_R   0.056450 0.570482 0.274965 0.171863
O21   O     O_R   0.086761 0.507572 0.238574 -0.267362
O22   O     O_R   0.041228 0.641875 0.231745 -0.289786
I4    I     I_    0.803475 0.290848 0.468409 -0.221748

loop_
_geom_bond_atom_site_label_1
_geom_bond_atom_site_label_2
_geom_bond_distance
_ccdc_geom_bond_type
C48   C49   1.553551 S    
N5    O13   1.301168 A    
C7    C10   1.423845 A    
C21   C22   1.405128 A    
C8    C9    1.418508 A    
C34   C37   1.560709 S    
C32   C33   1.554239 S    
N6    O16   1.301344 A    
N4    C52   1.172019 T    
Cu1   Cu2   2.634838 S    
C20   C21   1.404404 A    
C31   C36   1.560336 S    
C31   H10   1.113939 S    
Cu1   O7    1.943742 S    
C15   C16   1.396763 A    
N2    C18   1.366942 A    
C22   C23   1.395405 A    
C18   O12   1.349692 S    
Cu2   N4    1.978916 S    
C17   N2    1.367237 A    
C33   N5    1.469862 S    
C38   H14   1.109696 S    
C47   C52   1.511723 S    
O4    C2    1.284566 A    
O7    C4    1.281655 A    
C37   C40   1.466166 S    
C31   H13   1.109116 S    
C46   H21   1.112777 S    
C36   C41   1.467926 S    
C32   H12   1.111860 S    
C44   H27   1.112768 S    
C7    C8    1.420797 A    
C50   H24   1.112756 S    
C11   H1    1.083227 S    
O5    C3    1.278087 A    
N1    C30   1.437949 S    
N8    O19   1.301771 A    
N1    C6    1.367636 A    
C2    C21   1.471753 S    
C12   C13   1.406639 A    
C41   C42   1.199541 T    
C38   H15   1.105481 S    
C39   N7    1.479334 S    
Cu1   N3    1.979021 S    
C49   H25   1.112746 S    
C17   O11   1.349746 S    
N5    O14   1.300295 A    
C10   C11   1.394473 A    
N7    O18   1.302053 A    
N3    C51   1.172003 T    
O3    Cu1   1.943543 S    
N6    O15   1.301178 A    
C32   C36   1.558455 S    
C28   C29   1.394732 A    
C5    C9    1.409000 A    
C25   C26   1.395066 A    
C43   C44   1.563211 S    
C29   H7    1.082916 S    
C43   H26   1.112725 S    
C45   C46   1.562440 S    
O3    C2    1.283937 A    
C45   H20   1.112762 S    
C20   H4    1.082984 S    
C49   H23   1.112747 S    
C14   C15   1.398236 A    
C35   C40   1.198982 T    
O6    C3    1.278258 A    
C43   C47   1.553670 S    
C38   C39   1.582909 S    
N2    C24   1.432780 S    
O1    C1    1.279048 A    
C1    C42   1.422835 S    
C19   H3    1.082884 S    
C46   H19   1.112765 S    
Cu2   O8    1.944063 S    
C36   C39   1.588603 S    
C6    C7    1.411126 A    
C39   N8    1.483155 S    
C12   C17   1.403906 A    
C13   C14   1.407976 A    
C50   H22   1.112770 S    
C46   C48   1.553416 S    
C16   N9    1.434579 S    
C44   C48   1.553571 S    
C26   C27   1.412098 A    
O8    C4    1.281821 A    
C43   H17   1.112740 S    
C22   H5    1.082916 S    
N7    O17   1.301588 A    
C19   C24   1.399772 A    
C45   C47   1.553424 S    
C23   C24   1.405092 A    
N9    O21   1.301440 A    
C15   H2    1.083696 S    
C14   C18   1.403974 A    
Cu1   O5    1.929248 S    
C34   N6    1.470738 S    
C25   H6    1.082892 S    
O1    Cu1   1.929182 S    
C8    C13   1.415113 A    
O2    Cu2   1.928666 S    
C45   H18   1.112767 S    
C47   C50   1.553474 S    
O4    Cu2   1.943222 S    
C5    O9    1.348601 S    
C9    C16   1.422231 A    
C28   I3    2.126643 S    
C33   H9    1.115606 S    
O2    C1    1.278872 A    
C19   C20   1.393768 A    
C10   I1    2.135025 S    
C34   H8    1.115696 S    
C3    C35   1.422685 S    
C33   C37   1.563003 S    
C32   H11   1.113955 S    
C25   C30   1.399275 A    
C37   C38   1.555966 S    
C44   H16   1.112749 S    
N8    O20   1.301270 A    
C4    C27   1.465327 S    
C49   C50   1.562855 S    
C23   I4    2.118753 S    
Cu2   O6    1.929767 S    
C27   C28   1.412104 A    
C48   C51   1.511686 S    
C6    O10   1.345850 S    
C11   C12   1.397530 A    
C26   I2    2.126209 S    
C29   C30   1.399093 A    
C5    N1    1.366311 A    
N9    O22   1.301182 A    
C31   C34   1.553236 S    
