data_mof_unit_54865.cif
_audit_creation_date              2013-03-05T16:44:36-0500
_audit_creation_method            fapswitch 2.2
_symmetry_space_group_name_H-M    P1
_symmetry_Int_Tables_number       1
_space_group_crystal_system       triclinic
_cell_length_a                    27.64658
_cell_length_b                    10.778646
_cell_length_c                    9.878239
_cell_angle_alpha                 89.643769
_cell_angle_beta                  90.387776
_cell_angle_gamma                 89.860941
_cell_volume                      2943.50981639

loop_
_atom_site_label
_atom_site_type_symbol
_atom_site_description
_atom_site_fract_x
_atom_site_fract_y
_atom_site_fract_z
_atom_type_partial_charge
O1    O     O_R   0.500010 0.316790 0.614690 -0.633224
O2    O     O_R   0.500000 0.316760 0.385350 -0.609375
C1    C     C_R   0.500143 0.260382 0.500412 0.881899
O3    O     O_R   0.428760 0.500040 0.614660 -0.624373
O4    O     O_R   0.428750 0.500000 0.385310 -0.604106
C2    C     C_R   0.406080 0.500622 0.499859 0.877711
Zn1   Zn    Zn3+2 0.500000 0.500020 0.653130 0.967024
Zn2   Zn    Zn3+2 0.500000 0.499980 0.346870 1.019520
O5    O     O_R   0.500000 0.683240 0.614650 -0.604297
O6    O     O_R   0.499990 0.683210 0.385310 -0.590181
O7    O     O_R   0.571250 0.500000 0.614690 -0.628525
O8    O     O_R   0.571240 0.499960 0.385340 -0.561181
C3    C     C_R   0.500776 0.739900 0.498837 0.930799
C4    C     C_R   0.594105 0.501535 0.500534 0.925820
C5    C     C_R   0.178735 0.375250 0.496054 0.535640
O9    O     O_2   0.206133 0.271754 0.505321 -0.521501
N1    N     N_R   0.200906 0.488312 0.487454 -0.362064
C6    C     C_R   0.175084 0.595329 0.469012 0.533792
C7    C     C_R   0.278063 0.547214 0.385125 -0.102208
C8    C     C_R   0.328166 0.552683 0.389840 -0.182277
C9    C     C_R   0.327997 0.450782 0.609312 -0.221209
C10   C     C_R   0.277727 0.448172 0.606390 -0.081893
C11   C     C_R   0.252601 0.494573 0.493167 0.293347
C12   C     C_R   0.100969 0.478229 0.484845 -0.126067
C13   C     C_R   0.127820 0.367256 0.494285 -0.074773
C14   C     C_R   0.103009 0.252853 0.490656 0.181399
C15   C     C_R   0.124625 0.591526 0.459170 -0.063361
C16   C     C_R   0.353415 0.501497 0.499882 -0.009674
H1    H     H_    0.346898 0.411318 0.695608 0.143186
H2    H     H_    0.258303 0.408771 0.691159 0.149680
C17   C     C_R   0.647111 0.496549 0.505164 -0.118869
C18   C     C_R   0.975241 0.361834 0.531557 0.052747
C19   C     C_R   0.974894 0.590331 0.531875 0.017668
C20   C     C_R   0.949840 0.475837 0.537879 0.054202
C21   C     C_R   0.949998 0.252408 0.562944 -0.225053
C22   C     C_R   0.899555 0.249909 0.567248 0.223288
C23   C     C_R   0.873357 0.362218 0.556282 -0.057432
C24   C     C_R   0.899018 0.475422 0.551951 -0.100205
C25   C     C_R   0.873879 0.588604 0.561665 -0.048876
C26   C     C_R   0.823448 0.587961 0.562373 0.567739
N2    N     N_R   0.799021 0.478631 0.550294 -0.343906
C27   C     C_R   0.822436 0.366744 0.552076 0.515611
C28   C     C_R   0.718199 0.434974 0.633811 -0.128078
C29   C     C_R   0.668488 0.441007 0.619931 -0.228521
C30   C     C_R   0.676703 0.546303 0.401643 0.097859
C31   C     C_R   0.727386 0.535949 0.414553 0.212353
C32   C     C_R   0.747678 0.482028 0.532166 0.244180
O10   O     O_2   0.796344 0.261311 0.546299 -0.522242
C33   C     C_R   0.025642 0.361484 0.506135 -0.011536
C34   C     C_R   0.050215 0.476073 0.498391 0.052609
C35   C     C_R   0.024291 0.589254 0.497696 0.037676
C36   C     C_R   0.052270 0.252110 0.477848 0.083316
H3    H     H_    0.646612 0.402103 0.700230 0.183129
H4    H     H_    0.733987 0.393996 0.724288 0.171848
H5    H     H_    0.969129 0.167202 0.585012 0.197371
O11   O     O_2   0.198264 0.705252 0.467386 -0.515434
C37   C     C_R   0.096761 0.695534 0.421320 0.230117
H6    H     H_    0.347207 0.597134 0.307864 0.160662
H7    H     H_    0.258975 0.583939 0.297507 0.157534
C38   C     C_R   0.949670 0.700519 0.566481 0.134500
C39   C     C_R   0.899530 0.699394 0.574821 -0.158655
O12   O     O_2   0.798797 0.695756 0.572744 -0.551543
C40   C     C_R   0.047203 0.694707 0.444050 -0.196190
H8    H     H_    0.880815 0.785146 0.597129 0.199236
H9    H     H_    0.026201 0.773850 0.410191 0.204978
C41   C     C_R   0.496858 0.061770 0.619821 0.019062
C42   C     C_R   0.503193 0.128943 0.500869 -0.119656
C43   C     C_R   0.515308 0.067398 0.381563 -0.203202
H10   H     H_    0.522339 0.118345 0.289270 0.205728
C44   C     C_R   0.516001 0.939278 0.377435 0.172531
C45   C     C_R   0.503937 0.871900 0.496355 -0.131399
C46   C     C_R   0.496720 0.935552 0.617131 0.012080
C47   C     C_3   0.458972 0.925679 0.725269 -0.001579
C48   C     C_3   0.460412 0.067895 0.731676 -0.020391
H11   H     H_    0.473644 0.881117 0.818715 0.141320
H12   H     H_    0.476558 0.105368 0.826571 0.147221
C49   C     C_R   0.466673 0.566938 0.069999 0.142052
N3    N     N_R   0.499670 0.499140 0.142800 -0.128772
C50   C     C_R   0.533779 0.433128 0.070880 0.213974
C51   C     C_R   0.533870 0.434849 0.927766 -0.146583
H13   H     H_    0.560355 0.381175 0.873011 0.167758
N4    N     N_R   0.499670 0.499180 0.857150 -0.120896
C52   C     C_R   0.467302 0.568716 0.927201 0.179946
C53   C     C_3   0.414018 0.555311 0.915640 -0.512989
C54   C     C_3   0.412713 0.549107 0.068903 -0.029061
H14   H     H_    0.396462 0.640038 0.873889 0.220324
H15   H     H_    0.403644 0.467748 0.864725 0.214593
H16   H     H_    0.393035 0.627648 0.115846 0.159665
I1    I     I_    0.123621 0.840591 0.296625 -0.265919
I2    I     I_    0.982629 0.862773 0.648299 -0.414525
I3    I     I_    0.647288 0.643618 0.230162 -0.274253
N5    N     N_2   0.758788 0.580812 0.311665 -0.294900
H17   H     H_    0.748975 0.664270 0.268099 0.269005
C55   C     C_3   0.773230 0.488362 0.214413 -0.720608
H18   H     H_    0.799804 0.529284 0.143288 0.244837
H19   H     H_    0.741290 0.455946 0.155718 0.259567
H20   H     H_    0.790604 0.408032 0.266477 0.251615
I4    I     I_    0.532388 0.865931 0.182574 -0.317846
I5    I     I_    0.392198 0.844097 0.652552 -0.341394
N6    N     N_2   0.414960 0.126833 0.692789 -0.242718
H21   H     H_    0.417992 0.203041 0.630125 0.236573
C56   C     C_3   0.382730 0.150076 0.804549 -0.717916
H22   H     H_    0.347095 0.181852 0.764950 0.245048
H23   H     H_    0.398102 0.223161 0.870814 0.205462
H24   H     H_    0.377127 0.064113 0.864999 0.269796
I6    I     I_    0.585442 0.312636 0.160811 -0.314115
N7    N     N_2   0.398013 0.427702 0.119227 -0.256040
H25   H     H_    0.421182 0.355409 0.097306 0.236369
C57   C     C_3   0.347664 0.396272 0.097572 -0.748664
H26   H     H_    0.337383 0.320418 0.168134 0.257215
H27   H     H_    0.341807 0.364306 0.992145 0.223994
H28   H     H_    0.323811 0.477308 0.115724 0.240932
N8    N     N_2   0.129302 0.139609 0.485845 -0.244548
H29   H     H_    0.126853 0.094895 0.394510 0.280407
C58   C     C_3   0.123885 0.059804 0.602995 -0.580995
H30   H     H_    0.148868 0.979453 0.594777 0.266989
H31   H     H_    0.086255 0.024639 0.609592 0.247743
H32   H     H_    0.133114 0.111250 0.696788 0.237628
N9    N     N_2   0.875881 0.134350 0.587761 -0.256545
H33   H     H_    0.890042 0.083951 0.668021 0.241259
C59   C     C_3   0.871550 0.060117 0.466628 -0.605012
H34   H     H_    0.847760 0.979440 0.487332 0.250286
H35   H     H_    0.907726 0.025363 0.435411 0.238067
H36   H     H_    0.855157 0.115417 0.382406 0.255850
I7    I     I_    0.021538 0.105549 0.358345 -0.375979

loop_
_geom_bond_atom_site_label_1
_geom_bond_atom_site_label_2
_geom_bond_distance
_ccdc_geom_bond_type
C40   H9    1.080810 S    
C47   H11   1.111669 S    
C47   C48   1.535205 S    
C21   C22   1.395824 A    
C53   H15   1.109617 S    
C4    C17   1.466683 S    
C49   N3    1.365553 A    
Zn1   O7    2.008606 S    
N1    C11   1.431672 S    
C48   H12   1.114006 S    
C36   I7    2.151060 S    
C22   C23   1.412383 A    
C53   H14   1.109123 S    
C57   H27   1.109934 S    
C24   C25   1.406690 A    
C56   H23   1.110824 S    
O7    C4    1.296382 A    
C5    C13   1.410469 A    
C31   N5    1.424215 S    
C49   C52   1.410838 A    
C58   H30   1.110153 S    
C41   C48   1.502046 S    
C26   O12   1.350376 S    
C56   H24   1.110928 S    
C5    N1    1.367876 A    
N2    C27   1.367323 A    
C23   C27   1.408841 A    
C22   N9    1.422493 S    
O5    C3    1.293812 A    
N6    H21   1.029386 S    
C59   H36   1.113678 S    
C29   H3    1.083697 S    
C2    C16   1.456025 S    
C7    C8    1.387042 A    
C43   H10   1.080369 S    
C58   H31   1.110293 S    
N7    H25   1.032427 S    
C12   C15   1.409118 A    
C44   C45   1.419329 A    
C6    O11   1.348458 S    
C58   H32   1.111257 S    
C41   C42   1.388680 A    
C49   C54   1.504588 S    
O1    Zn1   2.013462 S    
C9    C10   1.390255 A    
Zn2   N3    2.015888 S    
N7    C57   1.448221 S    
C55   H18   1.110252 S    
C44   I4    2.136459 S    
O3    Zn1   2.003341 S    
N5    C55   1.445840 S    
C37   C40   1.389918 A    
N9    C59   1.448018 S    
C12   C34   1.410684 A    
C25   C39   1.396644 A    
C41   C46   1.360905 A    
C17   C29   1.404900 A    
C21   H5    1.079036 S    
C42   C43   1.398274 A    
C18   C21   1.405951 A    
C35   C40   1.405208 A    
C53   C54   1.515707 S    
C51   N4    1.357668 A    
C15   C37   1.405950 A    
C57   H28   1.109374 S    
C25   C26   1.394341 A    
N3    C50   1.382861 A    
C51   H13   1.081952 S    
C48   N6    1.454893 S    
C3    C45   1.425740 S    
C55   H20   1.110870 S    
C7    H7    1.082970 S    
C13   C14   1.413042 A    
C30   C31   1.410226 A    
C9    H1    1.081229 S    
C50   I6    2.115539 S    
C38   C39   1.389291 A    
O1    C1    1.285534 A    
C18   C20   1.415745 A    
C39   H8    1.082739 S    
C7    C11   1.400398 A    
C28   C29   1.381574 A    
C23   C24   1.413489 A    
C14   C36   1.407656 A    
C28   H4    1.083177 S    
C52   C53   1.484235 S    
Zn2   O8    2.003341 S    
C33   C36   1.418621 A    
N6    C56   1.446101 S    
N1    C6    1.365659 A    
N2    C32   1.429836 S    
C34   C35   1.413348 A    
C27   O10   1.348808 S    
C12   C13   1.408499 A    
C55   H19   1.111336 S    
C59   H34   1.110396 S    
C37   I1    2.123049 S    
O3    C2    1.292095 A    
C26   N2    1.365103 A    
C9    C16   1.402105 A    
O8    C4    1.298185 A    
N4    C52   1.361231 A    
C19   C38   1.420569 A    
C8    H6    1.079161 S    
N8    H29   1.027439 S    
C54   H16   1.110735 S    
C47   I5    2.166795 S    
C31   C32   1.408382 A    
C10   H2    1.082925 S    
C20   C24   1.412863 A    
Zn2   O6    2.013460 S    
O2    Zn2   2.008790 S    
C6    C15   1.398475 A    
C46   C47   1.501910 S    
O6    C3    1.280530 A    
O4    Zn2   2.008608 S    
N9    H33   1.032645 S    
C38   I2    2.134802 S    
C19   C35   1.409004 A    
C8    C16   1.397744 A    
O2    C1    1.285498 A    
C14   N8    1.420358 S    
C45   C46   1.395211 A    
C57   H26   1.109883 S    
O4    C2    1.297270 A    
C1    C42   1.419019 S    
N5    H17   1.029783 S    
C19   C20   1.417777 A    
C56   H22   1.110126 S    
C30   I3    2.141520 S    
C18   C33   1.417554 A    
C59   H35   1.113331 S    
C50   C51   1.413732 A    
Zn1   O5    2.008789 S    
Zn1   N4    2.015405 S    
C43   C44   1.381911 A    
C33   C34   1.412965 A    
C17   C30   1.417495 A    
C10   C11   1.401590 A    
C54   N7    1.456663 S    
C28   C32   1.391531 A    
C5    O9    1.349161 S    
N8    C58   1.446427 S    
