data_mof_unit_35889.cif
_audit_creation_date              2012-12-10T17:18:55-0500
_audit_creation_method            fapswitch 2.2
_symmetry_space_group_name_H-M    P1
_symmetry_Int_Tables_number       1
_space_group_crystal_system       triclinic
_cell_length_a                    10.320116
_cell_length_b                    10.384
_cell_length_c                    13.751027
_cell_angle_alpha                 94.500657
_cell_angle_beta                  101.266881
_cell_angle_gamma                 95.272887
_cell_volume                      1432.06832584

loop_
_atom_site_label
_atom_site_type_symbol
_atom_type_description
_atom_site_fract_x
_atom_site_fract_y
_atom_site_fract_z
_atom_type_partial_charge
C1    C     C_R   0.054712 0.735310 0.503649 0.934086
C2    C     C_2   0.040978 0.083357 0.595983 0.134773
C3    C     C_2   0.431552 0.509121 0.520382 0.095415
C4    C     C_2   0.571359 0.467704 0.522534 0.085284
C5    C     C_R   0.094002 0.514194 0.685458 0.862297
C6    C     C_R   0.906738 0.488416 0.314729 0.927775
C7    C     C_R   0.148344 0.536848 0.792072 -0.124090
C8    C     C_R   0.860132 0.491316 0.208130 -0.161215
C9    C     C_R   0.155225 0.649954 0.953635 0.641551
C10   C     C_R   0.879181 0.442144 0.037225 0.647034
C11   C     C_R   0.086341 0.607928 0.856952 -0.229649
C12   C     C_R   0.952539 0.266880 0.513404 0.932660
C13   C     C_R   0.933001 0.447406 0.138697 -0.236856
C14   C     C_R   0.274533 0.501616 0.825661 -0.278031
C15   C     C_R   0.738813 0.538463 0.176283 -0.263253
C16   C     C_R   0.350898 0.553899 0.917485 0.017171
C17   C     C_R   0.683153 0.535727 0.075367 0.029827
C18   C     C_R   0.288524 0.625819 0.983761 0.035481
C19   C     C_R   0.752282 0.481438 0.005215 0.040019
C20   C     C_R   0.487307 0.536091 0.944640 0.106490
C21   C     C_R   0.554853 0.574356 0.043628 0.116390
C22   C     C_3   0.160106 0.166056 0.663525 -0.386706
C23   C     C_R   0.491506 0.648177 0.107920 -0.253398
C24   C     C_3   0.258880 0.085683 0.725167 -0.378888
C25   C     C_3   0.369226 0.170783 0.798514 -0.862115
C26   C     C_3   0.956652 0.877415 0.668872 -0.380266
C27   C     C_3   0.912558 0.972611 0.744820 -0.391528
C28   C     C_3   0.866411 0.901902 0.827283 -0.828640
C29   C     C_3   0.592467 0.324794 0.523045 -0.342577
C30   C     C_3   0.475000 0.228332 0.533370 -0.417334
C31   C     C_3   0.521536 0.096939 0.558385 -0.891926
C32   C     C_3   0.418519 0.602494 0.609042 -0.329948
C33   C     C_3   0.525992 0.716642 0.650189 -0.470698
C34   C     C_R   0.559406 0.484129 0.875756 -0.264353
C35   C     C_3   0.487486 0.799337 0.734962 -0.874122
C36   C     C_R   0.360818 0.673970 0.078015 -0.178984
C37   C     C_R   0.690912 0.461576 0.905099 -0.182405
C38   C     C_2   0.087084 0.875454 0.528048 -0.448285
C39   C     C_2   0.939197 0.133497 0.538424 -0.426194
C40   C     C_2   0.029880 0.941910 0.595145 0.129096
F1    F     F_    0.093758 0.718541 0.015986 -0.692291
F2    F     F_    0.947682 0.392198 0.970925 -0.690705
H1    H     H_    0.316364 0.731322 0.129352 0.199778
H2    H     H_    0.149887 0.927194 0.485625 0.152963
H3    H     H_    0.658637 0.646385 0.524356 0.160270
H4    H     H_    0.336786 0.387538 0.400972 0.153527
H5    H     H_    0.426466 0.236316 0.758573 0.251863
H6    H     H_    0.326797 0.228779 0.853501 0.278307
H7    H     H_    0.438438 0.108283 0.839407 0.259291
H8    H     H_    0.207494 0.019562 0.768529 0.237075
H9    H     H_    0.304505 0.025532 0.673811 0.230350
H10   H     H_    0.216042 0.224057 0.618196 0.227705
H11   H     H_    0.122068 0.233790 0.715176 0.198125
H12   H     H_    0.741848 0.421693 0.849690 0.193633
H13   H     H_    0.791089 0.818601 0.795425 0.258590
H14   H     H_    0.952324 0.865690 0.875086 0.292201
H15   H     H_    0.821956 0.969968 0.874362 0.264062
H16   H     H_    0.994700 0.047847 0.780740 0.250145
H17   H     H_    0.829405 0.022375 0.705778 0.228387
H18   H     H_    0.864168 0.818470 0.628310 0.223666
H19   H     H_    0.023313 0.812644 0.709815 0.193060
H20   H     H_    0.580775 0.061339 0.504528 0.259253
H21   H     H_    0.583067 0.105404 0.634990 0.263612
H22   H     H_    0.434265 0.024252 0.553757 0.255906
H23   H     H_    0.684600 0.569310 0.231798 0.174131
H24   H     H_    0.427685 0.267466 0.593337 0.230791
H25   H     H_    0.400842 0.210685 0.462347 0.227885
H26   H     H_    0.624513 0.293129 0.453254 0.219392
H27   H     H_    0.671566 0.317953 0.589427 0.240148
H28   H     H_    0.386666 0.829420 0.711235 0.253759
H29   H     H_    0.488550 0.743472 0.800648 0.277773
H30   H     H_    0.559297 0.888030 0.757075 0.262447
H31   H     H_    0.621435 0.680209 0.681790 0.239868
H32   H     H_    0.537652 0.780124 0.590349 0.229561
H33   H     H_    0.328703 0.649540 0.590223 0.270721
H34   H     H_    0.312418 0.434944 0.777256 0.163986
H35   H     H_    0.411005 0.543138 0.670603 0.202915
H36   H     H_    0.028783 0.412683 0.162780 0.182026
H37   H     H_    0.986780 0.633778 0.832149 0.171862
H38   H     H_    0.542392 0.691341 0.180907 0.149108
H39   H     H_    0.518216 0.461319 0.797929 0.139864
H40   H     H_    0.849419 0.071416 0.502089 0.138449
N1    N     N_2   0.322180 0.446120 0.460900 -0.219119
N2    N     N_2   0.677820 0.553880 0.539100 -0.229758
O1    O     O_R   0.935190 0.693030 0.507870 -0.610094
O2    O     O_R   0.064810 0.306970 0.492130 -0.598669
O3    O     O_R   0.142080 0.658430 0.482770 -0.615115
O4    O     O_R   0.857920 0.341570 0.517230 -0.621438
O5    O     O_R   0.969700 0.527180 0.651960 -0.608812
O6    O     O_R   0.030300 0.472820 0.348040 -0.596178
O7    O     O_R   0.176600 0.492580 0.626860 -0.650370
O8    O     O_R   0.823400 0.507420 0.373140 -0.610482
Zn1   Zn    Zn3+2 0.861850 0.523100 0.516760 0.896652
Zn2   Zn    Zn3+2 0.138150 0.476900 0.483240 0.906041

loop_
_geom_bond_atom_site_label_1
_geom_bond_atom_site_label_2
_ccdc_geom_bond_type
C1    O3    A    
C8    C13   A    
C10   F2    S    
C34   C37   A    
C32   H33   S    
C28   H14   S    
C28   H15   S    
C7    C11   A    
C26   C27   S    
C26   H19   S    
C30   C31   S    
C15   H23   S    
O3    Zn2   S    
C19   C37   A    
C17   C19   A    
C32   H35   S    
C13   H36   S    
O1    Zn1   S    
C2    C39   D    
C7    C14   A    
C35   H28   S    
C2    C22   S    
C34   H39   S    
C23   H38   S    
O2    Zn2   S    
C25   H5    S    
C30   H25   S    
C20   C34   A    
C24   H9    S    
C35   H29   S    
C1    O1    A    
C31   H20   S    
C28   H13   S    
O6    Zn2   S    
C22   H11   S    
C29   H27   S    
C24   H8    S    
C12   O4    A    
C31   H21   S    
C24   C25   S    
C5    C7    S    
C6    C8    S    
C6    O6    A    
N1    Zn2   S    
C10   C13   A    
C17   C21   A    
C14   H34   S    
C38   H2    S    
C29   C30   S    
C29   H26   S    
C9    C18   A    
C4    N2    D    
C10   C19   A    
C16   C20   A    
C30   H24   S    
C9    C11   A    
C25   H6    S    
C5    O7    A    
C11   H37   S    
C1    C38   S    
C37   H12   S    
C33   H31   S    
C35   H30   S    
C8    C15   A    
C21   C23   A    
C3    N1    D    
C22   C24   S    
H3    N2    S    
C3    C4    S    
C22   H10   S    
C15   C17   A    
O4    Zn1   S    
C31   H22   S    
C4    C29   S    
C39   H40   S    
C27   H16   S    
C9    F1    S    
C12   O2    A    
C32   C33   S    
C12   C39   S    
C27   H17   S    
O7    Zn2   S    
C38   C40   D    
C26   C40   S    
C26   H18   S    
C6    O8    A    
O8    Zn1   S    
C33   C35   S    
C14   C16   A    
N2    Zn1   S    
O5    Zn1   S    
C3    C32   S    
C25   H7    S    
H4    N1    S    
C2    C40   S    
C33   H32   S    
C20   C21   A    
C16   C18   A    
C23   C36   A    
C27   C28   S    
C36   H1    S    
C18   C36   A    
C5    O5    A    
