data_mof_unit_15562.cif
_audit_creation_date              2012-12-10T17:13:13-0500
_audit_creation_method            fapswitch 2.2
_symmetry_space_group_name_H-M    P1
_symmetry_Int_Tables_number       1
_space_group_crystal_system       triclinic
_cell_length_a                    18.198159
_cell_length_b                    18.154697
_cell_length_c                    18.33336
_cell_angle_alpha                 120.23963
_cell_angle_beta                  90.270219
_cell_angle_gamma                 119.443922
_cell_volume                      4293.09129727

loop_
_atom_site_label
_atom_site_type_symbol
_atom_type_description
_atom_site_fract_x
_atom_site_fract_y
_atom_site_fract_z
_atom_type_partial_charge
C1    C     C_R   0.639701 0.779939 0.639366 1.012898
C2    C     C_R   0.050739 0.895798 0.220055 0.182945
C3    C     C_3   0.142102 0.259025 0.355093 -0.721936
C4    C     C_R   0.145122 0.946568 0.233478 -0.043760
C5    C     C_R   0.358510 0.220372 0.360045 0.800198
C6    C     C_R   0.201903 0.058223 0.288733 -0.105894
C7    C     C_R   0.296187 0.108402 0.302702 -0.098672
C8    C     C_R   0.332972 0.051261 0.261847 -0.010737
C9    C     C_R   0.276896 0.943867 0.207610 0.593008
C10   C     C_R   0.185565 0.891858 0.194474 -0.211610
C11   C     C_R   0.764586 0.693670 0.379169 0.571408
C12   C     C_R   0.837784 0.790621 0.404667 -0.114594
C13   C     C_3   0.819369 0.594985 0.807384 0.605785
C14   C     C_R   0.903897 0.795481 0.365646 0.483644
C15   C     C_R   0.894269 0.705007 0.297069 0.494860
C16   C     C_R   0.821133 0.604763 0.270585 -0.222634
C17   C     C_R   0.360202 0.500546 0.640183 0.866533
C18   C     C_R   0.759645 0.601439 0.318203 -0.231253
C19   C     C_R   0.694137 0.505896 0.303227 -0.164950
C20   C     C_R   0.682707 0.413516 0.236615 0.541250
C21   C     C_R   0.737570 0.412938 0.184164 0.027430
C22   C     C_R   0.806308 0.508126 0.199539 -0.098362
C23   C     C_R   0.655849 0.891351 0.559970 0.442178
C24   C     C_3   0.720879 0.556232 0.797090 0.042581
C25   C     C_R   0.664249 0.946133 0.524419 0.421178
C26   C     C_R   0.719290 0.054015 0.577912 0.416319
C27   C     C_R   0.766297 0.108803 0.667973 0.415680
C28   C     C_R   0.757532 0.055271 0.706739 -0.188188
C29   C     C_R   0.639536 0.500564 0.359969 0.995809
C30   C     C_R   0.701463 0.944852 0.651914 -0.277352
C31   C     C_R   0.695390 0.891980 0.690549 -0.123382
C32   C     C_R   0.745204 0.946432 0.779736 0.579842
C33   C     C_R   0.799477 0.053568 0.832801 -0.301838
C34   C     C_R   0.804963 0.108008 0.797831 -0.052741
C35   C     C_3   0.700443 0.458892 0.790054 0.103861
C36   C     C_R   0.298206 0.648238 0.437493 0.019209
C37   C     C_R   0.229347 0.652327 0.469745 0.554243
C38   C     C_R   0.142521 0.591619 0.409976 -0.055608
C39   C     C_R   0.127587 0.534935 0.317466 0.534098
C40   C     C_R   0.197454 0.532200 0.285430 -0.098799
C41   C     C_R   0.367190 0.509694 0.360033 0.824187
C42   C     C_R   0.275761 0.571148 0.345333 -0.126026
C43   C     C_R   0.326545 0.530016 0.309433 -0.068453
C44   C     C_R   0.323079 0.491683 0.219777 0.159896
C45   C     C_R   0.255577 0.474012 0.163864 -0.213560
C46   C     C_3   0.678565 0.398229 0.687009 0.152455
C47   C     C_R   0.193098 0.493705 0.195878 -0.056962
C48   C     C_R   0.429590 0.683004 0.821813 -0.256800
C49   C     C_R   0.465006 0.770949 0.909905 -0.016944
C50   C     C_R   0.412938 0.769358 0.965685 0.587893
C51   C     C_R   0.326340 0.681439 0.933748 0.534153
C52   C     C_R   0.288241 0.592582 0.843303 -0.168655
C53   C     C_R   0.641566 0.497658 0.639152 0.806585
C54   C     C_R   0.341716 0.593572 0.787495 -0.080477
C55   C     C_R   0.307064 0.504067 0.699143 -0.151225
C56   C     C_R   0.220966 0.415068 0.665857 0.587239
C57   C     C_3   0.698885 0.496125 0.694750 -0.245536
C58   C     C_R   0.165613 0.413658 0.718149 -0.028412
C59   C     C_R   0.199355 0.502328 0.807139 -0.144359
C60   C     C_R   0.860553 0.504077 0.140723 0.870378
C61   C     C_R   0.140698 0.500330 0.860710 0.944621
C62   C     C_R   0.136832 0.779737 0.139739 0.935491
C63   C     C_R   0.860303 0.219990 0.859186 0.935893
C64   C     C_R   0.137789 0.495645 0.140921 0.908151
C65   C     C_3   0.797983 0.535844 0.705470 0.058716
C66   C     C_R   0.858207 0.500723 0.859222 0.827950
C67   C     C_3   0.778379 0.438639 0.698016 0.056005
C68   C     C_R   0.161688 0.114568 0.327819 0.023407
C69   C     C_3   0.800148 0.498935 0.800828 -0.269057
C70   C     C_3   0.818020 0.376468 0.651474 -0.340271
C71   C     C_3   0.789495 0.321390 0.550216 -0.752292
C72   C     C_3   0.976689 0.785653 0.141914 -0.425595
C73   C     C_3   0.965495 0.778791 0.056103 -0.775170
C74   C     C_3   0.844858 0.888688 0.473459 -0.263910
C75   C     C_3   0.869659 0.916434 0.567604 -0.795127
C76   C     C_3   0.724977 0.309865 0.117377 -0.329789
C77   C     C_3   0.645900 0.241952 0.031968 -0.763533
C78   C     C_3   0.851811 0.586404 0.660777 -0.329077
C79   C     C_R   0.075511 0.060893 0.331093 0.699896
C80   C     C_3   0.948413 0.619361 0.683529 -0.805602
C81   C     C_3   0.393161 0.476317 0.183608 -0.393971
C82   C     C_3   0.443716 0.546598 0.153460 -0.794027
C83   C     C_3   0.394909 0.737043 0.497499 -0.233892
C84   C     C_3   0.416564 0.840667 0.520730 -0.802511
C85   C     C_3   0.067803 0.592814 0.444988 -0.280251
C86   C     C_3   0.033603 0.526029 0.480281 -0.823967
C87   C     C_3   0.558628 0.865589 0.943332 -0.344086
C88   C     C_3   0.628817 0.846416 0.956506 -0.760767
C89   C     C_3   0.069704 0.317898 0.675633 -0.333159
C90   C     C_R   0.020640 0.953983 0.275853 -0.178675
C91   C     C_3   0.064850 0.231507 0.675539 -0.694218
C92   C     C_3   0.689459 0.626869 0.847053 -0.357518
C93   C     C_3   0.724240 0.684640 0.948309 -0.828959
C94   C     C_3   0.651742 0.417529 0.842654 -0.336598
C95   C     C_3   0.556209 0.388629 0.826595 -0.857152
C96   C     C_3   0.595723 0.289484 0.613144 -0.372531
C97   C     C_3   0.585251 0.203100 0.617332 -0.800785
C98   C     C_3   0.432763 0.102427 0.275878 -0.371338
C99   C     C_3   0.453908 0.106090 0.196827 -0.635705
C100  C     C_3   0.205144 0.226739 0.358036 -0.356070
F1    F     F_    0.312250 0.888375 0.168389 -0.602210
F2    F     F_    0.821999 0.213834 0.715295 -0.670040
F3    F     F_    0.247368 0.717052 0.559049 -0.668305
F4    F     F_    0.043672 0.476377 0.259151 -0.679891
F5    F     F_    0.892456 0.696288 0.867692 -0.679496
F6    F     F_    0.189771 0.330070 0.580457 -0.662078
F7    F     F_    0.446509 0.852638 0.052282 -0.611021
F8    F     F_    0.282215 0.684166 0.993541 -0.608878
F9    F     F_    0.040705 0.111058 0.383180 -0.637595
F10   F     F_    0.619174 0.323204 0.224977 -0.706896
F11   F     F_    0.696804 0.690339 0.411521 -0.630445
F12   F     F_    0.979048 0.889003 0.394309 -0.631702
F13   F     F_    0.960417 0.720372 0.261519 -0.645130
F14   F     F_    0.740028 0.895269 0.815916 -0.695811
F15   F     F_    0.605487 0.786187 0.502525 -0.619751
F16   F     F_    0.620141 0.893779 0.436490 -0.580210
F17   F     F_    0.728840 0.106078 0.541614 -0.614330
H1    H     H_    0.951111 0.916701 0.272175 0.181407
H2    H     H_    0.908144 0.699151 0.002052 0.262225
H3    H     H_    0.951212 0.835040 0.064784 0.264227
H4    H     H_    0.026523 0.795910 0.036963 0.293211
H5    H     H_    0.984089 0.725169 0.132440 0.228462
H6    H     H_    0.911176 0.762408 0.153239 0.207567
H7    H     H_    0.817554 0.853682 0.571896 0.300191
H8    H     H_    0.935045 0.928799 0.585547 0.267084
H9    H     H_    0.875377 0.989180 0.616696 0.227894
H10   H     H_    0.896184 0.955532 0.473270 0.251410
H11   H     H_    0.780164 0.878044 0.456489 0.248322
H12   H     H_    0.836583 0.094653 0.902322 0.163819
H13   H     H_    0.655805 0.282641 0.999873 0.264756
H14   H     H_    0.582595 0.222258 0.047288 0.280803
H15   H     H_    0.639814 0.168620 0.983955 0.232968
H16   H     H_    0.785988 0.320387 0.099817 0.189423
H17   H     H_    0.712996 0.267262 0.148076 0.235599
H18   H     H_    0.980938 0.665946 0.756957 0.307955
H19   H     H_    0.951121 0.550625 0.649565 0.245568
H20   H     H_    0.986900 0.667609 0.659733 0.249866
H21   H     H_    0.818219 0.532016 0.587009 0.193090
H22   H     H_    0.852902 0.656666 0.684382 0.244915
H23   H     H_    0.253015 0.447047 0.095438 0.174905
H24   H     H_    0.398852 0.524456 0.094403 0.249491
H25   H     H_    0.473381 0.629069 0.209027 0.299240
H26   H     H_    0.498696 0.539037 0.134232 0.248554
H27   H     H_    0.445133 0.495927 0.234728 0.247797
H28   H     H_    0.360172 0.393729 0.126315 0.211228
H29   H     H_    0.402801 0.835238 0.458484 0.271616
H30   H     H_    0.376593 0.863438 0.560596 0.289931
H31   H     H_    0.488574 0.902480 0.561144 0.237702
H32   H     H_    0.408324 0.743074 0.560150 0.246206
H33   H     H_    0.441820 0.724324 0.463259 0.258544
H34   H     H_    0.472004 0.685607 0.780743 0.179573
H35   H     H_    0.010600 0.445136 0.426826 0.267196
H36   H     H_    0.087166 0.558416 0.538638 0.289431
H37   H     H_    0.976164 0.524281 0.501718 0.238374
H38   H     H_    0.091870 0.673872 0.499321 0.231197
H39   H     H_    0.010702 0.563106 0.391667 0.243670
H40   H     H_    0.622244 0.827192 0.005888 0.256429
H41   H     H_    0.621044 0.781665 0.892053 0.259847
H42   H     H_    0.696858 0.917579 0.982215 0.273314
H43   H     H_    0.566244 0.885493 0.894318 0.211935
H44   H     H_    0.571603 0.934232 0.008017 0.250003
H45   H     H_    0.716999 0.258460 0.518210 0.276765
H46   H     H_    0.091087 0.258307 0.745125 0.250391
H47   H     H_    0.994052 0.163315 0.644864 0.238299
H48   H     H_    0.104316 0.207045 0.635970 0.294017
H49   H     H_    0.024714 0.335582 0.710103 0.192554
H50   H     H_    0.041823 0.288854 0.605510 0.259773
H51   H     H_    0.702131 0.629784 0.967101 0.250219
H52   H     H_    0.798287 0.736999 0.973944 0.290591
H53   H     H_    0.697964 0.732610 0.980657 0.249430
H54   H     H_    0.714005 0.684930 0.831446 0.230818
H55   H     H_    0.615217 0.580074 0.822616 0.200336
H56   H     H_    0.804805 0.376674 0.533105 0.231452
H57   H     H_    0.555845 0.458278 0.853069 0.264982
H58   H     H_    0.516087 0.331105 0.754397 0.267991
H59   H     H_    0.523746 0.353645 0.862251 0.249775
H60   H     H_    0.649963 0.348120 0.823743 0.227686
H61   H     H_    0.690364 0.477150 0.915322 0.198122
H62   H     H_    0.646692 0.204538 0.617790 0.299642
H63   H     H_    0.568756 0.209717 0.677471 0.250482
H64   H     H_    0.529336 0.126674 0.557463 0.259984
H65   H     H_    0.534533 0.288309 0.618069 0.229245
H66   H     H_    0.599923 0.273163 0.546864 0.195325
H67   H     H_    0.826533 0.285790 0.522261 0.278961
H68   H     H_    0.415772 0.026547 0.133469 0.290956
H69   H     H_    0.436607 0.153834 0.190455 0.265891
H70   H     H_    0.526514 0.141332 0.207743 0.270678
H71   H     H_    0.474686 0.182398 0.338456 0.173884
H72   H     H_    0.454364 0.058467 0.283758 0.260798
H73   H     H_    0.083322 0.197155 0.292379 0.255576
H74   H     H_    0.120101 0.278373 0.414602 0.327228
H75   H     H_    0.178526 0.330575 0.356980 0.208070
H76   H     H_    0.254336 0.282288 0.426859 0.238173
H77   H     H_    0.238706 0.235817 0.310113 0.203887
H78   H     H_    0.892136 0.429757 0.680402 0.200828
H79   H     H_    0.797855 0.318414 0.666256 0.271735
O1    O     O_3   0.500000 0.500000 0.500000 -0.500688
O2    O     O_R   0.945270 0.268330 0.884560 -0.648417
O3    O     O_R   0.117250 0.560610 0.177960 -0.592029
O4    O     O_R   0.676930 0.731590 0.616180 -0.607720
O5    O     O_R   0.821970 0.439270 0.882700 -0.643744
O6    O     O_R   0.117250 0.439170 0.056520 -0.668426
O7    O     O_R   0.943420 0.560710 0.882700 -0.625474
O8    O     O_R   0.115410 0.731560 0.054670 -0.613092
O9    O     O_R   0.823040 0.268350 0.883790 -0.611332
O10   O     O_R   0.945270 0.560650 0.176870 -0.549612
O11   O     O_R   0.116170 0.439210 0.884560 -0.642140
O12   O     O_R   0.384570 0.439270 0.616180 -0.619174
O13   O     O_R   0.384570 0.268390 0.445310 -0.638206
O14   O     O_R   0.383800 0.560730 0.615410 -0.654053
O15   O     O_R   0.554710 0.439290 0.323100 -0.613280
O16   O     O_R   0.382720 0.560770 0.443450 -0.648806
O17   O     O_R   0.678010 0.560670 0.617270 -0.655383
O18   O     O_R   0.382720 0.439330 0.322010 -0.655706
O19   O     O_R   0.556550 0.439230 0.617270 -0.654871
O20   O     O_R   0.676930 0.560710 0.445310 -0.623972
O21   O     O_R   0.554710 0.731610 0.615410 -0.643714
O22   O     O_R   0.383800 0.268410 0.323100 -0.648573
O23   O     O_3   0.999970 0.499940 0.999970 -0.516633
O24   O     O_R   0.823040 0.439240 0.054670 -0.677590
O25   O     O_R   0.115410 0.560680 0.883790 -0.599902
O26   O     O_R   0.116170 0.731530 0.176870 -0.601942
Zn1   Zn    Zn3+2 0.457160 0.413230 0.543930 0.965875
Zn2   Zn    Zn3+2 0.456070 0.586770 0.542830 1.004052
Zn3   Zn    Zn3+2 0.456070 0.413260 0.369320 1.002971
Zn4   Zn    Zn3+2 0.630700 0.586740 0.543930 1.030949
Zn5   Zn    Zn3+2 0.042810 0.586720 0.956040 1.049592
Zn6   Zn    Zn3+2 0.043900 0.586680 0.130650 1.087916
Zn7   Zn    Zn3+2 0.043900 0.413170 0.957150 1.017829
Zn8   Zn    Zn3+2 0.869280 0.413210 0.956040 0.975036

loop_
_geom_bond_atom_site_label_1
_geom_bond_atom_site_label_2
_ccdc_geom_bond_type
C40   C47   A    
C55   C56   A    
C11   C18   A    
C73   H2    S    
C71   H45   S    
C12   C74   S    
O25   Zn5   S    
C49   C87   S    
C36   C42   A    
C19   C20   A    
C26   F17   S    
C82   H25   S    
O1    Zn2   S    
C95   H58   S    
C78   H22   S    
C99   H70   S    
C81   C82   S    
O2    Zn7   S    
C39   F4    S    
C13   C65   S    
C85   C86   S    
O12   Zn1   S    
C48   C54   A    
C21   C76   S    
C93   H52   S    
C26   C27   A    
C80   H18   S    
C90   H1    S    
C36   C37   A    
C63   O9    A    
C86   H36   S    
C92   H55   S    
C86   H35   S    
C98   H72   S    
C22   C60   S    
C30   C31   A    
C31   C32   A    
C78   C80   S    
C84   H30   S    
C66   C69   S    
C36   C83   S    
C15   C16   A    
C98   C99   S    
C78   H21   S    
C1    C31   S    
C87   H43   S    
C85   H38   S    
C18   C19   A    
C77   H14   S    
C88   H42   S    
C2    C90   A    
O18   Zn3   S    
C8    C98   S    
O1    Zn1   S    
C89   H50   S    
C79   C90   A    
C98   H71   S    
O17   Zn4   S    
C66   O5    A    
C3    C100  S    
C81   H27   S    
C74   H11   S    
C74   H10   S    
C93   H51   S    
C8    C9    A    
C65   C67   S    
C6    C68   A    
C53   O17   A    
C15   F13   S    
C70   C71   S    
C88   H41   S    
O23   Zn6   S    
C89   C91   S    
O3    Zn6   S    
C17   C55   S    
O22   Zn3   S    
C72   C73   S    
C83   H33   S    
O1    Zn4   S    
O21   Zn2   S    
C40   C42   A    
C28   C34   A    
C53   O19   A    
C73   H3    S    
C94   H61   S    
C21   C22   A    
C71   H56   S    
C41   C43   S    
C91   H46   S    
O9    Zn8   S    
C10   C62   S    
O23   Zn7   S    
C82   H24   S    
C2    C72   S    
C24   C92   S    
O7    Zn5   S    
C52   C54   A    
C29   O15   A    
C45   C47   A    
C5    O22   A    
C34   C63   S    
C93   H53   S    
C59   C61   S    
C24   C35   S    
O14   Zn2   S    
C74   C75   S    
C79   F9    S    
C38   C85   S    
C11   F11   S    
C51   C52   A    
C23   C30   A    
C7    C8    A    
C76   C77   S    
C53   C57   S    
C4    C6    A    
C17   O14   A    
C25   F16   S    
C57   C65   S    
C47   C64   S    
C5    C7    S    
C76   H17   S    
C70   H78   S    
C29   O20   A    
C50   C51   A    
C25   C26   A    
C100  H76   S    
C46   C57   S    
C45   H23   S    
O20   Zn4   S    
C75   H7    S    
C13   C24   S    
C67   C69   S    
C77   H15   S    
C84   H31   S    
C14   F12   S    
C95   H59   S    
C68   C100  S    
C37   C38   A    
C52   C59   A    
C3    H74   S    
C83   C84   S    
O26   Zn6   S    
C76   H16   S    
C56   F6    S    
C96   C97   S    
C33   C34   A    
O4    Zn4   S    
C88   H40   S    
O8    Zn5   S    
C51   F8    S    
C62   O8    A    
C94   H60   S    
C61   O11   A    
O6    Zn7   S    
C20   F10   S    
C66   O7    A    
C9    F1    S    
C48   C49   A    
C87   H44   S    
C12   C14   A    
C44   C81   S    
C73   H4    S    
C41   O16   A    
C43   C44   A    
O10   Zn6   S    
C50   F7    S    
O13   Zn1   S    
O16   Zn2   S    
C91   H47   S    
C3    H73   S    
C1    O4    A    
C42   C43   A    
O23   Zn8   S    
C4    C10   A    
C13   F5    S    
C19   C29   S    
C99   H68   S    
C44   C45   A    
C37   F3    S    
C9    C10   A    
C35   C94   S    
C33   H12   S    
C64   O6    A    
C54   C55   A    
O5    Zn8   S    
C16   C22   A    
C65   C78   S    
C72   H5    S    
C71   H67   S    
C95   H57   S    
C17   O12   A    
O11   Zn7   S    
C96   H65   S    
C82   H26   S    
C97   H63   S    
O19   Zn1   S    
C11   C12   A    
C70   H79   S    
C97   H64   S    
C6    C7    A    
C100  H77   S    
C5    O13   A    
C24   C57   S    
C27   F2    S    
C81   H28   S    
C80   H19   S    
C63   O2    A    
O24   Zn8   S    
C67   C70   S    
C32   F14   S    
C32   C33   A    
C75   H9    S    
C60   O24   A    
C58   C59   A    
C46   C67   S    
C72   H6    S    
C3    H75   S    
C41   O18   A    
O23   Zn5   S    
C60   O10   A    
C38   C39   A    
C13   C69   S    
C68   C79   A    
C2    C4    A    
C28   C30   A    
C92   C93   S    
C56   C58   A    
C77   H13   S    
C62   O26   A    
C86   H37   S    
C94   C95   S    
C58   C89   S    
C61   O25   A    
C89   H49   S    
C97   H62   S    
C48   H34   S    
C23   F15   S    
C39   C40   A    
C91   H48   S    
C23   C25   A    
C46   C96   S    
C20   C21   A    
C35   C69   S    
C87   C88   S    
C16   C18   A    
C49   C50   A    
O15   Zn3   S    
C64   O3    A    
C27   C28   A    
C14   C15   A    
C1    O21   A    
C84   H29   S    
C92   H54   S    
C75   H8    S    
C35   C46   S    
C85   H39   S    
C99   H69   S    
C80   H20   S    
C96   H66   S    
C83   H32   S    
O1    Zn3   S    
