data_mof_unit_62020.cif
_audit_creation_date              2012-12-10T19:31:27-0500
_audit_creation_method            fapswitch 2.2
_symmetry_space_group_name_H-M    P1
_symmetry_Int_Tables_number       1
_space_group_crystal_system       triclinic
_cell_length_a                    17.719949
_cell_length_b                    16.601986
_cell_length_c                    27.617796
_cell_angle_alpha                 89.985118
_cell_angle_beta                  92.352546
_cell_angle_gamma                 90.000397
_cell_volume                      8117.93038752

loop_
_atom_site_label
_atom_site_type_symbol
_atom_type_description
_atom_site_fract_x
_atom_site_fract_y
_atom_site_fract_z
_atom_type_partial_charge
C1    C     C_R   0.355408 0.500000 0.500212 0.817549
C2    C     C_R   0.644592 0.500000 0.499788 0.817549
C3    C     C_R   0.523111 0.501959 0.101884 -0.077205
C4    C     C_R   0.476888 0.498042 0.898116 -0.077206
C5    C     C_R   0.524435 0.428541 0.127625 -0.005818
C6    C     C_R   0.475565 0.571460 0.872375 -0.005818
C7    C     C_R   0.525045 0.355732 0.102225 -0.118492
C8    C     C_R   0.474956 0.644269 0.897775 -0.118493
C9    C     C_R   0.530629 0.575737 0.127297 -0.123202
C10   C     C_R   0.469369 0.424265 0.872703 -0.123202
C11   C     C_R   0.502227 0.500076 0.354539 -0.095951
C12   C     C_R   0.497773 0.499924 0.645460 -0.095951
C13   C     C_R   0.482858 0.426080 0.975502 -0.046375
C14   C     C_R   0.517141 0.573921 0.024498 -0.046375
C15   C     C_R   0.498198 0.573159 0.974012 0.087520
C16   C     C_R   0.501801 0.426842 0.025988 0.087520
C17   C     C_R   0.486650 0.498862 0.949314 0.057743
C18   C     C_R   0.513349 0.501139 0.050686 0.057744
C19   C     C_R   0.454891 0.356638 0.950570 0.081073
C20   C     C_R   0.545107 0.643364 0.049430 0.081072
C21   C     C_R   0.455972 0.352814 0.899498 0.191183
C22   C     C_R   0.544025 0.647189 0.100502 0.191183
C23   C     C_R   0.498474 0.500013 0.407379 0.857836
C24   C     C_R   0.501526 0.499987 0.592621 0.857836
C25   C     C_R   0.516379 0.355259 0.052050 -0.153868
C26   C     C_R   0.483621 0.644742 0.947949 -0.153868
C27   C     C_R   0.846322 0.573003 0.499466 -0.132974
C28   C     C_R   0.153678 0.426997 0.500534 -0.132974
C29   C     C_R   0.153677 0.573002 0.500511 -0.133123
C30   C     C_R   0.846323 0.426998 0.499489 -0.133123
C31   C     C_R   0.767659 0.573091 0.499296 -0.153096
C32   C     C_R   0.232341 0.426909 0.500704 -0.153096
C33   C     C_R   0.232341 0.573090 0.500681 -0.153527
C34   C     C_R   0.767659 0.426910 0.499319 -0.153527
C35   C     C_R   0.727595 0.500000 0.499475 -0.036805
C36   C     C_R   0.272405 0.499999 0.500525 -0.036804
C37   C     C_R   0.885549 0.500000 0.499647 0.134027
C38   C     C_R   0.114450 0.500000 0.500353 0.134027
C39   C     C_1   0.966161 0.500000 0.499893 -0.034325
C40   C     C_1   0.033839 0.500000 0.500107 -0.034325
C41   C     C_R   0.548611 0.830318 0.530963 -0.264213
C42   C     C_R   0.451389 0.169681 0.469037 -0.264213
C43   C     C_R   0.451386 0.830341 0.469033 -0.263794
C44   C     C_R   0.548614 0.169659 0.530967 -0.263794
C45   C     C_R   0.548272 0.745089 0.530754 0.318281
C46   C     C_R   0.451727 0.254911 0.469246 0.318280
C47   C     C_R   0.451731 0.745110 0.469241 0.318431
C48   C     C_R   0.548269 0.254890 0.530759 0.318431
C49   C     C_R   0.499996 0.874100 0.499999 0.066177
C50   C     C_R   0.500004 0.125899 0.500001 0.066177
C51   C     C_1   0.499998 0.963023 0.499999 0.015129
C52   C     C_1   0.500002 0.036977 0.500001 0.015129
C53   C     C_R   0.525880 0.429624 0.178266 0.575926
C54   C     C_R   0.474121 0.570377 0.821734 0.575926
C55   C     C_R   0.527393 0.573342 0.178544 0.606694
C56   C     C_R   0.472606 0.426659 0.821456 0.606692
C57   C     C_R   0.580511 0.500568 0.284718 -0.110772
C58   C     C_R   0.419489 0.499433 0.715282 -0.110772
C59   C     C_R   0.573658 0.500250 0.334719 -0.238235
C60   C     C_R   0.426342 0.499750 0.665281 -0.238235
C61   C     C_R   0.436481 0.500210 0.323819 0.110589
C62   C     C_R   0.563518 0.499790 0.676181 0.110589
C63   C     C_R   0.443664 0.500532 0.273137 0.180332
C64   C     C_R   0.556336 0.499467 0.726863 0.180333
C65   C     C_R   0.516013 0.500694 0.253863 0.261098
C66   C     C_R   0.483986 0.499306 0.746136 0.261099
Cu1   Cu    Cu3+1 0.500000 0.580420 0.500000 1.011669
Cu2   Cu    Cu3+1 0.500000 0.419580 0.500000 1.011669
N1    N     N_R   0.524180 0.501216 0.202373 -0.463090
N2    N     N_R   0.475820 0.498785 0.797627 -0.463089
N3    N     N_R   0.500000 0.701220 0.500000 -0.210114
N4    N     N_R   0.500000 0.298780 0.500000 -0.210114
O1    O     O_R   0.391260 0.567930 0.500000 -0.572236
O2    O     O_R   0.608740 0.432070 0.500000 -0.572236
O3    O     O_R   0.608740 0.567930 0.500000 -0.571903
O4    O     O_R   0.391260 0.432070 0.500000 -0.571903
O5    O     O_R   0.500010 0.567900 0.430260 -0.555340
O6    O     O_R   0.499990 0.432100 0.569740 -0.555340
O7    O     O_R   0.499990 0.567900 0.569740 -0.555833
O8    O     O_R   0.500010 0.432100 0.430260 -0.555833
O9    O     O_2   0.526716 0.359784 0.203317 -0.509386
O10   O     O_2   0.473286 0.640216 0.796683 -0.509386
O11   O     O_2   0.474731 0.358436 0.795281 -0.476998
O12   O     O_2   0.525267 0.641565 0.204719 -0.476999
I1    I     I_    0.327092 0.500021 0.353443 -0.206099
I2    I     I_    0.672908 0.499978 0.646557 -0.206099
H1    H     H_    0.738375 0.630314 0.498968 0.174846
H2    H     H_    0.261625 0.369686 0.501032 0.174846
H3    H     H_    0.261624 0.630313 0.500991 0.174615
H4    H     H_    0.738376 0.369686 0.499009 0.174615
H5    H     H_    0.587188 0.862415 0.555538 0.175154
H6    H     H_    0.412812 0.137585 0.444462 0.175154
H7    H     H_    0.412812 0.862455 0.444454 0.175229
H8    H     H_    0.587188 0.137545 0.555546 0.175229
I3    I     I_    0.627413 0.694518 0.581222 -0.281937
I4    I     I_    0.372587 0.305482 0.418778 -0.281937
I5    I     I_    0.372632 0.694566 0.418751 -0.279597
I6    I     I_    0.627368 0.305434 0.581248 -0.279598
I7    I     I_    0.347007 0.501049 0.224318 -0.180849
I8    I     I_    0.652992 0.498951 0.775682 -0.180849
H9    H     H_    0.531809 0.298728 0.120999 0.198732
H10   H     H_    0.468192 0.701273 0.879000 0.198732
H11   H     H_    0.375730 0.499802 0.641871 0.150400
H12   H     H_    0.624270 0.500199 0.358129 0.150400
H13   H     H_    0.363921 0.499245 0.730195 0.161415
H14   H     H_    0.636079 0.500756 0.269805 0.161416
I9    I     I_    0.431144 0.238212 0.865981 -0.129221
I10   I     I_    0.568849 0.761792 0.134019 -0.129220
I11   I     I_    0.382643 0.272975 0.986563 -0.238491
I12   I     I_    0.617354 0.727028 0.013438 -0.238492
H15   H     H_    0.522141 0.298181 0.033825 0.180023
H16   H     H_    0.477859 0.701821 0.966175 0.180023
H17   H     H_    0.876515 0.629764 0.499439 0.145633
H18   H     H_    0.123485 0.370236 0.500561 0.145633
H19   H     H_    0.123484 0.629763 0.500521 0.145568
H20   H     H_    0.876516 0.370237 0.499479 0.145568

loop_
_geom_bond_atom_site_label_1
_geom_bond_atom_site_label_2
_ccdc_geom_bond_type
C2    C35   S    
Cu2   O8    S    
C63   C65   A    
C45   N3    A    
C8    C26   A    
C14   C18   A    
Cu1   O5    S    
C53   N1    A    
C30   H20   S    
C62   I2    S    
C59   H12   S    
C32   C36   A    
C5    C53   A    
C19   C21   A    
C48   N4    A    
C22   I10   S    
C9    C22   A    
C57   C59   A    
Cu1   N3    S    
Cu2   O2    S    
C32   H2    S    
C29   C33   A    
C33   C36   A    
C3    C18   A    
C53   O9    S    
C34   C35   A    
C42   C46   A    
C63   I7    S    
C61   C63   A    
C62   C64   A    
C58   C66   A    
C49   C51   S    
C29   C38   A    
C50   C52   S    
Cu1   O1    S    
C23   O8    A    
C60   H11   S    
C10   C56   A    
C46   N4    A    
C2    O2    A    
C57   H14   S    
C29   H19   S    
C6    C54   A    
C11   C59   A    
C41   C49   A    
C58   C60   A    
C19   I11   S    
C10   C21   A    
Cu2   O6    S    
C31   H1    S    
C30   C34   A    
C27   C31   A    
Cu1   Cu2   S    
C14   C20   A    
C28   C32   A    
Cu1   O7    S    
C4    C6    A    
C39   C40   T    
C5    C7    A    
C13   C19   A    
C43   C49   A    
C15   C26   A    
C6    C8    A    
C3    C5    A    
C51   C52   T    
C30   C37   A    
C64   C66   A    
C34   H4    S    
C3    C9    A    
C33   H3    S    
C12   C62   A    
C24   O7    A    
C54   N2    A    
C28   C38   A    
Cu2   N4    S    
C55   N1    A    
C23   O5    A    
C47   N3    A    
C21   I9    S    
C61   I1    S    
C42   C50   A    
C20   I12   S    
C4    C17   A    
C27   H17   S    
C24   O6    A    
C41   H5    S    
C20   C22   A    
C56   N2    A    
C31   C35   A    
Cu1   O3    S    
C4    C10   A    
C45   I3    S    
C26   H16   S    
C54   O10   S    
C56   O11   S    
C44   C50   A    
C16   C25   A    
C15   C17   A    
C1    O4    A    
C57   C65   A    
C11   C61   A    
C47   I5    S    
Cu2   O4    S    
C48   I6    S    
C12   C24   S    
C7    C25   A    
C13   C17   A    
C58   H13   S    
C1    O1    A    
C37   C39   S    
C38   C40   S    
C66   N2    S    
C43   C47   A    
C27   C37   A    
C65   N1    S    
C28   H18   S    
C11   C23   S    
C43   H7    S    
C42   H6    S    
C9    C55   A    
C44   H8    S    
C25   H15   S    
C12   C60   A    
C64   I8    S    
C46   I4    S    
C16   C18   A    
C7    H9    S    
C13   C16   A    
C41   C45   A    
C14   C15   A    
C55   O12   S    
C8    H10   S    
C2    O3    A    
C44   C48   A    
C1    C36   S    
