data_mof_unit_11959.cif
_audit_creation_date              2013-03-05T15:50:43-0500
_audit_creation_method            fapswitch 2.2
_symmetry_space_group_name_H-M    P1
_symmetry_Int_Tables_number       1
_space_group_crystal_system       triclinic
_cell_length_a                    22.895822
_cell_length_b                    7.505743
_cell_length_c                    20.581602
_cell_angle_alpha                 89.990771
_cell_angle_beta                  93.537518
_cell_angle_gamma                 90.008235
_cell_volume                      3530.21215557

loop_
_atom_site_label
_atom_site_type_symbol
_atom_site_description
_atom_site_fract_x
_atom_site_fract_y
_atom_site_fract_z
_atom_type_partial_charge
O1    O     O_R   0.438030 0.494310 0.439340 -0.563078
O2    O     O_R   0.561970 0.994310 0.560660 -0.563601
O3    O     O_R   0.556900 0.822900 0.435960 -0.556163
O4    O     O_R   0.443100 0.322900 0.564040 -0.556500
C1    C     C_R   0.575294 0.656302 0.421814 0.940505
C2    C     C_R   0.424698 0.156275 0.578171 0.942183
O5    O     O_R   0.438170 0.823950 0.431660 -0.570478
O6    O     O_R   0.561830 0.323950 0.568340 -0.571299
O7    O     O_R   0.442390 0.995390 0.556340 -0.556824
O8    O     O_R   0.557610 0.495390 0.443660 -0.557038
C3    C     C_R   0.419466 0.655798 0.416136 1.036282
C4    C     C_R   0.580554 0.155804 0.583833 1.036730
O9    O     O_3   0.501520 0.661170 0.540910 -0.282586
O10   O     O_3   0.498480 0.161170 0.459090 -0.281681
V1    V     V_3+5 0.499720 0.935580 0.492410 1.338056
V2    V     V_3+5 0.500280 0.435580 0.507590 1.337306
C5    C     C_R   0.812028 0.067600 0.886629 0.258043
C6    C     C_R   0.187870 0.563183 0.113634 0.258582
C7    C     C_R   0.869644 0.082478 0.867108 -0.333894
C8    C     C_R   0.130325 0.582502 0.132919 -0.333870
C9    C     C_R   0.879831 0.112469 0.801271 0.256812
C10   C     C_R   0.120231 0.617078 0.198478 0.256741
C11   C     C_R   0.832021 0.127742 0.754474 0.011667
C12   C     C_R   0.168066 0.632373 0.245238 0.011580
C13   C     C_R   0.773949 0.113220 0.773768 0.017497
C14   C     C_R   0.226072 0.613407 0.226180 0.017781
C15   C     C_R   0.764094 0.082993 0.840075 -0.001126
C16   C     C_R   0.235831 0.578742 0.160139 -0.001179
C17   C     C_R   0.841152 0.154719 0.688549 -0.176473
C18   C     C_R   0.159003 0.663838 0.310907 -0.176494
C19   C     C_R   0.794724 0.170450 0.641793 0.355120
C20   C     C_R   0.205447 0.679583 0.357636 0.354984
C21   C     C_R   0.735897 0.163968 0.660308 -0.104044
C22   C     C_R   0.264267 0.668408 0.339323 -0.104474
C23   C     C_R   0.725712 0.128655 0.726740 -0.024188
C24   C     C_R   0.274337 0.628865 0.273173 -0.023671
C25   C     C_R   0.667477 0.107921 0.746363 -0.083894
C26   C     C_R   0.332478 0.603960 0.253792 -0.084038
C27   C     C_R   0.658573 0.092958 0.813862 0.321574
C28   C     C_R   0.341362 0.584789 0.186428 0.321274
C29   C     C_R   0.706409 0.075106 0.858896 -0.179171
C30   C     C_R   0.293483 0.566752 0.141472 -0.179202
C31   C     C_R   0.686991 0.188285 0.615138 0.296424
C32   C     C_R   0.313257 0.692166 0.384421 0.298304
C33   C     C_R   0.630236 0.147194 0.633224 -0.387822
C34   C     C_R   0.369808 0.647227 0.366700 -0.387278
C35   C     C_R   0.620640 0.099219 0.697741 0.286759
C36   C     C_R   0.379227 0.595487 0.302525 0.286704
H1    H     H_    0.884953 0.160512 0.671893 0.221872
H2    H     H_    0.115214 0.673323 0.327404 0.221902
H3    H     H_    0.697444 0.063142 0.909654 0.232507
H4    H     H_    0.302434 0.551405 0.090833 0.232547
C37   C     C_3   0.256985 0.236579 0.820572 0.416211
C38   C     C_3   0.743047 0.736541 0.179370 0.415834
C39   C     C_3   0.233478 0.923920 0.776326 0.452786
C40   C     C_3   0.766491 0.423907 0.223689 0.452885
C41   C     C_3   0.282108 0.945275 0.725417 -0.000355
C42   C     C_3   0.717839 0.445297 0.274568 -0.000504
H5    H     H_    0.323635 0.887903 0.746310 0.225638
H6    H     H_    0.676308 0.387985 0.253645 0.225514
C43   C     C_1   0.378760 0.151190 0.623384 -0.076981
C44   C     C_1   0.621214 0.651272 0.376574 -0.077215
C45   C     C_3   0.206834 0.108301 0.791426 -0.359969
C46   C     C_3   0.793170 0.608268 0.208567 -0.359882
C47   C     C_3   0.309851 0.253305 0.772395 0.301043
C48   C     C_3   0.690144 0.753230 0.227503 0.301263
C49   C     C_3   0.291716 0.146007 0.707124 -0.384873
C50   C     C_3   0.708253 0.646041 0.292819 -0.384877
C51   C     C_3   0.230791 0.211178 0.674285 0.092727
C52   C     C_3   0.769178 0.711203 0.325669 0.092508
C53   C     C_3   0.181009 0.183212 0.723392 0.121901
C54   C     C_3   0.818978 0.683207 0.276595 0.122016
C55   C     C_1   0.339813 0.150063 0.660852 0.353409
C56   C     C_1   0.660149 0.650143 0.339088 0.353617
C57   C     C_1   0.159096 0.088597 0.838013 0.332008
C58   C     C_1   0.840920 0.588529 0.162003 0.331858
C59   C     C_1   0.120657 0.080301 0.876019 -0.104559
C60   C     C_1   0.879357 0.580224 0.123998 -0.104813
H7    H     H_    0.153741 0.077583 0.699770 0.168807
H8    H     H_    0.846231 0.577587 0.300245 0.168592
H9    H     H_    0.219559 0.119537 0.633025 0.163383
H10   H     H_    0.780385 0.619562 0.366944 0.163250
O11   O     O_R   0.942420 0.735670 0.056390 -0.553017
O12   O     O_R   0.057580 0.235670 0.943610 -0.553013
O13   O     O_R   0.061840 0.404850 0.068350 -0.569305
O14   O     O_R   0.938160 0.904850 0.931650 -0.569411
C61   C     C_R   0.080691 0.573135 0.083640 1.039224
C62   C     C_R   0.919294 0.073130 0.916373 1.039284
O15   O     O_R   0.943100 0.406010 0.064050 -0.563382
O16   O     O_R   0.056900 0.906010 0.935950 -0.563434
O17   O     O_R   0.938020 0.234710 0.939330 -0.569881
O18   O     O_R   0.061980 0.734710 0.060670 -0.569611
C63   C     C_R   0.924868 0.573721 0.078227 0.941290
C64   C     C_R   0.075137 0.073748 0.921780 0.941816
O19   O     O_3   0.998500 0.567790 0.959120 -0.284642
O20   O     O_3   0.001500 0.067790 0.040880 -0.284241
V3    V     V_3+5 0.000280 0.293330 0.007580 1.303823
V4    V     V_3+5 0.999720 0.793330 0.992420 1.303754
Br1   Br    Br    0.800341 0.029402 0.977954 -0.389724
Br2   Br    Br    0.199447 0.519217 0.022638 -0.391038
Br3   Br    Br    0.284282 0.208571 0.912864 -0.198192
Br4   Br    Br    0.715869 0.708607 0.087036 -0.198899
Br5   Br    Br    0.169131 0.764947 0.745541 -0.287960
Br6   Br    Br    0.830800 0.264914 0.254532 -0.288187
Br7   Br    Br    0.267087 0.823248 0.857608 -0.225719
Br8   Br    Br    0.732900 0.323212 0.142414 -0.225200
Br9   Br    Br    0.270027 0.802860 0.645491 -0.238741
Br10  Br    Br    0.729865 0.302892 0.354526 -0.238600
Br11  Br    Br    0.113161 0.343474 0.725886 -0.239874
Br12  Br    Br    0.886831 0.843506 0.274109 -0.239445
N1    N     N_R   0.232816 0.385503 0.641731 0.308901
O21   O     O_R   0.185839 0.481886 0.634247 -0.204434
O22   O     O_R   0.270904 0.406214 0.597935 -0.273018
N2    N     N_R   0.767162 0.885528 0.358202 0.309030
O23   O     O_R   0.814156 0.981849 0.365735 -0.204079
O24   O     O_R   0.729048 0.906235 0.401963 -0.272103
Br13  Br    Br    0.215464 0.449386 0.837524 -0.276541
Br14  Br    Br    0.784583 0.949409 0.162457 -0.276411
N3    N     N_R   0.321897 0.443304 0.760168 0.269943
O25   O     O_R   0.338725 0.494257 0.703995 -0.306531
O26   O     O_R   0.340346 0.538551 0.810054 -0.227641
N4    N     N_R   0.678066 0.943219 0.239648 0.269941
O27   O     O_R   0.661311 0.994323 0.295826 -0.306374
O28   O     O_R   0.659559 0.038284 0.189730 -0.227413
Br15  Br    Br    0.959927 0.132148 0.776889 -0.453005
Br16  Br    Br    0.040223 0.642510 0.222561 -0.452456
Br17  Br    Br    0.818193 0.176531 0.553402 -0.249500
Br18  Br    Br    0.181794 0.693057 0.445850 -0.250904
N5    N     N_R   0.693628 0.262168 0.551757 0.252275
O29   O     O_R   0.708151 0.428872 0.546196 -0.337359
O30   O     O_R   0.677099 0.171947 0.499846 -0.306096
N6    N     N_R   0.306951 0.768618 0.447443 0.252071
O31   O     O_R   0.294108 0.936813 0.452286 -0.339279
O32   O     O_R   0.322448 0.678668 0.499755 -0.305892
Br19  Br    Br    0.544449 0.002240 0.714631 -0.354144
Br20  Br    Br    0.454990 0.494284 0.286327 -0.354314
N7    N     N_R   0.602206 0.118627 0.839141 0.274597
O33   O     O_R   0.585355 0.015877 0.885372 -0.233221
O34   O     O_R   0.573543 0.265286 0.825930 -0.253831
N8    N     N_R   0.397865 0.606313 0.161032 0.274499
O35   O     O_R   0.414262 0.500088 0.115615 -0.234257
O36   O     O_R   0.427200 0.752379 0.173146 -0.252153
N9    N     N_R   0.366269 0.178945 0.800693 0.257732
O37   O     O_R   0.415436 0.245126 0.782929 -0.241745
O38   O     O_R   0.369409 0.037176 0.836892 -0.265073
N10   N     N_R   0.633743 0.678732 0.199212 0.257726
O39   O     O_R   0.584569 0.744335 0.217169 -0.242881
O40   O     O_R   0.630637 0.537308 0.162849 -0.264628

loop_
_geom_bond_atom_site_label_1
_geom_bond_atom_site_label_2
_geom_bond_distance
_ccdc_geom_bond_type
C48   C50   1.599160 S    
C27   N7    1.433978 S    
C37   C45   1.587523 S    
N1    O21   1.297566 A    
O1    C3    1.361173 A    
C19   Br17  1.928991 S    
O2    C4    1.361169 A    
C2    O7    1.359027 A    
C53   H7    1.103297 S    
N2    O23   1.297562 A    
O19   V4    1.825988 S    
O18   V4    1.987878 S    
C27   C29   1.396920 A    
C17   H1    1.080519 S    
C52   N2    1.471933 S    
O5    C3    1.364363 A    
N7    O34   1.301706 A    
C45   C57   1.505038 S    
C39   Br7   1.950039 S    
O12   V3    1.963517 S    
C11   C17   1.400225 A    
C2    C43   1.447206 S    
C23   C25   1.425313 A    
C12   C14   1.415042 A    
N5    O29   1.301454 A    
C47   N9    1.492157 S    
C37   Br13  1.902193 S    
C41   H5    1.106324 S    
C60   C63   1.448021 S    
C50   C56   1.500099 S    
N9    O37   1.303162 A    
O11   C63   1.364923 A    
C8    C61   1.477430 S    
C39   Br5   1.969847 S    
C59   C64   1.448031 S    
C6    C8    1.406801 A    
C51   C53   1.583281 S    
C5    C7    1.406916 A    
C37   Br3   1.973935 S    
N6    O31   1.301498 A    
C47   C49   1.599084 S    
O11   V4    1.963342 S    
C39   C45   1.551690 S    
C48   N4    1.476892 S    
C49   C55   1.500009 S    
C25   C35   1.422419 A    
C37   C47   1.616192 S    
C42   Br10  1.967254 S    
C36   Br20  1.941393 S    
C35   Br19  1.941182 S    
C33   C35   1.406038 A    
C18   H2    1.080528 S    
O6    V2    2.008448 S    
C61   O18   1.361158 A    
C17   C19   1.394182 A    
C6    Br2   1.936013 S    
C41   C49   1.571641 S    
O14   V4    2.008494 S    
C32   C34   1.407730 A    
O16   C64   1.363538 A    
N10   O40   1.298312 A    
O13   C61   1.365273 A    
C47   N3    1.476968 S    
C54   Br12  1.967994 S    
O14   C62   1.365296 A    
C58   C60   1.214578 T    
C5    C15   1.416384 A    
C31   N5    1.434054 S    
C6    C16   1.416305 A    
N8    O35   1.301549 A    
C40   Br6   1.969753 S    
O4    C2    1.356859 A    
C7    C62   1.477523 S    
C4    C33   1.479461 S    
O5    V1    2.008448 S    
C43   C55   1.214398 T    
C54   H8    1.103306 S    
O15   V3    1.992102 S    
C49   C51   1.589228 S    
C20   C22   1.423203 A    
O4    V2    1.991523 S    
C18   C20   1.394099 A    
C31   C33   1.407767 A    
C15   C29   1.400370 A    
C62   O17   1.361224 A    
O6    C4    1.364336 A    
O20   V3    1.825791 S    
C19   C21   1.423022 A    
C46   C58   1.505006 S    
C22   C32   1.422321 A    
N1    O22   1.301562 A    
O1    V2    1.987909 S    
O12   C64   1.364960 A    
O16   V4    1.991780 S    
O17   V3    1.987891 S    
O2    V1    1.987918 S    
C5    Br1   1.936134 S    
C40   Br8   1.949969 S    
N3    O26   1.300119 A    
C13   C23   1.427618 A    
C51   H9    1.110663 S    
C14   C24   1.427645 A    
C41   Br9   1.967106 S    
C45   C53   1.588748 S    
C9    C11   1.417389 A    
C10   C12   1.417328 A    
O9    V2    1.826488 S    
C32   N6    1.433858 S    
C9    Br15  1.936529 S    
C24   C26   1.425406 A    
C38   Br14  1.902237 S    
N4    O28   1.300131 A    
O3    V1    1.991843 S    
N10   O39   1.303166 A    
C42   C50   1.571613 S    
N9    O38   1.298334 A    
C7    C9    1.407155 A    
C26   C36   1.422403 A    
C38   Br4   1.974023 S    
C8    C10   1.407129 A    
C28   C30   1.396782 A    
O3    C1    1.356882 A    
N2    O24   1.301518 A    
N3    O25   1.298514 A    
C38   C48   1.616292 S    
C13   C15   1.415166 A    
N7    O33   1.301542 A    
C14   C16   1.415176 A    
C20   Br18  1.929054 S    
C39   C41   1.583385 S    
O7    V1    1.967046 S    
C1    O8    1.359020 A    
C25   C27   1.420924 A    
O8    V2    1.966861 S    
C26   C28   1.420987 A    
C51   N1    1.471945 S    
C40   C46   1.551741 S    
C38   C46   1.587471 S    
C53   Br11  1.968026 S    
C16   C30   1.400251 A    
C21   C23   1.425946 A    
C10   Br16  1.936510 S    
C40   C42   1.583414 S    
C1    C44   1.447285 S    
C28   N8    1.433956 S    
C22   C24   1.426092 A    
C46   C54   1.588704 S    
O15   C63   1.363547 A    
C52   H10   1.110667 S    
C12   C18   1.400106 A    
C48   N10   1.492118 S    
O13   V3    2.008493 S    
C34   C36   1.406157 A    
C11   C13   1.415104 A    
N6    O32   1.301377 A    
C57   C59   1.214585 T    
C50   C52   1.589238 S    
O10   V1    1.826291 S    
C44   C56   1.214448 T    
C3    C34   1.479616 S    
C52   C54   1.583224 S    
N8    O36   1.301707 A    
N4    O27   1.298493 A    
C21   C31   1.422301 A    
C42   H6    1.106396 S    
C29   H3    1.080720 S    
C30   H4    1.080723 S    
N5    O30   1.301366 A    
