data_mof_unit_55952.cif
_audit_creation_date              2012-12-11T15:20:35-0500
_audit_creation_method            fapswitch 2.2
_symmetry_space_group_name_H-M    P1
_symmetry_Int_Tables_number       1
_space_group_crystal_system       triclinic
_cell_length_a                    13.054983
_cell_length_b                    13.02621
_cell_length_c                    15.40776
_cell_angle_alpha                 117.554398
_cell_angle_beta                  63.577956
_cell_angle_gamma                 97.650031
_cell_volume                      2071.59000144

loop_
_atom_site_label
_atom_site_type_symbol
_atom_type_description
_atom_site_fract_x
_atom_site_fract_y
_atom_site_fract_z
_atom_type_partial_charge
Br1   Br    Br    0.116907 0.506442 0.615477 -0.582352
Br2   Br    Br    0.028881 0.316842 0.243038 -0.578424
Br3   Br    Br    0.379903 0.721276 0.853843 -0.643150
C1    C     C_R   0.998573 0.833490 0.057702 -0.089136
C2    C     C_R   0.294730 0.600775 0.793625 0.240814
C3    C     C_R   0.262070 0.416622 0.043678 0.053932
C4    C     C_R   0.679722 0.460654 0.220174 -0.142208
C5    C     C_R   0.063616 0.276691 0.685936 -0.085114
C6    C     C_R   0.362183 0.429520 0.965019 0.067618
C7    C     C_R   0.055447 0.166147 0.679045 0.009263
C8    C     C_R   0.286817 0.577967 0.701014 -0.092241
C9    C     C_R   0.983052 0.160089 0.062546 0.063010
C10   C     C_R   0.181142 0.964360 0.383811 -0.150854
C11   C     C_R   0.173916 0.058401 0.479674 -0.163078
C12   C     C_R   0.671874 0.525509 0.323418 -0.023350
C13   C     C_R   0.104697 0.056867 0.579325 0.136168
C14   C     C_R   0.065497 0.951742 0.579879 -0.152870
C15   C     C_R   0.072097 0.858200 0.484437 -0.156990
C16   C     C_R   0.746115 0.542255 0.913997 -0.123170
C17   C     C_R   0.118598 0.868854 0.387556 0.128810
C18   C     C_R   0.571035 0.477718 0.471464 -0.183247
C19   C     C_R   0.476722 0.492662 0.565530 -0.145904
C20   C     C_R   0.383813 0.570033 0.605899 0.198967
C21   C     C_R   0.383057 0.631798 0.552549 -0.073763
C22   C     C_R   0.478837 0.617192 0.457739 -0.190374
C23   C     C_R   0.646935 0.498850 0.962842 0.129193
C24   C     C_R   0.572246 0.541354 0.419343 0.135127
C25   C     C_2   0.476829 0.419203 0.951611 -0.260112
C26   C     C_2   0.538580 0.512424 0.967900 0.014840
C27   C     C_2   0.830816 0.958173 0.099389 -0.252153
C28   C     C_R   0.021222 0.697820 0.300254 -0.139264
C29   C     C_2   0.819844 0.038628 0.197290 -0.064691
C30   C     C_R   0.667010 0.442821 0.010443 -0.151511
C31   C     C_R   0.100299 0.798316 0.207826 0.018797
C32   C     C_R   0.781024 0.545638 0.316221 0.082229
C33   C     C_R   0.902518 0.749671 0.957270 -0.108980
C34   C     C_R   0.082184 0.793038 0.301712 0.024501
C35   C     C_R   0.912467 0.853974 0.036465 0.151578
C36   C     C_R   0.333564 0.501056 0.935905 -0.142808
C37   C     C_R   0.979136 0.177801 0.781409 -0.113112
C38   C     C_R   0.194553 0.515508 0.698695 0.243348
C39   C     C_R   0.031691 0.261718 0.103310 0.305686
C40   C     C_R   0.940994 0.174966 0.000900 -0.225099
H1    H     H_    0.022821 0.895490 0.119884 0.116199
H2    H     H_    0.642558 0.416222 0.438855 0.134267
H3    H     H_    0.475174 0.442869 0.606246 0.123298
H4    H     H_    0.309546 0.690269 0.584172 0.146685
H5    H     H_    0.480883 0.664750 0.415050 0.131023
H6    H     H_    0.510487 0.335190 0.931666 0.137477
H7    H     H_    0.774437 0.966883 0.067963 0.132494
H8    H     H_    0.757441 0.113728 0.243978 0.127541
H9    H     H_    0.761278 0.577524 0.858574 0.120692
H10   H     H_    0.012023 0.653963 0.347559 0.139952
H11   H     H_    0.611115 0.389126 0.044859 0.096598
H12   H     H_    0.950923 0.109581 0.805324 0.098569
H13   H     H_    0.841572 0.735727 0.924435 0.107452
H14   H     H_    0.390682 0.525733 0.874173 0.156278
H15   H     H_    0.309684 0.409699 0.148338 0.130740
H16   H     H_    0.292497 0.279924 0.058170 0.123064
H17   H     H_    0.413070 0.649730 0.073535 0.138525
H18   H     H_    0.498165 0.643451 0.946796 0.159159
H19   H     H_    0.153779 0.941828 0.189490 0.111888
H20   H     H_    0.210543 0.817209 0.074657 0.168902
H21   H     H_    0.766177 0.678457 0.458602 0.112254
H22   H     H_    0.789637 0.545630 0.443883 0.141181
H23   H     H_    0.882758 0.119706 0.971032 0.123170
H24   H     H_    0.115850 0.299644 0.621677 0.147470
H25   H     H_    0.228212 0.972742 0.310134 0.136569
H26   H     H_    0.213677 0.135399 0.475706 0.126189
H27   H     H_    0.018344 0.944476 0.654576 0.117930
H28   H     H_    0.611071 0.421382 0.198520 0.114726
H29   H     H_    0.029027 0.783595 0.490920 0.127966
N1    N     N_R   0.037310 0.720000 0.995790 -0.053052
N2    N     N_R   0.824890 0.517960 0.936420 -0.042466
N3    N     N_R   0.003210 0.648190 0.211380 -0.045264
N4    N     N_R   0.774330 0.457010 0.995840 -0.044422
N5    N     N_R   0.053760 0.709140 0.151960 -0.060596
N6    N     N_R   0.853860 0.498840 0.211410 -0.040444
N7    N     N_R   0.974240 0.667310 0.936390 -0.038659
N8    N     N_R   0.225670 0.542990 0.004160 -0.052443
N9    N     N_3   0.257057 0.366144 0.109865 -0.172261
N10   N     N_3   0.495520 0.630018 0.009383 -0.209495
N11   N     N_3   0.188660 0.857463 0.157673 -0.220128
N12   N     N_R   0.946240 0.290860 0.848040 -0.043320
N13   N     N_3   0.813132 0.597296 0.403805 -0.208448
N14   N     N_R   0.146140 0.501160 0.788590 -0.089498
N15   N     N_R   0.025760 0.332690 0.063610 -0.074899
N16   N     N_R   0.962690 0.280000 0.004210 -0.059239
N17   N     N_R   0.209210 0.553840 0.847990 -0.091955
N18   N     N_R   0.175110 0.482040 0.063580 -0.047569
N19   N     N_R   0.996790 0.351810 0.788620 -0.033138
N20   N     N_R   0.790790 0.446160 0.152010 -0.049440
Ni1   Ni    Ni4+2 0.130310 0.630310 0.999970 0.226861
Ni2   Ni    Ni4+2 0.869690 0.369690 0.000030 0.207711
Ni3   Ni    Ni4+2 0.985640 0.509470 0.863740 0.265214
Ni4   Ni    Ni4+2 0.014360 0.490530 0.136260 0.258764

loop_
_geom_bond_atom_site_label_1
_geom_bond_atom_site_label_2
_ccdc_geom_bond_type
H19   N11   S    
C31   C34   A    
C37   N12   A    
N1    Ni1   S    
N15   N16   A    
C3    C6    A    
C38   N14   A    
N2    N4    A    
C40   N16   A    
C25   C26   D    
C2    C8    A    
C9    C40   A    
H18   N10   S    
C31   N5    A    
C4    H28   S    
C36   H14   S    
C6    C36   A    
C27   C35   S    
C7    C37   A    
N5    Ni1   S    
C16   C23   A    
C9    C39   A    
C23   C30   A    
N4    Ni2   S    
C28   N3    A    
C16   H9    S    
N6    Ni4   S    
C13   C14   A    
C20   C21   A    
N12   N19   A    
C4    C12   A    
C27   H7    S    
C14   H27   S    
C3    N9    S    
C10   C11   A    
N8    N18   A    
H17   N10   S    
C12   C32   A    
N3    Ni4   S    
C18   H2    S    
C15   H29   S    
N16   Ni2   S    
C21   C22   A    
H15   N9    S    
C1    H1    S    
N6    N20   A    
C3    N18   A    
C33   N7    A    
C28   C34   A    
H20   N11   S    
C29   H8    S    
N7    Ni3   S    
C33   H13   S    
C25   H6    S    
C30   N4    A    
C12   C24   S    
C37   H12   S    
N15   Ni4   S    
N20   Ni2   S    
C14   C15   A    
N1    N7    A    
C5    N19   A    
N12   Ni2   S    
C28   H10   S    
N18   Ni4   S    
N3    N5    A    
C22   H5    S    
C1    N1    A    
C23   C26   S    
Br1   C38   S    
C19   H3    S    
C1    C35   A    
C18   C24   A    
C11   H26   S    
C11   C13   A    
C31   N11   S    
H21   N13   S    
C30   H11   S    
C10   C17   A    
C21   H4    S    
N2    Ni3   S    
C16   N2    A    
H16   N9    S    
Br3   C2    S    
N14   N17   A    
H22   N13   S    
C22   C24   A    
C32   N6    A    
C36   N8    A    
C33   C35   A    
C26   N10   S    
C7    C13   S    
C27   C29   D    
C17   C34   S    
C32   N13   S    
Br2   C39   S    
C40   H23   S    
C4    N20   A    
C8    C20   S    
C8    C38   A    
C15   C17   A    
N17   Ni1   S    
N14   Ni3   S    
N19   Ni3   S    
C5    H24   S    
C5    C7    A    
C19   C20   A    
C39   N15   A    
N8    Ni1   S    
C18   C19   A    
C2    N17   A    
C6    C25   S    
C10   H25   S    
