data_mof_unit_11655.cif
_audit_creation_date              2012-10-26T21:33:26-0400
_audit_creation_method            fapswitch 2.2
_symmetry_space_group_name_H-M    P1
_symmetry_Int_Tables_number       1
_space_group_crystal_system       triclinic
_cell_length_a                    28.262478
_cell_length_b                    18.510755
_cell_length_c                    17.058715
_cell_angle_alpha                 89.931119
_cell_angle_beta                  60.711766
_cell_angle_gamma                 89.964419
_cell_volume                      7783.61577823

loop_
_atom_site_label
_atom_site_type_symbol
_atom_type_description
_atom_site_fract_x
_atom_site_fract_y
_atom_site_fract_z
_atom_type_partial_charge
C1    C     C_R   0.701631 0.268280 0.676011 0.893149
C2    C     C_R   0.091229 0.504651 0.525121 -0.029808
C3    C     C_R   0.198987 0.204745 0.896118 0.100062
C4    C     C_R   0.076625 0.096101 0.931738 0.912077
C5    C     C_R   0.924992 0.901117 0.066705 0.911771
C6    C     C_R   0.926144 0.100149 0.065406 0.914801
C7    C     C_R   0.075483 0.901828 0.932690 0.920250
C8    C     C_R   0.576705 0.595951 0.931661 0.919525
C9    C     C_R   0.424897 0.401264 0.066804 0.902231
C10   C     C_R   0.423519 0.596359 0.068058 0.918818
C11   C     C_R   0.573940 0.400030 0.934295 0.921002
C12   C     C_R   0.537408 0.136215 0.534527 0.017228
C13   C     C_R   0.409005 0.004772 0.475018 -0.029634
C14   C     C_R   0.446493 0.876094 0.512783 -0.019680
C15   C     C_R   0.460874 0.136330 0.470541 0.016549
C16   C     C_R   0.552145 0.876032 0.490847 -0.019641
C17   C     C_R   0.037627 0.635740 0.533849 0.017146
C18   C     C_R   0.949584 0.374794 0.505870 -0.014727
C19   C     C_R   0.960829 0.635796 0.470599 0.015886
C20   C     C_R   0.055181 0.376181 0.484089 -0.018536
C21   C     C_R   0.516831 0.202357 0.521232 0.061520
C22   C     C_R   0.472245 0.809655 0.509344 0.046113
C23   C     C_R   0.480587 0.202428 0.485521 0.063824
C24   C     C_R   0.590139 0.004661 0.527628 -0.027517
C25   C     C_R   0.526311 0.809621 0.494552 0.045903
C26   C     C_R   0.016594 0.701845 0.521533 0.062478
C27   C     C_R   0.976415 0.308730 0.499659 0.045858
C28   C     C_R   0.980190 0.701920 0.486184 0.060411
C29   C     C_R   0.030310 0.309484 0.485503 0.046706
C30   C     C_R   0.478226 0.071571 0.491202 -0.030845
C31   C     C_R   0.523711 0.940651 0.502900 -0.011782
C32   C     C_R   0.520145 0.071521 0.513581 -0.027887
C33   C     C_R   0.474851 0.940695 0.501228 -0.010930
C34   C     C_R   0.978816 0.570982 0.489900 -0.029457
C35   C     C_R   0.109065 0.382318 0.467377 0.224684
C36   C     C_R   0.025952 0.440362 0.497759 -0.011151
C37   C     C_R   0.020898 0.571079 0.511803 -0.029799
C38   C     C_R   0.976991 0.439919 0.496396 -0.012092
C39   C     C_R   0.955101 0.505136 0.486841 -0.021289
C40   C     C_R   0.045984 0.505582 0.511726 -0.020726
C41   C     C_R   0.454055 0.005902 0.489035 -0.021157
C42   C     C_R   0.544604 0.005821 0.514929 -0.019333
C43   C     C_R   0.879585 0.439299 0.490286 0.017631
C44   C     C_R   0.107177 0.568035 0.551299 0.018551
C45   C     C_R   0.121927 0.440700 0.507767 0.018999
C46   C     C_R   0.924885 0.631544 0.434632 0.221747
C47   C     C_R   0.892466 0.567806 0.450711 0.017510
C48   C     C_R   0.378875 0.940406 0.490932 0.019484
C49   C     C_R   0.606762 0.068224 0.552347 0.018140
C50   C     C_R   0.620484 0.940341 0.510729 0.018463
C51   C     C_R   0.392693 0.068357 0.449778 0.017674
C52   C     C_R   0.834767 0.438042 0.473425 -0.114813
C53   C     C_R   0.157192 0.566097 0.553610 -0.093038
C54   C     C_R   0.165385 0.438579 0.527659 -0.117544
C55   C     C_R   0.842344 0.565827 0.448779 -0.093551
C56   C     C_R   0.335093 0.938478 0.471625 -0.118628
C57   C     C_R   0.895118 0.379246 0.525180 0.230434
C58   C     C_R   0.657054 0.066147 0.553821 -0.093688
C59   C     C_R   0.664746 0.938417 0.528841 -0.119534
C60   C     C_R   0.342857 0.066237 0.446838 -0.093876
C61   C     C_R   0.817751 0.500855 0.451505 -0.313105
C62   C     C_R   0.181628 0.501020 0.551613 -0.313077
C63   C     C_R   0.318652 0.001114 0.448269 -0.313573
C64   C     C_R   0.681489 0.001015 0.551620 -0.312664
C65   C     C_3   0.191705 0.390426 0.322140 -0.788698
C66   C     C_3   0.936510 0.657372 0.283707 -0.784648
C67   C     C_3   0.818612 0.383992 0.676763 -0.800205
C68   C     C_R   0.074142 0.631352 0.568830 0.218820
C69   C     C_3   0.063507 0.656872 0.719032 -0.786325
C70   C     C_3   0.688383 0.887227 0.325851 -0.781145
C71   C     C_3   0.437246 0.158312 0.282951 -0.781181
C72   C     C_3   0.310031 0.888160 0.675695 -0.783708
C73   C     C_3   0.563906 0.158043 0.719107 -0.783033
C74   C     C_3   0.637330 0.129279 0.031768 -0.791067
C75   C     C_3   0.186969 0.605809 0.197002 -0.765900
C76   C     C_3   0.168014 0.192359 0.224605 -0.828230
C77   C     C_3   0.816261 0.609378 0.798093 -0.772075
C78   C     C_3   0.332135 0.694444 0.776640 -0.819417
C79   C     C_R   0.606399 0.881482 0.472488 0.225863
C80   C     C_3   0.774504 0.413690 0.095213 -0.805718
C81   C     C_3   0.667861 0.692129 0.224530 -0.824527
C82   C     C_3   0.316083 0.111672 0.797129 -0.770619
C83   C     C_R   0.425154 0.132063 0.434016 0.220439
C84   C     C_R   0.392469 0.881572 0.529904 0.224775
C85   C     C_R   0.298046 0.731262 0.324228 0.910974
C86   C     C_R   0.574006 0.131813 0.569386 0.217074
C87   C     C_R   0.721505 0.261999 0.951463 0.038380
C88   C     C_R   0.269055 0.721962 0.057489 0.068655
C89   C     C_R   0.285353 0.244268 0.043686 0.061298
C90   C     C_R   0.731430 0.720281 0.942118 0.068166
C91   C     C_R   0.214713 0.744476 0.956231 0.041028
C92   C     C_R   0.777463 0.236399 0.048929 0.064882
C93   C     C_R   0.785696 0.743351 0.043478 0.060413
C94   C     C_R   0.230907 0.221616 0.942548 0.068207
C95   C     C_R   0.721726 0.192292 0.984852 0.234903
C96   C     C_R   0.299482 0.265990 0.323749 0.892701
C97   C     C_R   0.212812 0.708371 0.096809 0.222835
C98   C     C_R   0.228255 0.249482 0.084902 0.216267
C99   C     C_R   0.788050 0.709527 0.901834 0.211424
C100  C     C_R   0.271643 0.751773 0.915689 0.225191
C101  C     C_R   0.777852 0.305690 0.014407 0.241786
C102  C     C_R   0.728583 0.748538 0.084525 0.215370
C103  C     C_R   0.287574 0.211113 0.901975 0.211734
C104  C     C_R   0.749974 0.180127 0.032591 -0.298867
C105  C     C_R   0.186235 0.720589 0.046240 -0.319432
C106  C     C_R   0.202409 0.242307 0.033147 -0.259469
C107  C     C_R   0.701913 0.731350 0.675780 0.910184
C108  C     C_R   0.814585 0.722387 0.952303 -0.270114
C109  C     C_R   0.297341 0.744865 0.967710 -0.264728
C110  C     C_R   0.750599 0.317593 0.965117 -0.329083
C111  C     C_R   0.702857 0.741208 0.032604 -0.261771
C112  C     C_R   0.314183 0.223719 0.952367 -0.269800
C113  C     C_R   0.642976 0.323693 0.948307 0.066904
C114  C     C_R   0.345117 0.657332 0.063720 0.059777
C115  C     C_R   0.356809 0.320578 0.052573 0.066015
C116  C     C_R   0.655841 0.655240 0.934960 0.057442
C117  C     C_R   0.144037 0.822967 0.946076 0.073263
C118  C     C_R   0.200419 0.765730 0.676337 0.891607
C119  C     C_R   0.856681 0.177261 0.051138 0.072761
C120  C     C_R   0.857245 0.819791 0.052165 0.067027
C121  C     C_R   0.155351 0.156299 0.935509 0.057036
C122  C     C_R   0.616248 0.345941 0.899863 -0.077660
C123  C     C_R   0.377859 0.644989 0.105167 -0.109676
C124  C     C_R   0.383230 0.345822 0.100851 -0.110765
C125  C     C_R   0.622597 0.644076 0.894241 -0.108097
C126  C     C_R   0.117303 0.846704 0.898126 -0.077938
C127  C     C_R   0.883469 0.153869 0.099617 -0.115841
C128  C     C_R   0.883415 0.845497 0.100671 -0.113057
C129  C     C_R   0.797871 0.230645 0.324246 0.910599
C130  C     C_R   0.122330 0.144582 0.894486 -0.105511
C131  C     C_R   0.633166 0.321600 0.814111 -0.313224
C132  C     C_R   0.364685 0.675778 0.186524 -0.297536
C133  C     C_R   0.367328 0.321165 0.186248 -0.285884
C134  C     C_R   0.635374 0.675713 0.813452 -0.297542
C135  C     C_R   0.132492 0.820867 0.813595 -0.306135
C136  C     C_R   0.866142 0.177351 0.185866 -0.291805
C137  C     C_R   0.867323 0.821158 0.186257 -0.286328
C138  C     C_R   0.135194 0.175969 0.813518 -0.297036
C139  C     C_R   0.678874 0.279802 0.771692 -0.059646
C140  C     C_R   0.799467 0.766022 0.323763 0.891633
C141  C     C_R   0.318314 0.715988 0.230237 -0.065072
C142  C     C_R   0.324308 0.274701 0.227222 -0.077659
C143  C     C_R   0.681731 0.715903 0.769742 -0.066331
C144  C     C_R   0.175488 0.774346 0.772966 -0.079050
C145  C     C_R   0.819828 0.217883 0.229058 -0.062744
C146  C     C_R   0.824318 0.774673 0.227242 -0.076839
C147  C     C_R   0.181451 0.216382 0.769908 -0.067012
C148  C     C_R   0.706354 0.256429 0.817966 -0.210675
C149  C     C_R   0.287536 0.733980 0.187685 -0.210941
C150  C     C_R   0.300713 0.244083 0.178595 -0.232697
C151  C     C_R   0.201844 0.231486 0.675806 0.911001
C152  C     C_R   0.712638 0.733494 0.812180 -0.208561
C153  C     C_R   0.198927 0.743848 0.822057 -0.208870
C154  C     C_R   0.791325 0.239612 0.183901 -0.219565
C155  C     C_R   0.800808 0.743858 0.178600 -0.233640
C156  C     C_R   0.212110 0.234484 0.812598 -0.207886
C157  C     C_R   0.691073 0.129895 0.535829 0.898992
C158  C     C_R   0.305411 0.872371 0.476705 0.921464
C159  C     C_R   0.308886 0.129912 0.464379 0.895659
C160  C     C_R   0.694561 0.872342 0.523355 0.920409
C161  C     C_R   0.191083 0.629899 0.535853 0.895993
C162  C     C_R   0.909430 0.503969 0.474543 -0.030253
C163  C     C_R   0.805161 0.372286 0.477668 0.921903
C164  C     C_R   0.808722 0.629724 0.465102 0.896185
C165  C     C_R   0.194752 0.372370 0.522950 0.922598
C166  C     C_R   0.689181 0.279275 0.906020 0.072599
C167  C     C_R   0.301055 0.705043 0.103735 0.099812
C168  C     C_R   0.315727 0.267825 0.091341 0.101669
C169  C     C_R   0.699572 0.703517 0.895562 0.100499
C170  C     C_R   0.184213 0.768410 0.908955 0.060357
C171  C     C_R   0.809763 0.219633 0.094595 0.122225
C172  C     C_R   0.816014 0.767205 0.091143 0.102517
H1    H     H_    0.781997 0.500079 0.443437 0.193890
H2    H     H_    0.750503 0.126313 0.057262 0.148960
H3    H     H_    0.747083 0.443200 0.076745 0.232271
H4    H     H_    0.669789 0.800817 0.195450 0.226376
H5    H     H_    0.651123 0.698059 0.297930 0.237627
H6    H     H_    0.696035 0.645215 0.202255 0.248001
H7    H     H_    0.633968 0.680763 0.210844 0.234992
H8    H     H_    0.357452 0.207805 0.778459 0.224215
H9    H     H_    0.338919 0.099530 0.724057 0.241951
H10   H     H_    0.273558 0.093411 0.823428 0.253692
H11   H     H_    0.334757 0.081250 0.831305 0.232806
H12   H     H_    0.617037 0.300646 0.079951 0.184098
H13   H     H_    0.858177 0.715488 0.920189 0.156546
H14   H     H_    0.651828 0.379549 0.043065 0.185367
H15   H     H_    0.351054 0.563392 0.996583 0.200860
H16   H     H_    0.390433 0.633673 0.929894 0.200404
H17   H     H_    0.409162 0.340315 0.919931 0.199673
H18   H     H_    0.360031 0.405502 0.973645 0.203513
H19   H     H_    0.650366 0.559713 0.999154 0.204047
H20   H     H_    0.611875 0.629289 0.068388 0.201153
H21   H     H_    0.112488 0.823386 0.082266 0.179454
H22   H     H_    0.169600 0.874917 0.024268 0.182687
H23   H     H_    0.870538 0.103616 0.953254 0.202420
H24   H     H_    0.158819 0.249581 0.065608 0.154273
H25   H     H_    0.916459 0.173679 0.920145 0.200513
H26   H     H_    0.910206 0.838841 0.919633 0.198975
H27   H     H_    0.860849 0.903960 0.972012 0.205457
H28   H     H_    0.150069 0.061084 0.000159 0.209819
H29   H     H_    0.111112 0.130584 0.068965 0.200951
H30   H     H_    0.612670 0.339372 0.777824 0.186803
H31   H     H_    0.388667 0.664333 0.218986 0.182703
H32   H     H_    0.386022 0.342482 0.223786 0.187635
H33   H     H_    0.611120 0.664902 0.781341 0.182774
H34   H     H_    0.113463 0.841630 0.776263 0.188157
H35   H     H_    0.886914 0.160019 0.221877 0.184501
H36   H     H_    0.885875 0.842719 0.223899 0.186844
H37   H     H_    0.216944 0.500051 0.560898 0.192919
H38   H     H_    0.111129 0.164742 0.781177 0.182806
H39   H     H_    0.742820 0.223970 0.784223 0.164624
H40   H     H_    0.251964 0.768105 0.220919 0.170821
H41   H     H_    0.269021 0.204244 0.210443 0.189749
H42   H     H_    0.747982 0.768038 0.779189 0.172875
H43   H     H_    0.230509 0.703796 0.790633 0.186971
H44   H     H_    0.753653 0.269384 0.218962 0.157549
H45   H     H_    0.769077 0.704084 0.210539 0.189327
H46   H     H_    0.247365 0.269185 0.779642 0.173408
H47   H     H_    0.034721 0.214928 0.541749 0.183145
H48   H     H_    0.283317 0.000203 0.439036 0.192662
H49   H     H_    0.060008 0.211850 0.428777 0.165682
H50   H     H_    0.992366 0.800260 0.426442 0.177613
H51   H     H_    0.939879 0.796660 0.533834 0.175290
H52   H     H_    0.974570 0.216116 0.437730 0.182749
H53   H     H_    0.948961 0.208771 0.550615 0.167111
H54   H     H_    0.001717 0.798071 0.586453 0.178704
H55   H     H_    0.054247 0.798886 0.478983 0.174013
H56   H     H_    0.529945 0.715416 0.552261 0.182704
H57   H     H_    0.555174 0.711308 0.439283 0.165525
H58   H     H_    0.493627 0.300267 0.424360 0.180717
H59   H     H_    0.717169 0.000074 0.559886 0.193751
H60   H     H_    0.440926 0.297788 0.531623 0.174330
H61   H     H_    0.468581 0.715557 0.451728 0.182760
H62   H     H_    0.443377 0.711312 0.564692 0.165726
H63   H     H_    0.502392 0.299053 0.585026 0.178662
H64   H     H_    0.555091 0.298931 0.477704 0.174604
H65   H     H_    0.138324 0.305290 0.365471 0.247564
H66   H     H_    0.222630 0.356355 0.267928 0.258218
H67   H     H_    0.213333 0.424518 0.347886 0.241022
H68   H     H_    0.172123 0.425419 0.293207 0.225766
H69   H     H_    0.913970 0.733876 0.388207 0.271938
H70   H     H_    0.751522 0.370983 0.938224 0.154433
H71   H     H_    0.960479 0.697053 0.229877 0.237457
H72   H     H_    0.896092 0.651589 0.288546 0.224266
H73   H     H_    0.958220 0.604751 0.264857 0.244814
H74   H     H_    0.868659 0.296145 0.620997 0.240869
H75   H     H_    0.791581 0.348992 0.734019 0.239351
H76   H     H_    0.792794 0.418447 0.659656 0.245206
H77   H     H_    0.842343 0.418529 0.698325 0.232659
H78   H     H_    0.086481 0.733185 0.614075 0.272159
H79   H     H_    0.039755 0.696545 0.772908 0.237271
H80   H     H_    0.104026 0.650864 0.713772 0.223361
H81   H     H_    0.340774 0.753524 0.935831 0.153568
H82   H     H_    0.041705 0.604319 0.738101 0.245272
H83   H     H_    0.633737 0.803462 0.371728 0.243861
H84   H     H_    0.719101 0.852172 0.272779 0.258350
H85   H     H_    0.710311 0.921908 0.350455 0.239041
H86   H     H_    0.669038 0.921541 0.295919 0.224152
H87   H     H_    0.413634 0.234248 0.388234 0.272174
H88   H     H_    0.460467 0.198748 0.229685 0.239509
H89   H     H_    0.396941 0.151212 0.287722 0.222650
H90   H     H_    0.459924 0.106419 0.263348 0.244526
H91   H     H_    0.364362 0.803991 0.631130 0.245234
H92   H     H_    0.357795 0.216976 0.920066 0.156061
H93   H     H_    0.279054 0.853472 0.728988 0.259056
H94   H     H_    0.288412 0.922791 0.650367 0.239942
H95   H     H_    0.329300 0.922590 0.705577 0.224263
H96   H     H_    0.586610 0.233914 0.613752 0.272655
H97   H     H_    0.540213 0.197864 0.772821 0.236300
H98   H     H_    0.604506 0.152246 0.713583 0.226417
H99   H     H_    0.542153 0.105466 0.738599 0.244271
H100  H     H_    0.713930 0.084758 0.961692 0.220464
H101  H     H_    0.619810 0.082398 0.014276 0.239154
H102  H     H_    0.616142 0.178621 0.028404 0.250539
H103  H     H_    0.659285 0.748609 0.064849 0.153915
H104  H     H_    0.630258 0.121914 0.101377 0.236751
H105  H     H_    0.142819 0.699962 0.219573 0.222336
H106  H     H_    0.164273 0.591314 0.269435 0.240045
H107  H     H_    0.229964 0.589631 0.170373 0.252836
H108  H     H_    0.169444 0.575478 0.161036 0.233915
H109  H     H_    0.169495 0.301241 0.196433 0.226665
H110  H     H_    0.152543 0.197349 0.297770 0.238635
H111  H     H_    0.196083 0.145342 0.200463 0.248717
H112  H     H_    0.133326 0.181759 0.212718 0.235288
H113  H     H_    0.858019 0.705295 0.778516 0.224301
H114  H     H_    0.143102 0.710207 0.077111 0.149791
H115  H     H_    0.839180 0.596684 0.725176 0.242058
H116  H     H_    0.773675 0.591404 0.824363 0.252996
H117  H     H_    0.834665 0.579132 0.832832 0.232587
H118  H     H_    0.330619 0.803373 0.804172 0.224482
H119  H     H_    0.348189 0.699193 0.703300 0.236208
H120  H     H_    0.303993 0.647501 0.800567 0.248878
H121  H     H_    0.366456 0.683773 0.789487 0.234371
H122  H     H_    0.833073 0.388578 0.965856 0.225778
H123  H     H_    0.801042 0.453452 0.103715 0.245010
H124  H     H_    0.749887 0.385450 0.160241 0.243589
N1    N     N_3   0.057590 0.243061 0.481599 -0.474344
N2    N     N_2   0.930696 0.683293 0.368014 -0.287525
N3    N     N_2   0.854739 0.339756 0.600685 -0.257230
N4    N     N_2   0.069067 0.683010 0.634915 -0.287303
N5    N     N_2   0.647788 0.842910 0.397353 -0.253966
N6    N     N_2   0.431007 0.184042 0.367605 -0.286243
N7    N     N_2   0.350627 0.843381 0.604881 -0.254016
N8    N     N_2   0.569228 0.183769 0.634988 -0.287237
N9    N     N_2   0.694835 0.133799 0.969006 -0.306923
N10   N     N_2   0.182636 0.682759 0.186826 -0.314965
N11   N     N_2   0.195867 0.258147 0.179238 -0.318556
N12   N     N_3   0.959821 0.769061 0.472708 -0.481946
N13   N     N_2   0.818671 0.686278 0.810913 -0.314742
N14   N     N_2   0.304191 0.760358 0.821360 -0.317710
N15   N     N_2   0.807652 0.362759 0.025519 -0.300460
N16   N     N_2   0.696046 0.757635 0.178783 -0.319004
N17   N     N_2   0.318188 0.188483 0.810794 -0.315287
N18   N     N_3   0.623075 0.346155 0.039805 -0.438246
N19   N     N_3   0.353222 0.619044 0.984767 -0.464001
N20   N     N_3   0.368591 0.350195 0.967030 -0.474520
N21   N     N_3   0.648648 0.615092 0.012297 -0.465844
N22   N     N_3   0.133126 0.858503 0.028128 -0.441805
N23   N     N_3   0.950900 0.241788 0.499392 -0.474852
N24   N     N_3   0.875695 0.158935 0.958660 -0.466784
N25   N     N_3   0.869507 0.848691 0.966077 -0.476226
N26   N     N_3   0.148051 0.116515 0.013143 -0.464327
N27   N     N_3   0.035095 0.769066 0.538580 -0.481335
N28   N     N_3   0.553003 0.742898 0.491667 -0.473988
N29   N     N_3   0.460801 0.269625 0.470904 -0.480838
N30   N     N_3   0.445532 0.742982 0.512299 -0.474152
N31   N     N_3   0.535651 0.269575 0.537636 -0.482102
N32   N     N_2   0.151441 0.344849 0.392375 -0.254853
O1    O     O_R   0.746490 0.236330 0.638080 -0.630290
O2    O     O_R   0.325830 0.813840 0.483730 -0.596902
O3    O     O_R   0.325830 0.186160 0.483730 -0.633768
O4    O     O_R   0.674170 0.813840 0.516270 -0.596458
O5    O     O_R   0.174170 0.686160 0.516270 -0.634331
O6    O     O_R   0.825830 0.313840 0.483730 -0.600572
O7    O     O_R   0.825830 0.686160 0.483730 -0.632946
O8    O     O_R   0.174170 0.313840 0.516270 -0.597841
O9    O     O_R   0.739960 0.127620 0.525000 -0.630758
O10   O     O_R   0.260040 0.872380 0.475000 -0.636336
O11   O     O_R   0.260040 0.127620 0.475000 -0.632135
O12   O     O_R   0.253510 0.763670 0.361920 -0.634641
O13   O     O_R   0.739960 0.872380 0.525000 -0.636467
O14   O     O_R   0.239960 0.627620 0.525000 -0.632286
O15   O     O_R   0.760040 0.372380 0.475000 -0.635879
O16   O     O_R   0.760040 0.627620 0.475000 -0.632715
O17   O     O_R   0.239960 0.372380 0.525000 -0.637053
O18   O     O_R   0.680700 0.294870 0.629350 -0.639879
O19   O     O_R   0.319300 0.705130 0.370650 -0.626373
O20   O     O_R   0.319300 0.294870 0.370650 -0.639718
O21   O     O_R   0.680700 0.705130 0.629350 -0.626225
O22   O     O_R   0.180700 0.794870 0.629350 -0.638802
O23   O     O_R   0.253510 0.236330 0.361920 -0.621815
O24   O     O_R   0.819300 0.205130 0.370650 -0.626749
O25   O     O_R   0.819300 0.794870 0.370650 -0.639249
O26   O     O_R   0.180700 0.205130 0.629350 -0.626149
O27   O     O_R   0.062020 0.072840 0.007170 -0.641007
O28   O     O_R   0.937980 0.927160 0.992830 -0.638832
O29   O     O_R   0.937980 0.072840 0.992830 -0.639474
O30   O     O_R   0.062020 0.927160 0.007170 -0.598205
O31   O     O_R   0.562020 0.572840 0.007170 -0.640638
O32   O     O_R   0.437980 0.427160 0.992830 -0.643637
O33   O     O_R   0.437980 0.572840 0.992830 -0.641121
O34   O     O_R   0.746490 0.763670 0.638080 -0.634250
O35   O     O_R   0.562020 0.427160 0.007170 -0.598514
O36   O     O_R   0.947860 0.073950 0.109290 -0.617660
O37   O     O_R   0.052140 0.926050 0.890710 -0.631695
O38   O     O_R   0.052140 0.073950 0.890710 -0.621808
O39   O     O_R   0.947860 0.926050 0.109290 -0.618078
O40   O     O_R   0.447860 0.573950 0.109290 -0.618773
O41   O     O_R   0.552140 0.426050 0.890710 -0.631035
O42   O     O_R   0.552140 0.573950 0.890710 -0.617944
O43   O     O_R   0.447860 0.426050 0.109290 -0.618452
O44   O     O_R   0.246490 0.736330 0.638080 -0.622529
O45   O     O_R   0.753510 0.263670 0.361920 -0.636760
O46   O     O_R   0.753510 0.736330 0.361920 -0.621931
O47   O     O_R   0.246490 0.263670 0.638080 -0.633951
O48   O     O_R   0.674170 0.186160 0.516270 -0.635876
Zn1   Zn    Zn3+2 0.792340 0.208750 0.507670 0.960684
Zn2   Zn    Zn3+2 0.494040 0.500000 0.919480 0.908802
Zn3   Zn    Zn3+2 0.005960 0.000000 0.080520 0.931079
Zn4   Zn    Zn3+2 0.994040 0.000000 0.919480 0.909368
Zn5   Zn    Zn3+2 0.207660 0.791250 0.492330 0.936638
Zn6   Zn    Zn3+2 0.207660 0.208750 0.492330 0.961401
Zn7   Zn    Zn3+2 0.792340 0.791250 0.507670 0.937920
Zn8   Zn    Zn3+2 0.292340 0.708750 0.507670 0.961629
Zn9   Zn    Zn3+2 0.707660 0.291250 0.492330 0.934277
Zn10  Zn    Zn3+2 0.707660 0.708750 0.492330 0.962030
Zn11  Zn    Zn3+2 0.292340 0.291250 0.507670 0.937900
Zn12  Zn    Zn3+2 0.505960 0.500000 0.080520 0.932306

loop_
_geom_bond_atom_site_label_1
_geom_bond_atom_site_label_2
_ccdc_geom_bond_type
C31   C42   A    
C163  O6    A    
O16   Zn10  S    
O25   Zn7   S    
C50   C79   A    
C14   C33   A    
C19   C46   A    
C16   C31   A    
C82   H9    S    
C97   N10   S    
C27   N23   S    
C124  C133  A    
C129  O24   A    
C50   C59   A    
H52   N23   S    
C76   H110  S    
C35   N32   S    
C52   C61   A    
H28   N26   S    
O12   Zn5   S    
C24   C42   A    
O6    Zn1   S    
O38   Zn4   S    
C134  C143  A    
C13   C51   A    
C117  C170  A    
C80   H124  S    
O2    Zn8   S    
C113  C122  A    
C14   C84   A    
C91   C100  A    
C65   N32   S    
C117  C126  A    
C129  C145  S    
C88   C97   A    
C97   C105  A    
C100  C109  A    
H47   N1    S    
C164  O16   A    
C58   C64   A    
C102  C111  A    
C9    O32   A    
H105  N10   S    
C107  O34   A    
C158  O2    A    
C8    O31   A    
O39   Zn3   S    
C85   O12   A    
C137  C146  A    
C127  C136  A    
C73   H99   S    
C4    O27   A    
C70   H84   S    
C113  C166  A    
C134  H33   S    
C4    C130  S    
C101  C110  A    
C163  O15   A    
C74   H102  S    
C103  C112  A    
O46   Zn10  S    
C136  H35   S    
C100  N14   S    
C59   C160  S    
C110  H70   S    
C101  N15   S    
C150  C168  A    
C73   N8    S    
C72   H94   S    
C85   O19   A    
C159  O11   A    
C74   N9    S    
C21   N31   S    
C135  H34   S    
C26   N27   S    
C67   H77   S    
C86   N8    S    
C70   N5    S    
C54   C165  S    
C107  C143  S    
C35   C45   A    
C51   C83   A    
C153  H43   S    
C15   C30   A    
H18   N20   S    
C16   C25   A    
C132  H31   S    
C74   H101  S    
C98   N11   S    
C76   H112  S    
C46   N2    S    
C10   O33   A    
C6    C127  S    
C64   H59   S    
H69   N2    S    
C98   C106  A    
C12   C86   A    
C96   O23   A    
C18   C38   A    
O15   Zn9   S    
H113  N13   S    
C82   H11   S    
H25   N24   S    
C3    C156  A    
C138  H38   S    
C7    C126  S    
C69   H79   S    
C52   C163  S    
O42   Zn2   S    
C2    C40   A    
O32   Zn2   S    
H8    N17   S    
C95   N9    S    
C3    C121  A    
C119  C171  A    
C77   N13   S    
C93   C172  S    
C123  C132  A    
H14   N18   S    
C91   C105  A    
C149  H40   S    
C121  C130  A    
C114  C167  A    
C87   C110  A    
C99   C108  A    
C68   N4    S    
C133  C142  A    
C66   H72   S    
C37   C40   A    
C11   O35   A    
C38   C39   A    
C43   C52   A    
C66   H71   S    
C5    C128  S    
C53   C62   A    
C131  H30   S    
C4    O38   A    
C81   N16   S    
C47   C162  A    
C67   H75   S    
C70   H85   S    
H122  N15   S    
C2    C44   A    
C22   C25   A    
C87   C95   A    
C153  C170  A    
C30   C41   A    
C29   N1    S    
C71   H90   S    
H63   N31   S    
C28   N12   S    
C90   C111  A    
C77   H115  S    
H22   N22   S    
O3    Zn11  S    
C69   H82   S    
H56   N28   S    
C2    C45   A    
C151  O47   A    
C139  C148  A    
C34   C39   A    
O20   Zn11  S    
C154  H44   S    
C85   C141  S    
C75   N10   S    
C92   C104  A    
C78   H121  S    
O34   Zn7   S    
C66   N2    S    
O9    Zn1   S    
H83   N5    S    
C147  C151  S    
H109  N11   S    
O10   Zn5   S    
C115  N20   S    
C23   N29   S    
H20   N21   S    
C44   C53   A    
C39   C162  A    
C19   C28   A    
C24   C50   A    
C114  C123  A    
O1    Zn1   S    
C116  C125  A    
O44   Zn8   S    
C157  O48   A    
C65   H66   S    
O13   Zn7   S    
C11   C122  S    
C145  C154  A    
O11   Zn6   S    
C122  C131  A    
C6    O29   A    
C132  C141  A    
O7    Zn7   S    
C67   N3    S    
C49   C86   A    
C80   H3    S    
C118  O44   A    
C107  O21   A    
C58   C157  S    
O37   Zn4   S    
C157  O9    A    
C82   H10   S    
C103  N17   S    
C8    O42   A    
C89   C98   A    
C14   C22   A    
C1    O1    A    
C129  O45   A    
O8    Zn6   S    
H74   N3    S    
C140  O46   A    
C55   C61   A    
C90   C169  S    
C154  C171  A    
C81   H6    S    
C131  C139  A    
C43   C57   A    
C43   C162  A    
H53   N23   S    
C51   C60   A    
O36   Zn3   S    
C115  C168  A    
C7    O37   A    
C137  H36   S    
C119  C127  A    
C125  C134  A    
C160  O4    A    
C34   C37   A    
C148  C166  A    
C90   C99   A    
C149  C167  A    
C60   C159  S    
C165  O17   A    
C13   C41   A    
C78   H119  S    
H50   N12   S    
C89   C112  A    
C161  O5    A    
O24   Zn1   S    
H12   N18   S    
C73   H98   S    
C93   C108  A    
H27   N25   S    
C27   C29   A    
C117  N22   S    
C82   N17   S    
C151  O26   A    
C119  N24   S    
C150  H41   S    
O18   Zn9   S    
C155  C172  A    
C94   C106  A    
C146  C155  A    
C78   N14   S    
C71   N6    S    
C65   H68   S    
H15   N19   S    
O31   Zn12  S    
C1    C139  S    
H57   N28   S    
H62   N30   S    
O43   Zn12  S    
C11   O41   A    
C114  N19   S    
C75   H106  S    
O14   Zn8   S    
C108  H13   S    
H100  N9    S    
C81   H7    S    
C10   C123  S    
C148  H39   S    
C140  C146  S    
C6    O36   A    
H23   N24   S    
C15   C83   A    
C54   C62   A    
C57   N3    S    
O28   Zn4   S    
C63   H48   S    
C89   C168  S    
C158  O10   A    
H51   N12   S    
C18   C57   A    
C120  N25   S    
C161  O14   A    
C88   C167  S    
H21   N22   S    
C10   O40   A    
C147  C156  A    
C92   C101  A    
O27   Zn3   S    
H61   N30   S    
C94   C103  A    
H118  N14   S    
C21   C23   A    
C72   N7    S    
C113  N18   S    
O30   Zn3   S    
O5    Zn5   S    
C46   C47   A    
C17   C68   A    
C115  C124  A    
O35   Zn12  S    
C7    O30   A    
O17   Zn11  S    
C93   C102  A    
C106  H24   S    
C120  C128  A    
H16   N19   S    
C75   H108  S    
H87   N6    S    
C159  O3    A    
C16   C79   A    
C33   C41   A    
C142  C150  A    
C36   C38   A    
C152  C169  A    
C152  H42   S    
C109  H81   S    
C72   H93   S    
C22   N30   S    
O33   Zn2   S    
C155  H45   S    
C81   H5    S    
C20   C36   A    
C8    C125  S    
C70   H86   S    
C32   C42   A    
H17   N20   S    
C66   H73   S    
C71   H89   S    
C17   C26   A    
H60   N29   S    
C76   H111  S    
C5    O28   A    
H96   N8    S    
C141  C149  A    
H49   N1    S    
C59   C64   A    
C60   C63   A    
C160  O13   A    
C55   C164  S    
C118  C144  S    
C99   N13   S    
C77   H117  S    
C87   C166  S    
C92   C171  S    
C9    C124  S    
C144  C153  A    
C56   C158  S    
C80   H123  S    
C69   H80   S    
O4    Zn10  S    
O47   Zn11  S    
C31   C33   A    
C111  H103  S    
C118  O22   A    
O45   Zn9   S    
C79   N5    S    
C136  C145  A    
C76   N11   S    
C133  H32   S    
C15   C23   A    
C102  N16   S    
C12   C32   A    
C20   C35   A    
H26   N25   S    
H54   N27   S    
C20   C29   A    
O29   Zn4   S    
O19   Zn8   S    
O41   Zn2   S    
O48   Zn9   S    
C36   C40   A    
C61   H1    S    
C80   N15   S    
C120  C172  A    
C71   H88   S    
H19   N21   S    
C12   C21   A    
C69   N4    S    
C72   H95   S    
C49   C58   A    
C48   C84   A    
C75   H107  S    
H91   N7    S    
C83   N6    S    
C128  C137  A    
C1    O18   A    
C84   N7    S    
C67   H76   S    
C138  C147  A    
C56   C63   A    
C17   C37   A    
O40   Zn12  S    
C104  H2    S    
C135  C144  A    
C112  H92   S    
C45   C54   A    
H78   N4    S    
C44   C68   A    
C88   C109  A    
C77   H116  S    
H55   N27   S    
C95   C104  A    
C47   C55   A    
O22   Zn5   S    
C24   C49   A    
C48   C56   A    
C143  C152  A    
C91   C170  S    
C96   O20   A    
C18   C27   A    
C19   C34   A    
C126  C135  A    
C13   C48   A    
C116  N21   S    
C78   H120  S    
C5    O39   A    
C26   C28   A    
C105  H114  S    
C73   H97   S    
H29   N26   S    
C30   C32   A    
O23   Zn6   S    
C53   C161  S    
C140  O25   A    
C25   N28   S    
H64   N31   S    
C74   H104  S    
C165  O8    A    
C62   H37   S    
C116  C169  A    
C3    C94   S    
C96   C142  S    
C9    O43   A    
C121  N26   S    
O26   Zn6   S    
H58   N29   S    
H4    N16   S    
C65   H67   S    
H65   N32   S    
C156  H46   S    
C164  O7    A    
O21   Zn10  S    
C130  C138  A    
