data_mof_unit_7018.cif
_audit_creation_date              2013-03-05T16:11:39-0500
_audit_creation_method            fapswitch 2.2
_symmetry_space_group_name_H-M    P1
_symmetry_Int_Tables_number       1
_space_group_crystal_system       triclinic
_cell_length_a                    10.773956
_cell_length_b                    9.553957
_cell_length_c                    19.379847
_cell_angle_alpha                 89.872852
_cell_angle_beta                  90.156463
_cell_angle_gamma                 90.704324
_cell_volume                      1994.6805493

loop_
_atom_site_label
_atom_site_type_symbol
_atom_site_description
_atom_site_fract_x
_atom_site_fract_y
_atom_site_fract_z
_atom_type_partial_charge
O1    O     O_R   0.317570 0.620260 0.500040 -0.582059
O2    O     O_R   0.317570 0.379740 0.500040 -0.577527
C1    C     C_R   0.260213 0.499589 0.499025 0.836049
O3    O     O_R   0.499870 0.620300 0.400170 -0.607357
O4    O     O_R   0.499870 0.379700 0.400170 -0.579451
C2    C     C_R   0.499719 0.500141 0.367803 0.840101
Cu1   Cu    Cu3+1 0.499860 0.642410 0.500030 0.945317
Cu2   Cu    Cu3+1 0.499860 0.357590 0.500030 0.945944
O5    O     O_R   0.682190 0.620260 0.500020 -0.585005
O6    O     O_R   0.682190 0.379740 0.500020 -0.629372
O7    O     O_R   0.499890 0.620220 0.599880 -0.597996
O8    O     O_R   0.499890 0.379780 0.599880 -0.622754
C3    C     C_R   0.739228 0.500619 0.497615 0.910397
C4    C     C_R   0.500027 0.500025 0.632567 0.863808
C5    C     C_R   0.495287 0.627329 0.255329 -0.178428
C6    C     C_R   0.503209 0.373950 0.255360 -0.099294
H1    H     H_    0.492152 0.726575 0.282121 0.141614
H2    H     H_    0.506466 0.274478 0.282171 0.143791
C7    C     C_R   0.494989 0.627633 0.183443 -0.133611
C8    C     C_R   0.503020 0.374256 0.183484 -0.132534
H3    H     H_    0.491798 0.727153 0.156699 0.159319
H4    H     H_    0.506046 0.274935 0.156779 0.157290
C9    C     C_R   0.498928 0.501100 0.146789 0.050203
C10   C     C_R   0.499425 0.500484 0.291928 0.004420
N1    N     N_R   0.505505 0.379508 0.035155 -0.223641
N2    N     N_R   0.492465 0.623332 0.034945 -0.225560
N3    N     N_R   0.505692 0.379625 0.966548 -0.221855
N4    N     N_R   0.492602 0.623447 0.966317 -0.221711
C11   C     C_R   0.499253 0.501573 0.930750 0.430171
C12   C     C_R   0.498915 0.501346 0.070735 0.423166
C13   C     C_R   0.489951 0.627215 0.817677 -0.120040
C14   C     C_R   0.509531 0.375460 0.818306 -0.109898
H5    H     H_    0.482004 0.726435 0.844103 0.164641
H6    H     H_    0.517350 0.276456 0.845181 0.168030
C15   C     C_R   0.490202 0.626526 0.745778 -0.097896
C16   C     C_R   0.509836 0.375426 0.746465 -0.123687
H7    H     H_    0.482173 0.725051 0.719532 0.142305
H8    H     H_    0.518208 0.276961 0.720777 0.184617
C17   C     C_R   0.500066 0.500613 0.709049 -0.002636
C18   C     C_R   0.499555 0.501487 0.854704 0.035454
C19   C     C_3   0.069650 0.439547 0.567248 -0.250557
C20   C     C_3   0.071103 0.404792 0.437549 -0.210997
H9    H     H_    0.096109 0.328186 0.569680 0.207247
H10   H     H_    0.099135 0.295087 0.448888 0.150449
C21   C     C_3   0.925009 0.440762 0.566572 0.083013
C22   C     C_3   0.925634 0.405899 0.437006 0.107723
H11   H     H_    0.892466 0.330045 0.570755 0.112940
H12   H     H_    0.892783 0.296642 0.446667 0.118560
H13   H     H_    0.105410 0.720361 0.529651 0.217812
H14   H     H_    0.108786 0.697390 0.438742 0.166659
H15   H     H_    0.898278 0.721049 0.526903 0.254228
H16   H     H_    0.897855 0.695148 0.436003 0.203027
C23   C     C_3   0.072479 0.650722 0.487359 -0.412732
C24   C     C_3   0.121593 0.499407 0.497718 -0.113218
C25   C     C_3   0.877194 0.500605 0.496625 -0.019245
C26   C     C_3   0.930620 0.650742 0.485842 -0.344939
C27   C     C_3   0.614214 0.084578 0.535505 -0.049851
C28   C     C_3   0.618795 0.918539 0.530589 -0.095385
H17   H     H_    0.695866 0.121424 0.504995 0.100158
H18   H     H_    0.693749 0.895790 0.492599 0.128110
C29   C     C_3   0.384152 0.081016 0.532606 -0.106259
C30   C     C_3   0.388883 0.915288 0.537380 -0.073917
C31   C     C_3   0.501662 0.083696 0.430001 -0.250705
C32   C     C_3   0.493749 0.916820 0.430073 -0.262975
N5    N     N_3   0.500250 0.143650 0.501520 -0.193933
N6    N     N_3   0.500250 0.856350 0.501520 -0.203609
H19   H     H_    0.422927 0.125250 0.399194 0.177207
H20   H     H_    0.406442 0.882111 0.404056 0.153301
H21   H     H_    0.587071 0.118507 0.402330 0.166548
H22   H     H_    0.570259 0.875638 0.397791 0.167675
H23   H     H_    0.305858 0.104680 0.496637 0.148696
H24   H     H_    0.304681 0.876692 0.509435 0.153448
C33   C     C_2   0.642882 0.145695 0.606165 0.356386
H25   H     H_    0.694920 0.242972 0.610111 0.142052
O9    O     O_2   0.612445 0.086919 0.659548 -0.618916
C34   C     C_2   0.668659 0.849831 0.595329 0.543024
H26   H     H_    0.609718 0.813621 0.636070 0.093375
O10   O     O_2   0.780020 0.851508 0.606923 -0.533752
C35   C     C_2   0.342453 0.146956 0.599347 0.447013
H27   H     H_    0.406245 0.170704 0.640104 0.123433
O11   O     O_2   0.232105 0.156230 0.611901 -0.546646
C36   C     C_2   0.372561 0.863193 0.610424 0.429773
H28   H     H_    0.429051 0.906181 0.651536 0.057219
O12   O     O_2   0.288590 0.781922 0.625120 -0.565937
C37   C     C_2   0.125870 0.510571 0.629949 0.567741
H29   H     H_    0.104794 0.618724 0.641168 0.160428
O13   O     O_2   0.193744 0.446409 0.669027 -0.516749
C38   C     C_2   0.128844 0.443138 0.368670 0.475943
H30   H     H_    0.113732 0.545261 0.345821 0.102973
O14   O     O_2   0.193172 0.359289 0.338110 -0.558886
Cl1   Cl    Cl    0.855637 0.526720 0.639741 -0.608891
Cl2   Cl    Cl    0.857352 0.452551 0.355019 -0.652392

loop_
_geom_bond_atom_site_label_1
_geom_bond_atom_site_label_2
_geom_bond_distance
_ccdc_geom_bond_type
C25   C26   1.552915 S    
C31   N5    1.501079 S    
N3    C11   1.357079 A    
C33   O9    1.219796 D    
C33   H25   1.082218 S    
C38   O14   1.221002 D    
C7    C9    1.404646 A    
C28   C34   1.514932 S    
Cu1   Cu2   2.721157 S    
C23   C24   1.557938 S    
Cu1   O7    1.946188 S    
C32   H20   1.113328 S    
N4    C11   1.357163 A    
C15   H7    1.073258 S    
C34   O10   1.219977 D    
O4    C2    1.309351 A    
C1    C24   1.493610 S    
C27   H17   1.114330 S    
C22   Cl2   1.806369 S    
C28   H18   1.117887 S    
C13   C18   1.402616 A    
Cu1   O5    1.978365 S    
H15   C26   1.102490 S    
C20   C22   1.567448 S    
C27   C33   1.519328 S    
O5    C3    1.305382 A    
C4    C17   1.482222 S    
C5    C7    1.393135 A    
C28   N6    1.510137 S    
C31   H21   1.113246 S    
C22   C25   1.563826 S    
C13   H5    1.082857 S    
C32   H22   1.112474 S    
C6    C8    1.392935 A    
C29   H23   1.117747 S    
C21   H11   1.113135 S    
C30   C36   1.509494 S    
Cu2   N5    2.044169 S    
C6    C10   1.403753 A    
C19   H9    1.105720 S    
C20   H10   1.115551 S    
O3    Cu1   1.947232 S    
C22   H12   1.113706 S    
C37   O13   1.220653 D    
C31   H19   1.112708 S    
H14   C23   1.111483 S    
C30   N6    1.504206 S    
C9    C12   1.473915 S    
C34   H26   1.068854 S    
O3    C2    1.309390 A    
C27   N5    1.506945 S    
C35   O11   1.218508 D    
C37   H29   1.083310 S    
C35   H27   1.068518 S    
O1    C1    1.301505 A    
C32   N6    1.500924 S    
C15   C17   1.404439 A    
C8    C9    1.404842 A    
Cu2   O8    1.947123 S    
C2    C10   1.470431 S    
C30   H24   1.114559 S    
C6    H2    1.083009 S    
C5    C10   1.403937 A    
C8    H4    1.082753 S    
N2    C12   1.357321 A    
C36   O12   1.218869 D    
C13   C15   1.393438 A    
C20   C38   1.516524 S    
C14   C16   1.392293 A    
C23   C26   1.528587 S    
N1    C12   1.356962 A    
C5    H1    1.082994 S    
C7    H3    1.082761 S    
O1    Cu1   1.972766 S    
C16   C17   1.402209 A    
O2    Cu2   1.977939 S    
O8    C4    1.313107 A    
O6    C3    1.302310 A    
O4    Cu2   1.946300 S    
N1    N3    1.329606 A    
C19   C37   1.514404 S    
N2    N4    1.330009 A    
C16   H8    1.070217 S    
O2    C1    1.307897 A    
C20   C24   1.569038 S    
Cu1   N6    2.044194 S    
C27   C28   1.590781 S    
C29   C35   1.511766 S    
H13   C23   1.111456 S    
C11   C18   1.473771 S    
O7    C4    1.310262 A    
C14   C18   1.402226 A    
C29   C30   1.587287 S    
C21   Cl1   1.808273 S    
C19   C24   1.564859 S    
C31   C32   1.595556 S    
C29   N5    1.506560 S    
C38   H30   1.084492 S    
C21   C25   1.558783 S    
Cu2   O6    1.973192 S    
C36   H28   1.080073 S    
C19   C21   1.558569 S    
H16   C26   1.112435 S    
C14   H6    1.082862 S    
C3    C25   1.486626 S    
