data_mof_unit_5997.cif
_audit_creation_date              2012-12-10T17:16:34-0500
_audit_creation_method            fapswitch 2.2
_symmetry_space_group_name_H-M    P1
_symmetry_Int_Tables_number       1
_space_group_crystal_system       triclinic
_cell_length_a                    10.151249
_cell_length_b                    10.712923
_cell_length_c                    10.648115
_cell_angle_alpha                 89.127268
_cell_angle_beta                  94.00501
_cell_angle_gamma                 83.054168
_cell_volume                      1146.34427935

loop_
_atom_site_label
_atom_site_type_symbol
_atom_type_description
_atom_site_fract_x
_atom_site_fract_y
_atom_site_fract_z
_atom_type_partial_charge
C1    C     C_R   0.444659 0.499953 0.267341 0.950493
C2    C     C_R   0.502060 0.740445 0.496749 0.915829
C3    C     C_R   0.663545 0.114684 0.309640 -0.235679
C4    C     C_R   0.336400 0.912161 0.644833 -0.197526
C5    C     C_R   0.758131 0.040634 0.246538 -0.325100
C6    C     C_R   0.216238 0.980344 0.672507 -0.332179
C7    C     C_R   0.758754 0.911072 0.246120 0.480297
C8    C     C_R   0.164542 0.086524 0.598023 0.481340
C9    C     C_R   0.659569 0.856568 0.306387 0.433092
C10   C     C_R   0.245083 0.133932 0.511365 0.497789
C11   C     C_R   0.581006 0.927669 0.392882 -0.112699
C12   C     C_R   0.554677 0.486373 0.733250 0.921537
C13   C     C_R   0.377010 0.075682 0.502404 -0.127597
C14   C     C_R   0.577176 0.059686 0.387018 0.005445
C15   C     C_R   0.408359 0.953079 0.546079 -0.000529
C16   C     C_R   0.503041 0.874746 0.482587 -0.142727
C17   C     C_R   0.478551 0.133248 0.450257 -0.129313
C18   C     C_3   0.941985 0.072116 0.575080 -0.192979
C19   C     C_3   0.937254 0.762355 0.242561 -0.302708
C20   C     C_3   0.528465 0.769923 0.159827 -0.286503
C21   C     C_3   0.170065 0.176779 0.307307 -0.282230
C22   C     C_3   0.869553 0.405134 0.247355 -0.263863
C23   C     C_2   0.412508 0.479138 0.135850 -0.410652
C24   C     C_3   0.164236 0.621934 0.746952 -0.147345
C25   C     C_2   0.584050 0.459406 0.866067 -0.363749
C26   C     C_2   0.507328 0.423782 0.068272 -0.162986
C27   C     C_2   0.486697 0.429114 0.933743 -0.163926
C28   C     C_2   0.070803 0.501397 0.480366 0.090458
C29   C     C_2   0.926328 0.515549 0.503745 0.038436
C30   C     C_R   0.493022 0.262720 0.482064 0.869858
H1    H     H_    0.656241 0.214856 0.292236 0.207314
H2    H     H_    0.106288 0.443521 0.405003 0.179521
H3    H     H_    0.941131 0.992640 0.643217 0.141698
H4    H     H_    0.955495 0.036177 0.478625 0.148430
H5    H     H_    0.842924 0.128978 0.572415 0.218126
H6    H     H_    0.891085 0.690985 0.295610 0.177927
H7    H     H_    0.996564 0.817393 0.308436 0.153004
H8    H     H_    0.007006 0.711018 0.179984 0.176754
H9    H     H_    0.545409 0.850655 0.098009 0.154661
H10   H     H_    0.427952 0.787265 0.195995 0.145366
H11   H     H_    0.531825 0.687385 0.098514 0.197813
H12   H     H_    0.371525 0.827023 0.698886 0.163960
H13   H     H_    0.265624 0.137334 0.270062 0.146232
H14   H     H_    0.100711 0.103924 0.308751 0.162074
H15   H     H_    0.124961 0.252780 0.240489 0.187051
H16   H     H_    0.788566 0.484613 0.232880 0.202315
H17   H     H_    0.845322 0.328059 0.184775 0.145840
H18   H     H_    0.962011 0.438441 0.217302 0.121937
H19   H     H_    0.257472 0.665408 0.759374 0.170855
H20   H     H_    0.180769 0.519920 0.773428 0.142953
H21   H     H_    0.095171 0.668188 0.813198 0.131482
H22   H     H_    0.825576 0.084713 0.190627 0.184368
H23   H     H_    0.160441 0.946740 0.746355 0.176534
H24   H     H_    0.386862 0.423793 0.891691 0.176522
H25   H     H_    0.606342 0.391008 0.110146 0.172467
H26   H     H_    0.683562 0.465280 0.908779 0.154646
H27   H     H_    0.313879 0.513020 0.093267 0.143060
H28   H     H_    0.887913 0.585774 0.568526 0.137242
N1    N     N_2   0.157300 0.551390 0.551120 0.067184
N2    N     N_2   0.842700 0.448610 0.448880 0.089636
O1    O     O_R   0.568940 0.489660 0.307530 -0.593046
O2    O     O_3   0.840726 0.841696 0.167634 -0.593909
O3    O     O_3   0.625956 0.743723 0.261326 -0.583216
O4    O     O_3   0.189403 0.228344 0.427536 -0.578789
O5    O     O_3   0.891053 0.357487 0.372485 -0.490031
O6    O     O_3   0.106243 0.644728 0.623898 -0.569718
O7    O     O_R   0.431060 0.510340 0.692470 -0.636661
O8    O     O_R   0.348880 0.522640 0.340350 -0.637057
O9    O     O_R   0.651120 0.477360 0.659650 -0.614197
O10   O     O_R   0.610030 0.300280 0.483580 -0.608786
O11   O     O_R   0.389970 0.699720 0.516420 -0.600488
O12   O     O_R   0.389970 0.333270 0.516400 -0.585086
O13   O     O_R   0.610030 0.666730 0.483600 -0.596265
O14   O     O_3   0.039674 0.149568 0.613444 -0.580545
Zn1   Zn    Zn3+2 0.646940 0.477980 0.478080 1.003791
Zn2   Zn    Zn3+2 0.353060 0.522020 0.521920 0.982748

loop_
_geom_bond_atom_site_label_1
_geom_bond_atom_site_label_2
_ccdc_geom_bond_type
C22   H18   S    
C12   O9    A    
C29   N2    D    
C7    O2    S    
O9    Zn1   S    
C19   H7    S    
C19   H8    S    
C24   O6    S    
O8    Zn2   S    
C21   H14   S    
C18   H4    S    
C18   H5    S    
C30   O10   A    
N2    Zn1   S    
C30   O12   A    
C25   H26   S    
C13   C17   A    
C12   C25   S    
O12   Zn2   S    
C26   H25   S    
C4    C15   A    
C8    O14   S    
C22   H17   S    
C27   H24   S    
C18   O14   S    
C21   H13   S    
O1    Zn1   S    
C3    H1    S    
C17   C30   S    
C9    C11   A    
C14   C17   A    
C26   C27   S    
C3    C14   A    
C4    H12   S    
C20   O3    S    
C20   H11   S    
C24   H19   S    
C2    O13   A    
C28   C29   S    
C12   O7    A    
N2    O5    S    
C1    C23   S    
C21   H15   S    
C19   H6    S    
C13   C15   A    
N1    O6    S    
C24   H20   S    
O11   Zn2   S    
C20   H10   S    
C11   C14   A    
C23   C26   D    
C4    C6    A    
C25   C27   D    
C18   H3    S    
O13   Zn1   S    
C19   O2    S    
C2    O11   A    
C7    C9    A    
C28   H2    S    
C1    O8    A    
C2    C16   S    
C29   H28   S    
C5    C7    A    
C11   C16   A    
C28   N1    D    
O10   Zn1   S    
C23   H27   S    
C20   H9    S    
C24   H21   S    
C21   O4    S    
C6    C8    A    
O7    Zn2   S    
C6    H23   S    
C5    H22   S    
C22   H16   S    
C9    O3    S    
N1    Zn2   S    
C22   O5    S    
C8    C10   A    
C10   O4    S    
C15   C16   A    
C3    C5    A    
C10   C13   A    
C1    O1    A    
