data_mof_unit_30849.cif
_audit_creation_date              2013-03-05T15:45:31-0500
_audit_creation_method            fapswitch 2.2
_symmetry_space_group_name_H-M    P1
_symmetry_Int_Tables_number       1
_space_group_crystal_system       triclinic
_cell_length_a                    27.542255
_cell_length_b                    10.675939
_cell_length_c                    10.05453
_cell_angle_alpha                 89.463258
_cell_angle_beta                  91.470753
_cell_angle_gamma                 90.386101
_cell_volume                      2955.26221261

loop_
_atom_site_label
_atom_site_type_symbol
_atom_site_description
_atom_site_fract_x
_atom_site_fract_y
_atom_site_fract_z
_atom_type_partial_charge
O1    O     O_R   0.499990 0.319060 0.613040 -0.645311
O2    O     O_R   0.500010 0.319100 0.386900 -0.591303
C1    C     C_R   0.496640 0.262641 0.500249 0.932223
O3    O     O_R   0.428750 0.500000 0.613050 -0.593259
O4    O     O_R   0.428760 0.500040 0.386920 -0.599409
C2    C     C_R   0.406092 0.500006 0.498365 0.988330
Zn1   Zn    Zn3+2 0.499990 0.499970 0.650990 1.049165
Zn2   Zn    Zn3+2 0.500010 0.500030 0.349010 1.039398
O5    O     O_R   0.499990 0.680900 0.613100 -0.602455
O6    O     O_R   0.500010 0.680940 0.386960 -0.557869
O7    O     O_R   0.571240 0.499960 0.613080 -0.581995
O8    O     O_R   0.571250 0.500000 0.386950 -0.607284
C3    C     C_R   0.499534 0.737340 0.499137 1.031805
C4    C     C_R   0.593828 0.495624 0.501694 0.940498
C5    C     C_R   0.176665 0.395554 0.393143 0.626564
O9    O     O_2   0.202320 0.338116 0.299079 -0.461507
N1    N     N_R   0.200669 0.464953 0.487552 -0.329225
C6    C     C_R   0.176806 0.526720 0.583876 0.599154
C7    C     C_R   0.274884 0.559694 0.401764 0.408018
C8    C     C_R   0.326261 0.566904 0.402483 0.221730
C9    C     C_R   0.329794 0.407186 0.578869 0.444612
C10   C     C_R   0.279431 0.398359 0.574281 -0.291397
C11   C     C_R   0.252323 0.473088 0.486057 0.155083
C12   C     C_R   0.100646 0.440406 0.499264 -0.142362
C13   C     C_R   0.125719 0.383358 0.395174 -0.076974
C14   C     C_R   0.099260 0.320156 0.294551 0.476535
C15   C     C_R   0.126380 0.516416 0.590992 -0.062578
C16   C     C_R   0.353212 0.493026 0.494506 -0.249123
H1    H     H_    0.261173 0.333593 0.640173 0.191950
C17   C     C_R   0.645941 0.471603 0.506248 -0.264334
C18   C     C_R   0.972452 0.334377 0.426807 0.079046
C19   C     C_R   0.975748 0.456310 0.634007 -0.137765
C20   C     C_R   0.948722 0.395424 0.531995 -0.065436
C21   C     C_R   0.943786 0.256129 0.340892 0.417019
C22   C     C_R   0.893117 0.266927 0.338940 -0.228692
C23   C     C_R   0.870002 0.339080 0.432927 -0.023181
C24   C     C_R   0.897442 0.394995 0.536288 -0.116650
C25   C     C_R   0.873582 0.451793 0.642844 -0.220419
C26   C     C_R   0.822565 0.459983 0.636122 0.646575
N2    N     N_R   0.797272 0.414238 0.528313 -0.324600
C27   C     C_R   0.819578 0.352220 0.429159 0.546580
C28   C     C_R   0.715514 0.358624 0.599438 0.568812
C29   C     C_R   0.665407 0.377929 0.593279 0.249475
C30   C     C_R   0.676564 0.541373 0.423217 0.403976
C31   C     C_R   0.726673 0.520256 0.430836 -0.295410
C32   C     C_R   0.745940 0.431067 0.519498 0.060978
O10   O     O_2   0.792888 0.303573 0.327403 -0.550334
C33   C     C_R   0.023591 0.351332 0.414853 0.052472
C34   C     C_R   0.049849 0.423520 0.510756 -0.004019
C35   C     C_R   0.025506 0.483217 0.615368 0.033087
C36   C     C_R   0.048763 0.309403 0.303165 -0.263077
H2    H     H_    0.871654 0.213838 0.267048 0.190312
H3    H     H_    0.029958 0.273639 0.216709 0.193850
O11   O     O_2   0.202000 0.597797 0.672417 -0.530253
C37   C     C_R   0.101231 0.586192 0.682967 -0.253140
H4    H     H_    0.120502 0.653222 0.745419 0.195698
C38   C     C_R   0.951928 0.483414 0.754008 0.548297
C39   C     C_R   0.901457 0.492290 0.754325 0.360496
O12   O     O_2   0.798132 0.513827 0.734846 -0.502061
C40   C     C_R   0.050752 0.576716 0.689957 0.485599
H5    H     H_    0.751036 0.574347 0.369472 0.181090
C41   C     C_2   0.469858 0.929808 0.406443 0.350299
C42   C     C_2   0.498986 0.869883 0.494534 -0.424062
H6    H     H_    0.525318 0.917535 0.558747 0.109094
C43   C     C_2   0.475561 0.065718 0.392470 0.428363
C44   C     C_2   0.485972 0.131475 0.502787 -0.488909
H7    H     H_    0.485742 0.087640 0.600787 0.129489
C45   C     C_2   0.528907 0.570517 0.926674 0.744772
N3    N     N_2   0.500520 0.501330 0.852150 0.036610
C46   C     C_2   0.535370 0.544169 0.075788 -0.009019
N4    N     N_2   0.500540 0.501360 0.147810 0.072598
H8    H     H_    0.570284 0.563482 0.123731 0.112273
O13   O     O_3   0.356120 0.333520 0.668241 -0.579272
C47   C     C_3   0.363286 0.215533 0.610257 -0.273202
H9    H     H_    0.382027 0.224271 0.513709 0.143248
H10   H     H_    0.328269 0.164123 0.596448 0.179966
H11   H     H_    0.386886 0.158943 0.678329 0.192946
O14   O     O_3   0.245618 0.637266 0.324294 -0.728928
H12   H     H_    0.263383 0.716308 0.306507 0.351087
O15   O     O_3   0.977188 0.501158 0.873206 -0.525811
C48   C     C_3   0.992156 0.383593 0.923633 -0.229497
H13   H     H_    0.017746 0.337233 0.856126 0.140034
H14   H     H_    0.960409 0.321429 0.942642 0.169957
H15   H     H_    0.011739 0.398481 0.019889 0.192185
O16   O     O_3   0.656921 0.631446 0.338521 -0.753341
H16   H     H_    0.683354 0.671411 0.287733 0.341572
O17   O     O_3   0.880504 0.535074 0.867726 -0.661631
H17   H     H_    0.866128 0.617302 0.843300 0.365196
O18   O     O_3   0.025334 0.666594 0.757212 -0.708642
H18   H     H_    0.048371 0.725669 0.801466 0.342770
O19   O     O_3   0.436625 0.863989 0.327985 -0.693468
H19   H     H_    0.416695 0.925035 0.276041 0.360947
O20   O     O_3   0.467635 0.124611 0.270104 -0.614637
C49   C     C_3   0.501099 0.079958 0.178082 -0.270029
H20   H     H_    0.492540 0.981993 0.148831 0.175525
H21   H     H_    0.539178 0.087336 0.217486 0.165483
H22   H     H_    0.498397 0.138939 0.086783 0.206388
O21   O     O_3   0.555870 0.663127 0.863489 -0.613243
C50   C     C_3   0.562318 0.769385 0.944593 -0.362645
H23   H     H_    0.591451 0.753263 0.021160 0.184686
H24   H     H_    0.527906 0.797677 0.991543 0.159667
H25   H     H_    0.574139 0.848960 0.881207 0.215436
O22   O     O_3   0.490067 0.388068 0.903329 -0.727808
H26   H     H_    0.469923 0.345985 0.834137 0.378664
O23   O     O_3   0.455879 0.521795 0.092835 -0.523215
C51   C     C_3   0.425318 0.419480 0.123936 0.059222
H27   H     H_    0.391397 0.455068 0.166437 0.158092
H28   H     H_    0.441877 0.349147 0.192883 0.183794
H29   H     H_    0.414131 0.370698 0.031185 0.147910
O24   O     O_3   0.122787 0.273973 0.185555 -0.686011
H30   H     H_    0.099081 0.231149 0.125291 0.329175
O25   O     O_3   0.636906 0.302202 0.672056 -0.704060
H31   H     H_    0.604915 0.289911 0.626880 0.330174
O26   O     O_3   0.735202 0.272225 0.688480 -0.543990
C52   C     C_3   0.735543 0.154092 0.626948 -0.221014
H32   H     H_    0.758499 0.155197 0.537559 0.160508
H33   H     H_    0.698134 0.121537 0.599994 0.177672
H34   H     H_    0.751429 0.084969 0.698391 0.198352
O27   O     O_3   0.964821 0.162371 0.268526 -0.787050
H35   H     H_    0.939518 0.116429 0.216267 0.342432
O28   O     O_3   0.350930 0.645241 0.316992 -0.705749
H36   H     H_    0.331311 0.655302 0.233728 0.351643

loop_
_geom_bond_atom_site_label_1
_geom_bond_atom_site_label_2
_geom_bond_distance
_ccdc_geom_bond_type
C37   H4    1.083631 S    
O20   C49   1.410947 S    
C10   H1    1.083391 S    
O13   C47   1.410147 S    
C7    C8    1.416465 A    
C12   C15   1.408602 A    
O17   H17   0.991654 S    
C39   O17   1.374325 S    
O26   C52   1.410141 S    
O16   H16   0.991787 S    
Zn1   O7    2.008643 S    
N1    C11   1.425196 S    
C47   H10   1.112690 S    
C23   C24   1.404549 A    
C24   C25   1.414580 A    
O4    C2    1.296641 A    
O7    C4    1.296366 A    
C15   C37   1.393777 A    
C5    C13   1.408969 A    
C51   H27   1.108199 S    
C52   H32   1.111997 S    
C9    O13   1.383010 S    
C12   C34   1.416958 A    
C5    N1    1.364339 A    
C21   C22   1.400697 A    
C28   C32   1.400211 A    
O5    C3    1.289423 A    
O24   H30   0.991621 S    
O22   H26   0.988096 S    
C25   C39   1.411787 A    
C28   O26   1.383005 S    
C33   C36   1.412683 A    
C2    C16   1.457378 S    
C22   C23   1.393854 A    
C45   N3    1.300324 D    
C52   H33   1.112845 S    
C47   H11   1.109357 S    
C18   C20   1.422893 A    
C46   N4    1.295010 D    
C14   O24   1.383790 S    
C43   O20   1.389331 S    
C44   H7    1.087010 S    
C37   C40   1.396835 A    
C38   O15   1.384167 S    
C17   C30   1.406821 A    
C23   C27   1.396298 A    
C19   C38   1.421138 A    
C4    C17   1.459230 S    
O3    Zn1   1.989216 S    
O25   H31   0.989411 S    
C48   H14   1.113519 S    
C48   H13   1.112632 S    
N3    O22   1.342031 S    
O28   H36   0.990087 S    
C47   H9    1.113941 S    
C12   C13   1.413455 A    
O3    C2    1.296980 A    
O19   H19   0.991231 S    
O14   H12   0.989735 S    
C8    C16   1.409991 A    
C49   H22   1.109494 S    
C13   C14   1.406490 A    
C40   O18   1.383312 S    
C20   C24   1.414130 A    
O1    C1    1.289992 A    
C7    O14   1.380917 S    
C7    C11   1.401391 A    
C41   C42   1.340597 D    
C50   H23   1.110747 S    
C3    C42   1.415519 S    
Zn2   O8    1.989218 S    
C52   H34   1.109180 S    
C26   O12   1.348631 S    
C41   O19   1.385094 S    
N1    C6    1.362080 A    
C27   O10   1.350214 S    
C18   C21   1.427244 A    
C49   H21   1.114114 S    
C19   C35   1.415153 A    
C8    O28   1.381593 S    
Zn2   O6    1.972219 S    
N2    C27   1.363453 A    
C50   H24   1.114393 S    
C9    C16   1.407439 A    
O8    C4    1.297097 A    
C34   C35   1.420047 A    
C18   C33   1.426831 A    
N4    O23   1.353755 S    
C17   C29   1.421270 A    
C1    C44   1.429006 S    
C28   C29   1.396457 A    
N2    C32   1.426766 S    
C30   O16   1.382248 S    
C26   N2    1.365786 A    
C48   H15   1.108047 S    
C30   C31   1.399955 A    
C21   O27   1.382059 S    
Zn1   O5    1.965303 S    
C33   C34   1.420342 A    
Zn2   N4    2.023316 S    
C41   C43   1.464234 S    
O1    Zn1   1.972220 S    
O2    Zn2   1.965304 S    
C6    C15   1.396091 A    
O15   C48   1.409487 S    
O6    C3    1.283915 A    
Zn1   N3    2.022435 S    
O4    Zn2   2.008640 S    
O27   H35   0.991845 S    
O23   C51   1.412135 S    
C35   C40   1.421334 A    
C19   C20   1.412577 A    
O2    C1    1.289407 A    
C14   C36   1.399596 A    
C38   C39   1.394055 A    
C25   C26   1.408278 A    
C51   H28   1.109510 S    
C31   H5    1.083389 S    
C43   C44   1.341977 D    
C49   H20   1.111207 S    
C45   O21   1.391094 S    
C6    O11   1.350435 S    
C42   H6    1.085713 S    
C31   C32   1.396258 A    
C50   H25   1.109356 S    
C45   C46   1.528954 S    
O21   C50   1.410878 S    
C29   O25   1.381491 S    
C22   H2    1.083697 S    
C10   C11   1.393400 A    
C46   H8    1.083958 S    
C36   H3    1.072434 S    
O18   H18   0.991819 S    
C9    C10   1.389274 A    
C5    O9    1.349363 S    
C51   H29   1.108166 S    
