data_mof_unit_37144.cif
_audit_creation_date              2012-12-11T14:21:12-0500
_audit_creation_method            fapswitch 2.2
_symmetry_space_group_name_H-M    P1
_symmetry_Int_Tables_number       1
_space_group_crystal_system       triclinic
_cell_length_a                    22.018334
_cell_length_b                    7.194824
_cell_length_c                    14.960261
_cell_angle_alpha                 90.000149
_cell_angle_beta                  107.576432
_cell_angle_gamma                 90.000111
_cell_volume                      2259.33281624

loop_
_atom_site_label
_atom_site_type_symbol
_atom_type_description
_atom_site_fract_x
_atom_site_fract_y
_atom_site_fract_z
_atom_type_partial_charge
O1    O     O_R   0.584770 0.505770 0.002090 -0.535671
O2    O     O_R   0.415230 0.005770 0.997910 -0.535676
O3    O     O_R   0.467060 0.173340 0.861950 -0.543960
O4    O     O_R   0.532940 0.673340 0.138050 -0.543968
C1    C     C_R   0.454729 0.344145 0.825810 0.829884
C2    C     C_R   0.545272 0.844146 0.174189 0.829906
O5    O     O_R   0.587510 0.175890 0.993210 -0.503826
O6    O     O_R   0.412490 0.675890 0.006790 -0.503832
O7    O     O_R   0.536540 0.008150 0.130100 -0.527769
O8    O     O_R   0.463460 0.508150 0.869900 -0.527756
C3    C     C_R   0.612683 0.344239 0.996192 0.780674
C4    C     C_R   0.387317 0.844238 0.003808 0.780698
O9    O     O_3   0.483140 0.340040 0.044760 -0.378829
O10   O     O_3   0.516860 0.840040 0.955240 -0.378816
V1    V     V_3+5 0.503130 0.064190 0.991700 1.657800
V2    V     V_3+5 0.496870 0.564190 0.008300 1.657793
C5    C     C_2   0.216189 0.741964 0.015503 -0.251102
C6    C     C_2   0.783808 0.241975 0.984482 -0.251105
C7    C     C_2   0.176597 0.886984 0.983380 0.185164
C8    C     C_2   0.823404 0.386979 0.016622 0.185034
H1    H     H_    0.199529 0.627741 0.049476 0.150857
H2    H     H_    0.800464 0.127773 0.950491 0.150846
C9    C     C_2   0.279950 0.716138 0.002329 0.447251
C10   C     C_2   0.720048 0.216140 0.997657 0.447255
C11   C     C_2   0.322204 0.857799 0.012805 -0.263465
C12   C     C_2   0.677797 0.357803 0.987195 -0.263434
H3    H     H_    0.309104 0.993993 0.032007 0.189346
H4    H     H_    0.690899 0.494004 0.968008 0.189354
C13   C     C_R   0.927475 0.881258 0.723436 -0.117717
C14   C     C_R   0.072535 0.381266 0.276561 -0.117860
C15   C     C_R   0.573684 0.849349 0.276383 -0.197770
C16   C     C_R   0.426318 0.349339 0.723616 -0.197773
C17   C     C_R   0.936886 0.822723 0.568321 0.413736
C18   C     C_R   0.063109 0.322812 0.431673 0.413946
C19   C     C_R   0.965792 0.858921 0.664407 0.229381
C20   C     C_R   0.034213 0.358974 0.335583 0.229404
C21   C     C_R   0.861257 0.875739 0.687066 -0.258784
C22   C     C_R   0.138751 0.375716 0.312935 -0.258813
C23   C     C_R   0.830820 0.836970 0.591530 0.032640
C24   C     C_R   0.169182 0.336974 0.408475 0.032653
C25   C     C_R   0.869698 0.803659 0.532668 -0.053192
C26   C     C_R   0.130298 0.303744 0.467339 -0.053204
C27   C     C_R   0.763010 0.829641 0.552670 0.044901
C28   C     C_R   0.236991 0.329603 0.447336 0.044916
C29   C     C_R   0.735597 0.794336 0.455005 0.011634
C30   C     C_R   0.264400 0.294376 0.545009 0.011646
C31   C     C_R   0.774997 0.714019 0.405608 0.321635
C32   C     C_R   0.224992 0.214156 0.594423 0.321624
C33   C     C_R   0.841160 0.738617 0.441231 -0.133370
C34   C     C_R   0.158830 0.238777 0.558792 -0.133335
C35   C     C_R   0.721398 0.850277 0.608014 -0.139565
C36   C     C_R   0.278605 0.350104 0.391985 -0.139563
C37   C     C_R   0.655674 0.840954 0.568242 -0.098924
C38   C     C_R   0.344329 0.340728 0.431758 -0.098902
C39   C     C_R   0.628868 0.830805 0.471259 0.017088
C40   C     C_R   0.371134 0.330661 0.528743 0.017099
C41   C     C_R   0.668792 0.824232 0.412815 -0.009518
C42   C     C_R   0.331209 0.324229 0.587190 -0.009526
C43   C     C_R   0.562450 0.831485 0.432120 -0.170727
C44   C     C_R   0.437552 0.331267 0.567881 -0.170720
C45   C     C_R   0.534874 0.832305 0.335116 0.321571
C46   C     C_R   0.465127 0.332146 0.664886 0.321585
C47   C     C_R   0.640398 0.857485 0.315385 0.263052
C48   C     C_R   0.359606 0.357558 0.684612 0.263066
H5    H     H_    0.870703 0.696742 0.398985 0.188428
H6    H     H_    0.129284 0.196979 0.601047 0.188425
H7    H     H_    0.625544 0.849813 0.613574 0.160432
H8    H     H_    0.374460 0.349476 0.386422 0.160411
H9    H     H_    0.835047 0.898873 0.736288 0.122072
H10   H     H_    0.164965 0.398822 0.263715 0.122078
H11   H     H_    0.737834 0.866864 0.682972 0.132276
H12   H     H_    0.262171 0.366605 0.317022 0.132273
H13   H     H_    0.531908 0.829796 0.476990 0.172642
H14   H     H_    0.468095 0.329462 0.523011 0.172635
O11   O     O_R   0.036450 0.233070 0.130130 -0.550327
O12   O     O_R   0.963550 0.733070 0.869870 -0.550358
O13   O     O_R   0.912470 0.560570 0.006790 -0.509506
O14   O     O_R   0.087530 0.060570 0.993210 -0.509504
C49   C     C_R   0.887637 0.392124 0.004678 0.698999
C50   C     C_R   0.112363 0.892125 0.995322 0.698896
O15   O     O_R   0.032920 0.562940 0.138050 -0.534066
O16   O     O_R   0.967080 0.062940 0.861950 -0.534051
O17   O     O_R   0.084790 0.730500 0.002090 -0.559040
O18   O     O_R   0.915210 0.230500 0.997910 -0.558978
C51   C     C_R   0.044475 0.394012 0.174667 0.753722
C52   C     C_R   0.955535 0.894010 0.825331 0.753583
O19   O     O_3   0.016820 0.396170 0.955260 -0.378595
O20   O     O_3   0.983180 0.896170 0.044740 -0.378573
V3    V     V_3+5 0.996880 0.672090 0.008300 1.502981
V4    V     V_3+5 0.003120 0.172090 0.991700 1.503063
N1    N     N_2   0.033271 0.873444 0.702395 -0.521787
H15   H     H_    0.054404 0.951025 0.662020 0.311586
C53   C     C_3   0.065702 0.698885 0.732356 -0.439565
H16   H     H_    0.061267 0.606954 0.671050 0.254943
H17   H     H_    0.045688 0.627120 0.782808 0.204734
H18   H     H_    0.116997 0.725506 0.767873 0.209510
N2    N     N_2   0.966739 0.373513 0.297563 -0.521843
H19   H     H_    0.945602 0.451327 0.337851 0.311532
C54   C     C_3   0.934289 0.198925 0.267740 -0.439315
H20   H     H_    0.938367 0.107669 0.329218 0.254937
H21   H     H_    0.954577 0.126307 0.217790 0.204782
H22   H     H_    0.883061 0.225710 0.231668 0.209525
N3    N     N_2   0.748161 0.594763 0.326236 -0.456755
H23   H     H_    0.702722 0.548481 0.319750 0.260530
C55   C     C_3   0.787199 0.447277 0.306688 -0.386961
H24   H     H_    0.826127 0.505684 0.282676 0.229177
H25   H     H_    0.757794 0.358263 0.249083 0.236854
H26   H     H_    0.806995 0.359317 0.369878 0.183943
N4    N     N_2   0.251819 0.094952 0.673820 -0.456717
H27   H     H_    0.297260 0.048657 0.680327 0.260547
C56   C     C_3   0.212776 0.947478 0.693364 -0.387004
H28   H     H_    0.173844 0.005905 0.717360 0.229196
H29   H     H_    0.192985 0.859507 0.630177 0.183963
H30   H     H_    0.242174 0.858469 0.750978 0.236862
Cl1   Cl    Cl    0.195263 0.068870 0.916552 -0.593848
Cl2   Cl    Cl    0.804745 0.568822 0.083481 -0.593862
Cl3   Cl    Cl    0.298284 0.484690 0.981033 -0.504489
Cl4   Cl    Cl    0.701710 0.984684 0.018933 -0.504506
Cl5   Cl    Cl    0.685841 0.940786 0.244044 -0.577209
Cl6   Cl    Cl    0.314172 0.441017 0.755935 -0.577239
Cl7   Cl    Cl    0.451231 0.822119 0.289203 -0.671436
Cl8   Cl    Cl    0.548770 0.321839 0.710800 -0.671422
Cl9   Cl    Cl    0.985950 0.795899 0.494519 -0.651737
Cl10  Cl    Cl    0.014034 0.296034 0.505460 -0.651818

loop_
_geom_bond_atom_site_label_1
_geom_bond_atom_site_label_2
_ccdc_geom_bond_type
C22   H10   S    
C53   H16   S    
C39   C43   A    
C15   C45   A    
C56   H28   S    
C18   C26   A    
O2    C4    A    
C2    O7    A    
N2    H19   S    
C23   C25   A    
O14   V4    S    
O5    C3    A    
C55   H25   S    
O13   V3    S    
C5    C9    S    
C33   H5    S    
C6    C10   S    
C45   Cl7   S    
C10   C12   D    
C21   H9    S    
N4    C56   S    
C49   O18   A    
O14   C50   A    
C38   H8    S    
C14   C22   A    
C44   C46   A    
C29   C31   A    
C44   H14   S    
C34   H6    S    
O11   V4    S    
C17   C19   A    
O11   C51   A    
C56   H29   S    
C36   C38   A    
O1    C3    A    
C20   N2    S    
C43   H13   S    
C18   C20   A    
O12   V3    S    
C1    C16   S    
O15   V3    S    
C28   C36   A    
C32   C34   A    
C32   N4    S    
O6    V2    S    
C30   C42   A    
O18   V4    S    
C50   O17   A    
C25   C33   A    
N2    C54   S    
C28   C30   A    
C41   C47   A    
C30   C32   A    
C37   C39   A    
C42   C48   A    
O17   V3    S    
C55   H26   S    
C38   C40   A    
C43   C45   A    
C31   N3    S    
C15   C47   A    
C16   C48   A    
C31   C33   A    
N1    H15   S    
C8    Cl2   S    
C23   C27   A    
C3    C12   S    
O16   C52   A    
C5    H1    S    
C40   C44   A    
C35   C37   A    
O4    V2    S    
C36   H12   S    
N1    C53   S    
C47   Cl5   S    
C54   H20   S    
C7    Cl1   S    
O6    C4    A    
C29   C41   A    
O13   C49   A    
N3    C55   S    
O1    V2    S    
C14   C51   S    
O2    V1    S    
C27   C29   A    
C13   C52   S    
C26   C34   A    
O4    C2    A    
C54   H21   S    
C53   H18   S    
C39   C41   A    
O19   V4    S    
O12   C52   A    
C46   Cl8   S    
O3    V1    S    
C18   Cl10  S    
C8    C49   S    
C6    H2    S    
C10   Cl4   S    
C24   C26   A    
O3    C1    A    
O16   V4    S    
C9    Cl3   S    
C35   H11   S    
C11   H3    S    
C55   H24   S    
C13   C19   A    
C12   H4    S    
C48   Cl6   S    
C14   C20   A    
C4    C11   S    
C17   C25   A    
O7    V1    S    
C16   C46   A    
C1    O8    A    
C21   C23   A    
O8    V2    S    
N4    H27   S    
C22   C24   A    
C27   C35   A    
O5    V1    S    
C5    C7    D    
C40   C42   A    
C2    C15   S    
C56   H30   S    
C6    C8    D    
C9    C11   D    
C7    C50   S    
C37   H7    S    
C24   C28   A    
C54   H22   S    
O20   V3    S    
C53   H17   S    
O9    V2    S    
C13   C21   A    
N3    H23   S    
C17   Cl9   S    
O10   V1    S    
O15   C51   A    
C19   N1    S    
