data_mof_unit_68408.cif
_audit_creation_date              2013-03-05T15:54:13-0500
_audit_creation_method            fapswitch 2.2
_symmetry_space_group_name_H-M    P1
_symmetry_Int_Tables_number       1
_space_group_crystal_system       triclinic
_cell_length_a                    8.671582
_cell_length_b                    14.936966
_cell_length_c                    16.48232
_cell_angle_alpha                 98.704057
_cell_angle_beta                  93.511439
_cell_angle_gamma                 98.152913
_cell_volume                      2081.5153325

loop_
_atom_site_label
_atom_site_type_symbol
_atom_site_description
_atom_site_fract_x
_atom_site_fract_y
_atom_site_fract_z
_atom_type_partial_charge
P1    P     P_3+3 0.987060 0.708150 0.571770 0.616776
O1    O     O_2   0.162570 0.722330 0.548140 -0.360403
O2    O     O_3   0.890730 0.608900 0.545420 -0.312744
O3    O     O_3   0.394120 0.666550 0.400060 -0.340197
O4    O     O_2   0.333756 0.831290 0.459520 -0.277070
O5    O     O_3   0.992628 0.760515 0.677495 -0.520737
O6    O     O_3   0.407690 0.806220 0.307117 -0.437723
H1    H     H_    0.564338 0.716814 0.269074 0.061421
C1    C     C_3   0.493992 0.784547 0.169583 -0.583391
H2    H     H_    0.466972 0.852860 0.160981 0.269638
P2    P     P_3+3 0.349540 0.428350 0.313090 0.467429
P3    P     P_3+3 0.928094 0.602321 0.249720 0.548127
O7    O     O_2   0.182040 0.455740 0.301680 -0.337009
O8    O     O_3   0.971530 0.620720 0.357690 -0.344585
O9    O     O_2   0.014688 0.523922 0.214229 -0.341523
O10   O     O_3   0.333840 0.308811 0.289678 -0.672454
O11   O     O_3   0.019298 0.696720 0.207722 -0.442962
C2    C     C_3   0.934917 0.771175 0.222069 0.308617
H3    H     H_    0.808592 0.744793 0.210835 -0.068789
C3    C     C_3   0.970974 0.841715 0.160385 -0.789423
C4    C     C_3   0.676111 0.283797 0.281051 0.254461
H4    H     H_    0.575828 0.241615 0.302559 0.132956
H5    H     H_    0.664564 0.357459 0.294454 0.094575
C5    C     C_3   0.681544 0.254146 0.187193 -0.735256
H6    H     H_    0.794930 0.286910 0.169914 0.192896
Ba1   Ba    Ba6+2 0.163630 0.544320 0.462600 1.664184
C6    C     C_3   0.024185 0.716855 0.746184 0.188067
C7    C     C_3   0.142099 0.786758 0.807136 -0.770234
H7    H     H_    0.246796 0.804240 0.778114 0.210064
H8    H     H_    0.095778 0.852684 0.821275 0.322282
C8    C     C_3   0.188474 0.261713 0.302427 0.287693
H9    H     H_    0.127899 0.302024 0.349279 0.114606
C9    C     C_3   0.085871 0.237119 0.220109 -0.623359
H10   H     H_    0.051758 0.301346 0.203623 0.199882
H11   H     H_    0.978902 0.190273 0.227747 0.193062
P4    P     P_3+3 0.823240 0.291840 0.428170 0.478438
O12   O     O_2   0.647720 0.277620 0.451840 -0.397614
O13   O     O_3   0.919570 0.391090 0.454510 -0.358989
O14   O     O_3   0.416180 0.333440 0.599870 -0.399917
O15   O     O_3   0.817043 0.270459 0.320181 -0.594335
P5    P     P_3+3 0.887315 0.383177 0.748748 0.495751
O16   O     O_3   0.378690 0.546410 0.598100 -0.413409
O17   O     O_3   0.838770 0.379270 0.642240 -0.329729
O18   O     O_2   0.783821 0.450423 0.788636 -0.302121
O19   O     O_3   0.814043 0.284184 0.789574 -0.633328
Ba2   Ba    Ba6+2 0.646550 0.455670 0.537340 1.623687
P6    P     P_3+3 0.450294 0.784238 0.406760 0.563474
C10   C     C_3   0.532987 0.784906 0.261206 0.242363
H12   H     H_    0.635458 0.838689 0.281310 0.031012
H13   H     H_    0.597666 0.772664 0.135798 0.125294
O20   O     O_3   0.431610 0.453580 0.401830 -0.372726
C11   C     C_3   0.526991 0.769737 0.721290 0.108298
C12   C     C_3   0.545753 0.855741 0.792416 -0.591082
H14   H     H_    0.669352 0.883403 0.812246 0.242781
H15   H     H_    0.495786 0.834486 0.848189 0.276000
P7    P     P_3+3 0.461680 0.574364 0.703829 0.458726
O21   O     O_2   0.628250 0.544210 0.698290 -0.255803
O22   O     O_3   0.507591 0.689615 0.759717 -0.607731
C13   C     C_3   0.839075 0.195737 0.751033 0.110984
C14   C     C_3   0.807495 0.130537 0.816627 -0.548004
H16   H     H_    0.803574 0.058010 0.787006 0.211270
P8    P     P_3+3 0.364299 0.215013 0.588298 0.468362
C15   C     C_3   0.412485 0.261862 0.748459 0.360737
H17   H     H_    0.350459 0.316221 0.731532 0.141339
O23   O     O_2   0.483615 0.171535 0.535175 -0.393803
O24   O     O_3   0.395417 0.183609 0.686235 -0.548026
H18   H     H_    0.537313 0.291494 0.760236 0.130768
H19   H     H_    0.241223 0.269172 0.840433 0.220766
C16   C     C_3   0.348409 0.238460 0.828652 -0.863855
H20   H     H_    0.435372 0.267431 0.881688 0.274075
H21   H     H_    0.317544 0.163510 0.826702 0.307651
C17   C     C_R   0.657940 0.826935 0.447696 0.081396
H22   H     H_    0.700080 0.690523 0.457705 0.165468
H23   H     H_    0.526003 0.964561 0.395450 0.183203
C18   C     C_R   0.896881 0.789772 0.512484 0.434875
C19   C     C_R   0.073830 0.234495 0.512745 -0.408564
C20   C     C_R   0.164895 0.172726 0.539122 0.320920
C21   C     C_R   0.103932 0.079635 0.531039 -0.270524
C22   C     C_R   0.948162 0.045897 0.498749 0.127845
C23   C     C_R   0.858663 0.109348 0.467679 0.029036
C24   C     C_R   0.880609 0.950635 0.493736 0.063455
C25   C     C_R   0.725026 0.920913 0.456758 0.026379
C26   C     C_R   0.642650 0.984528 0.425483 -0.120848
C27   C     C_R   0.709082 0.075419 0.428952 -0.083806
C28   C     C_R   0.960911 0.883833 0.524917 -0.184621
C29   C     C_R   0.749732 0.762357 0.468855 -0.465931
C30   C     C_R   0.922376 0.204785 0.475146 0.203912
H24   H     H_    0.071911 0.903033 0.560895 0.169045
H25   H     H_    0.124039 0.306032 0.519040 0.160281
H26   H     H_    0.181079 0.035356 0.551242 0.160909
H27   H     H_    0.640307 0.118263 0.399911 0.160395
C31   C     C_R   0.617995 0.533697 0.271554 -0.469490
C32   C     C_R   0.467838 0.487386 0.244110 0.328681
C33   C     C_R   0.416115 0.473086 0.160652 -0.283112
C34   C     C_R   0.516514 0.502004 0.103145 0.197915
C35   C     C_R   0.670850 0.542291 0.130387 -0.244239
C36   C     C_R   0.720961 0.560220 0.214667 0.169057
C37   C     C_R   0.393118 0.516463 0.858231 -0.276553
C38   C     C_R   0.353384 0.502430 0.772307 0.127482
C39   C     C_R   0.288727 0.478216 0.911718 0.145810
N1    N     N_2   0.470793 0.484687 0.017285 -0.033629
N2    N     N_2   0.330338 0.489045 0.998745 -0.021236
C40   C     C_R   0.206956 0.452089 0.741238 -0.326024
H28   H     H_    0.752362 0.557333 0.085646 0.213403
C41   C     C_R   0.091956 0.428620 0.794059 0.226402
C42   C     C_R   0.133493 0.439699 0.880225 -0.269984
H29   H     H_    0.300734 0.435379 0.140150 0.196316
H30   H     H_    0.658884 0.542563 0.336058 0.157663
H31   H     H_    0.175837 0.440532 0.675487 0.192337
C43   C     C_2   0.667050 0.151256 0.163285 1.166556
O25   O     O_2   0.570676 0.100748 0.193086 -0.591789
O26   O     O_R   0.758000 0.112481 0.104330 -0.687221
H32   H     H_    0.827952 0.159720 0.079731 0.311495
C44   C     C_2   0.558325 0.286487 0.136638 0.575852
H33   H     H_    0.445601 0.291730 0.158792 0.063705
O27   O     O_2   0.582670 0.303656 0.068028 -0.523790
C45   C     C_2   0.084836 0.629233 0.723939 0.472655
H34   H     H_    0.195210 0.623649 0.752789 -0.090644
O28   O     O_2   0.007313 0.564302 0.678719 -0.511799
C46   C     C_2   0.883965 0.702480 0.794736 0.996073
O29   O     O_2   0.836856 0.627115 0.810434 -0.586539
O30   O     O_R   0.828848 0.778317 0.835766 -0.775598
H35   H     H_    0.750210 0.761479 0.875710 0.352333
C47   C     C_2   0.187431 0.756436 0.887106 0.769259
H36   H     H_    0.155525 0.686006 0.896433 -0.013746
O31   O     O_2   0.264053 0.811755 0.941969 -0.422415
C48   C     C_2   0.217585 0.176860 0.335924 0.525013
H37   H     H_    0.334845 0.169763 0.358600 0.053215
O32   O     O_2   0.109624 0.116612 0.340810 -0.595067
C49   C     C_2   0.363288 0.710616 0.131862 1.156189
O33   O     O_2   0.316523 0.705997 0.059814 -0.580691
O34   O     O_R   0.298347 0.645580 0.177191 -0.734038
H38   H     H_    0.218999 0.597153 0.141416 0.354168
C50   C     C_2   0.163383 0.190620 0.149775 1.110170
O35   O     O_2   0.174029 0.223976 0.086621 -0.612503
O36   O     O_R   0.217779 0.107962 0.155432 -0.727177
H39   H     H_    0.265722 0.083138 0.103739 0.374943
C51   C     C_2   0.662721 0.773223 0.670532 1.048527
O37   O     O_2   0.756196 0.843634 0.675525 -0.591104
O38   O     O_R   0.672919 0.699102 0.610561 -0.781185
H40   H     H_    0.569110 0.669362 0.580832 0.297853
C52   C     C_2   0.392764 0.769327 0.663409 0.381535
H41   H     H_    0.301852 0.712662 0.659167 0.082414
O39   O     O_2   0.386582 0.831003 0.622792 -0.559413
C53   C     C_2   0.476828 0.937700 0.772809 0.567027
H42   H     H_    0.516373 0.970901 0.722188 0.125798
O40   O     O_2   0.378290 0.968168 0.814217 -0.522949
C54   C     C_2   0.867217 0.916948 0.174650 0.961133
O41   O     O_2   0.766388 0.924189 0.121744 -0.527232
O42   O     O_R   0.887119 0.978846 0.248419 -0.794871
H43   H     H_    0.810123 0.024017 0.251232 0.355901
C55   C     C_2   0.729124 0.165606 0.674657 0.506833
H44   H     H_    0.700180 0.216779 0.639082 0.118388
O43   O     O_2   0.682813 0.084688 0.648471 -0.582115
C56   C     C_2   0.999257 0.186236 0.723081 0.888082
O44   O     O_2   0.075331 0.246942 0.694579 -0.707187
O45   O     O_R   0.050498 0.101078 0.721246 -0.751999
H45   H     H_    0.152990 0.096843 0.696676 0.365011
C57   C     C_2   0.651267 0.136190 0.849862 0.619124
H46   H     H_    0.549606 0.121125 0.806623 0.073626
O46   O     O_2   0.636503 0.155740 0.923415 -0.516660
C58   C     C_2   0.934997 0.151391 0.886923 0.765539
H47   H     H_    0.959169 0.218967 0.924007 0.045113
O47   O     O_2   0.010958 0.092373 0.902628 -0.491175
C59   C     C_2   0.964922 0.815676 0.310757 0.437152
H48   H     H_    0.888723 0.860941 0.336826 -0.013737
O48   O     O_2   0.076451 0.802597 0.353563 -0.469373
C60   C     C_2   0.530506 0.582312 0.895731 1.145277
O49   O     O_2   0.655322 0.555614 0.907289 -0.613539
O50   O     O_R   0.510084 0.670763 0.929936 -0.770331
H49   H     H_    0.603176 0.704228 0.968131 0.316495
C61   C     C_2   0.014462 0.412736 0.937432 0.583981
H50   H     H_    0.890858 0.406362 0.919689 0.113236
O51   O     O_2   0.052260 0.396407 0.005620 -0.567130
C62   C     C_2   0.142862 0.888457 0.169599 1.182028
O52   O     O_2   0.217566 0.886424 0.109082 -0.533813
O53   O     O_R   0.218269 0.938623 0.243521 -0.702740
H51   H     H_    0.148950 0.950734 0.289381 0.353797
C63   C     C_2   0.934508 0.791247 0.071213 1.152293
O54   O     O_2   0.936842 0.835295 0.014258 -0.556754
O55   O     O_R   0.906134 0.695712 0.053461 -0.804146
H52   H     H_    0.892894 0.671947 0.992132 0.328873

loop_
_geom_bond_atom_site_label_1
_geom_bond_atom_site_label_2
_geom_bond_distance
_ccdc_geom_bond_type
C38   C40   1.404620 A    
C5    H6    1.107865 S    
C5    C44   1.492831 S    
C32   C33   1.395466 A    
C56   O45   1.402363 S    
P8    C20   1.846477 S    
C34   C35   1.403949 A    
C14   C57   1.500628 S    
C8    C48   1.503478 S    
H23   C26   1.079615 S    
C23   C27   1.400352 A    
H1    C10   1.113198 S    
C53   H42   1.082462 S    
C62   O53   1.400249 S    
C6    C46   1.504035 S    
C11   C12   1.585139 S    
O10   C8    1.397757 S    
O4    P6    1.547755 D    
C11   C52   1.457793 S    
C59   H48   1.073284 S    
P5    C41   1.873537 S    
C26   C27   1.388861 A    
C7    H7    1.070065 S    
C54   O42   1.397078 S    
C2    H3    1.104624 S    
C23   C30   1.437964 A    
C45   O28   1.217782 D    
C57   H46   1.074207 S    
C3    C62   1.541831 S    
O50   H49   1.012870 S    
P7    O21   1.576643 D    
P1    O1    1.587145 D    
O16   Ba2   3.000385 S    
C16   H21   1.108643 S    
C43   O25   1.221670 D    
O16   P7    1.808322 S    
C60   O49   1.219416 D    
C9    C50   1.504080 S    
C31   H30   1.082365 S    
O45   H45   1.005085 S    
O19   C13   1.428387 S    
O5    C6    1.420595 S    
C46   O30   1.389338 S    
H19   C16   1.108222 S    
P3    O11   1.771745 S    
C11   C51   1.484707 S    
C8    C9    1.541431 S    
P4    Ba2   3.412067 S    
C27   H27   1.077185 S    
P7    O22   1.803145 S    
C1    H2    1.106229 S    
C20   C21   1.399110 A    
C19   H25   1.082160 S    
P2    C32   1.819984 S    
C60   O50   1.395674 S    
C15   O24   1.417571 S    
C13   C14   1.572135 S    
C59   O48   1.217785 D    
C4    H4    1.108532 S    
P5    O17   1.770276 S    
C16   H20   1.110095 S    
C39   N2    1.436569 S    
O26   H32   1.012700 S    
C53   O40   1.220984 D    
C2    C59   1.502205 S    
C61   O51   1.220900 D    
C31   C36   1.395694 A    
C44   H33   1.073190 S    
C3    C63   1.539016 S    
C58   O47   1.221024 D    
C12   H15   1.109824 S    
P4    C30   1.889349 S    
O3    Ba1   2.859673 S    
P6    C17   1.870682 S    
C15   H18   1.103478 S    
C33   H29   1.083353 S    
P8    O24   1.763606 S    
P1    O5    1.793661 S    
P1    C18   1.894778 S    
N1    N2    1.250595 D    
C15   C16   1.533851 S    
P4    O15   1.756226 S    
C5    C43   1.512915 S    
O38   H40   1.007192 S    
O1    Ba1   2.816326 S    
C22   C24   1.448032 A    
C13   C56   1.508753 S    
C21   C22   1.414031 A    
O34   H38   1.012139 S    
C50   O36   1.396495 S    
P2    Ba1   3.414528 S    
O55   H52   1.013231 S    
Ba2   O20   2.813545 S    
C24   C25   1.426980 A    
C15   H17   1.095647 S    
C14   H16   1.113802 S    
P1    O2    1.579128 S    
O6    P6    1.750678 S    
C49   O34   1.391055 S    
C48   O32   1.218613 D    
P2    O10   1.752628 S    
C18   C29   1.401167 A    
C17   C29   1.404005 A    
C8    H9    1.110619 S    
P3    O9    1.540543 D    
C35   C36   1.403806 A    
O8    Ba1   2.801930 S    
C12   C53   1.504653 S    
O11   C2    1.414411 S    
C40   C41   1.405319 A    
C19   C20   1.396378 A    
C19   C30   1.399150 A    
P3    C36   1.843376 S    
C11   O22   1.430756 S    
O53   H51   1.005250 S    
O14   Ba2   2.858933 S    
C10   H12   1.107088 S    
C55   O43   1.221336 D    
C37   C38   1.413599 A    
C37   C39   1.423561 A    
C4    H5    1.108987 S    
Ba2   O21   2.803742 S    
P1    Ba1   3.411461 S    
P5    O18   1.540996 D    
C52   O39   1.223133 D    
O7    Ba1   2.803683 S    
C48   H37   1.086690 S    
C56   O44   1.214627 D    
C61   H50   1.080588 S    
Ba1   O16   2.814057 S    
C47   O31   1.219207 D    
C58   H47   1.083497 S    
C28   H24   1.077355 S    
O14   P8    1.740569 S    
P4    O12   1.587463 D    
P8    O23   1.545444 D    
O42   H43   1.012552 S    
C42   C61   1.494297 S    
O2    Ba1   3.006450 S    
Ba1   O13   2.869600 S    
C1    H13   1.107474 S    
P3    O8    1.767727 S    
O36   H39   1.013789 S    
C44   O27   1.220991 D    
C7    C47   1.504902 S    
C12   H14   1.103130 S    
C50   O35   1.223095 D    
C51   O38   1.384884 S    
C63   O54   1.224765 D    
C41   C42   1.422462 A    
O2    Ba2   2.870266 S    
C39   C42   1.420159 A    
C13   C55   1.502034 S    
C40   H31   1.082321 S    
O6    C10   1.407275 S    
C35   H28   1.078354 S    
C57   O46   1.222245 D    
O12   Ba2   2.816770 S    
C7    H8    1.113359 S    
C62   O52   1.221091 D    
C45   H34   1.062091 S    
C18   C28   1.414899 A    
P2    O7    1.571892 D    
C3    C54   1.536338 S    
C4    O15   1.400217 S    
C14   C58   1.515948 S    
C21   H26   1.077369 S    
C17   C25   1.423205 A    
P4    O13   1.579109 S    
C31   C32   1.398669 A    
C9    H11   1.105788 S    
C9    H10   1.109613 S    
C49   O33   1.219707 D    
C2    C3    1.584720 S    
C54   O41   1.224158 D    
C33   C34   1.400468 A    
O17   Ba2   2.802459 S    
C43   O26   1.398135 S    
H22   C29   1.081684 S    
O13   Ba2   3.007422 S    
P2    O20   1.554804 S    
C51   O37   1.222204 D    
Ba1   Ba2   4.716163 S    
C22   C23   1.438634 A    
C1    C49   1.497172 S    
C55   H44   1.078480 S    
C1    C10   1.526256 S    
C24   C28   1.432867 A    
C25   C26   1.405198 A    
C4    C5    1.548885 S    
C6    C7    1.548832 S    
C52   H41   1.062481 S    
P5    O19   1.769184 S    
C46   O29   1.213153 D    
C6    C45   1.482450 S    
P7    C38   1.876427 S    
O30   H35   1.009048 S    
Ba1   O20   3.001331 S    
C37   C60   1.470462 S    
C34   N1    1.420625 S    
C47   H36   1.085593 S    
C63   O55   1.395605 S    
O3    P6    1.741116 S    
