data_mof_unit_55358.cif
_audit_creation_date              2012-12-10T18:13:09-0500
_audit_creation_method            fapswitch 2.2
_symmetry_space_group_name_H-M    P1
_symmetry_Int_Tables_number       1
_space_group_crystal_system       triclinic
_cell_length_a                    11.087809
_cell_length_b                    9.710484
_cell_length_c                    19.402204
_cell_angle_alpha                 90.02887
_cell_angle_beta                  88.552262
_cell_angle_gamma                 89.204606
_cell_volume                      2088.12751865

loop_
_atom_site_label
_atom_site_type_symbol
_atom_type_description
_atom_site_fract_x
_atom_site_fract_y
_atom_site_fract_z
_atom_type_partial_charge
C1    C     C_R   0.259901 0.500676 0.504640 0.778716
C2    C     C_R   0.463030 0.497310 0.071515 0.431533
C3    C     C_R   0.498565 0.630147 0.818947 -0.135646
C4    C     C_R   0.476571 0.380151 0.821454 -0.141435
C5    C     C_R   0.531307 0.620072 0.748211 0.323855
C6    C     C_R   0.501563 0.376473 0.749465 0.382054
C7    C     C_R   0.509334 0.499172 0.710926 -0.114070
C8    C     C_R   0.473331 0.508152 0.856197 -0.102051
C9    C     C_3   0.061749 0.541772 0.582377 0.276623
C10   C     C_3   0.073481 0.348910 0.488074 0.379240
C11   C     C_3   0.917474 0.555946 0.577257 0.384217
C12   C     C_3   0.930631 0.340899 0.498166 0.307106
C13   C     C_3   0.066969 0.604081 0.455386 -0.522493
C14   C     C_3   0.119635 0.499004 0.508450 -0.184029
C15   C     C_3   0.876327 0.493536 0.505555 -0.240979
C16   C     C_R   0.496641 0.500319 0.368241 0.860052
C17   C     C_3   0.931522 0.580974 0.445518 -0.536411
C18   C     C_3   0.617879 0.078971 0.474619 0.177175
C19   C     C_3   0.622826 0.914994 0.483387 0.373821
C20   C     C_3   0.482207 0.083553 0.573635 0.200567
C21   C     C_3   0.462082 0.918678 0.570839 0.188453
C22   C     C_3   0.404385 0.082270 0.455659 0.670791
C23   C     C_3   0.418849 0.916112 0.446640 0.666183
C24   C     C_R   0.738834 0.498416 0.500774 0.778513
C25   C     C_R   0.505626 0.499702 0.632818 0.795401
C26   C     C_R   0.386065 0.563800 0.260513 -0.024323
C27   C     C_R   0.578405 0.436959 0.250976 -0.039472
C28   C     C_R   0.373191 0.552447 0.188125 -0.060140
C29   C     C_R   0.566106 0.425562 0.179068 -0.046268
C30   C     C_R   0.465292 0.487748 0.147477 -0.059008
C31   C     C_R   0.486995 0.501148 0.292031 -0.107464
C32   C     C_R   0.465288 0.510660 0.932162 0.486259
Cu1   Cu    Cu3+1 0.499860 0.642410 0.500030 1.051952
Cu2   Cu    Cu3+1 0.499860 0.357590 0.500030 0.985913
H1    H     H_    0.884918 0.681995 0.440146 0.235794
H2    H     H_    0.920106 0.528068 0.395557 0.254839
H3    H     H_    0.694297 0.118622 0.503647 0.154824
H4    H     H_    0.688162 0.891714 0.523815 0.063886
H5    H     H_    0.080865 0.711781 0.471666 0.211920
H6    H     H_    0.112207 0.598874 0.404399 0.263022
N1    N     N_R   0.369138 0.448201 0.035691 -0.207288
N2    N     N_R   0.557252 0.554247 0.036508 -0.176291
N3    N     N_R   0.370202 0.454870 0.967095 -0.197785
N4    N     N_R   0.558686 0.560083 0.968070 -0.171023
N5    N     N_3   0.500250 0.143650 0.501520 -0.335223
N6    N     N_3   0.500250 0.856350 0.501520 -0.275207
O1    O     O_R   0.317570 0.620260 0.500040 -0.582649
O2    O     O_R   0.317570 0.379740 0.500040 -0.499048
O3    O     O_R   0.499870 0.620300 0.400170 -0.490914
O4    O     O_R   0.499870 0.379700 0.400170 -0.535783
O5    O     O_R   0.682190 0.620260 0.500020 -0.542553
O6    O     O_R   0.682190 0.379740 0.500020 -0.657839
O7    O     O_R   0.499890 0.620220 0.599880 -0.535442
O8    O     O_R   0.499890 0.379780 0.599880 -0.630888
C33   C     C_2   0.299173 0.647156 0.303673 0.461256
H7    H     H_    0.290766 0.628093 0.358273 0.095187
O9    O     O_2   0.241482 0.743195 0.279909 -0.529011
C34   C     C_2   0.692481 0.392913 0.282595 0.300714
H8    H     H_    0.732196 0.292373 0.271401 0.097625
O10   O     O_2   0.745607 0.473042 0.319058 -0.563938
O11   O     O_3   0.641733 0.112184 0.405278 -0.677671
H9    H     H_    0.654672 0.212198 0.402963 0.364722
O12   O     O_3   0.673308 0.850591 0.424067 -0.571107
H10   H     H_    0.758097 0.881495 0.418988 0.349235
O13   O     O_3   0.587177 0.104971 0.612205 -0.695384
H11   H     H_    0.623719 0.194038 0.600343 0.366692
O14   O     O_3   0.528313 0.861684 0.624592 -0.621440
H12   H     H_    0.615872 0.871414 0.617895 0.406709
O15   O     O_3   0.292340 0.106074 0.486625 -0.671177
H13   H     H_    0.229891 0.084647 0.452723 0.364971
O16   O     O_3   0.304916 0.853590 0.452466 -0.732896
H14   H     H_    0.256093 0.877242 0.411884 0.311861
O17   O     O_3   0.399869 0.152483 0.391787 -0.667439
H15   H     H_    0.458342 0.115653 0.357255 0.362935
O18   O     O_3   0.467891 0.883087 0.380412 -0.640828
H16   H     H_    0.407162 0.901331 0.344774 0.319262
C35   C     C_2   0.379658 0.152465 0.615437 0.730118
H17   H     H_    0.324559 0.233098 0.594654 0.100129
O19   O     O_2   0.356246 0.115258 0.674390 -0.445414
C36   C     C_2   0.335798 0.870971 0.590127 0.614526
H18   H     H_    0.326668 0.768593 0.610501 0.122715
O20   O     O_2   0.245162 0.942318 0.584827 -0.541641
C37   C     C_2   0.263730 0.606755 0.153987 0.529152
H19   H     H_    0.272195 0.664786 0.106371 0.081712
O21   O     O_2   0.163042 0.581864 0.177291 -0.463850
C38   C     C_2   0.660211 0.349226 0.137291 0.414788
H20   H     H_    0.753839 0.349509 0.152153 0.090140
O22   O     O_2   0.633490 0.281669 0.086954 -0.499457
C39   C     C_2   0.485487 0.770443 0.850455 0.483623
H21   H     H_    0.512258 0.860989 0.821495 0.124976
O23   O     O_2   0.438400 0.788601 0.907335 -0.489805
C40   C     C_2   0.456268 0.249568 0.860183 0.439687
H22   H     H_    0.482568 0.239869 0.913436 0.105328
O24   O     O_2   0.407584 0.152002 0.833173 -0.448141
O25   O     O_3   0.604267 0.716509 0.717695 -0.639231
H23   H     H_    0.651212 0.763266 0.753413 0.345655
O26   O     O_3   0.538211 0.256251 0.717920 -0.646859
H24   H     H_    0.578791 0.195908 0.751630 0.371736
C41   C     C_2   0.111306 0.675219 0.609452 0.325066
H25   H     H_    0.107644 0.765868 0.577817 0.106581
O27   O     O_2   0.144629 0.685195 0.668839 -0.456442
C42   C     C_2   0.116247 0.310000 0.413709 0.437162
H26   H     H_    0.090928 0.212082 0.391975 0.118343
O28   O     O_2   0.185228 0.379526 0.378824 -0.569831
O29   O     O_3   0.088901 0.441076 0.632191 -0.593772
H27   H     H_    0.178135 0.431048 0.634158 0.310688
O30   O     O_3   0.127518 0.246613 0.529010 -0.671590
H28   H     H_    0.097726 0.241530 0.577013 0.427271
O31   O     O_3   0.864969 0.482013 0.633057 -0.571917
H29   H     H_    0.775778 0.489694 0.631077 0.321596
O32   O     O_3   0.903579 0.265695 0.559017 -0.627453
H30   H     H_    0.815727 0.256472 0.565820 0.349461
C43   C     C_2   0.873728 0.706483 0.584096 0.330345
H31   H     H_    0.893509 0.780837 0.543927 0.052090
O33   O     O_2   0.820833 0.747090 0.636316 -0.462652
C44   C     C_2   0.879248 0.259895 0.438825 0.246296
H32   H     H_    0.841040 0.311933 0.395465 0.113273
O34   O     O_2   0.890108 0.134494 0.436979 -0.525665

loop_
_geom_bond_atom_site_label_1
_geom_bond_atom_site_label_2
_ccdc_geom_bond_type
C24   O6    A    
C33   H7    S    
C11   O31   S    
O17   H15   S    
O25   H23   S    
C4    C8    A    
C26   C33   S    
O26   H24   S    
C19   N6    S    
C35   H17   S    
C16   C31   S    
C20   C35   S    
C18   H3    S    
C16   O4    A    
C43   H31   S    
O15   H13   S    
C38   O22   D    
C27   C29   A    
C2    N1    A    
C34   O10   D    
C44   H32   S    
C18   C19   S    
C13   H6    S    
C11   C15   S    
C37   H19   S    
C19   O12   S    
O30   H28   S    
C17   H2    S    
C39   O23   D    
C22   O15   S    
C20   N5    S    
C24   O5    A    
C26   C31   A    
C9    C41   S    
C23   N6    S    
C13   C14   S    
C21   O14   S    
C28   C37   S    
Cu1   N6    S    
N1    N3    A    
C10   O30   S    
C42   H26   S    
N2    N4    A    
C5    O25   S    
C35   O19   D    
Cu1   O7    S    
Cu2   O4    S    
C27   C31   A    
O14   H12   S    
C8    C32   S    
C6    O26   S    
C23   O16   S    
C20   O13   S    
C10   C42   S    
C16   O3    A    
C4    C6    A    
C3    C8    A    
C10   C14   S    
C5    C7    A    
C9    C14   S    
C38   H20   S    
C1    O1    A    
C34   H8    S    
C43   O33   D    
O18   H16   S    
C29   C30   A    
C19   H4    S    
C41   H25   S    
C12   C15   S    
C40   O24   D    
Cu1   Cu2   S    
C32   N4    A    
C1    O2    A    
Cu2   N5    S    
C25   O8    A    
C42   O28   D    
C9    C11   S    
C29   C38   S    
C10   C12   S    
C36   O20   D    
C15   C24   S    
C37   O21   D    
Cu2   O8    S    
C33   O9    D    
Cu1   O1    S    
Cu2   O2    S    
C2    C30   S    
C18   N5    S    
C21   N6    S    
C15   C17   S    
O32   H30   S    
C41   O27   D    
Cu2   O6    S    
C23   O18   S    
C36   H18   S    
C3    C5    A    
C27   C34   S    
C18   O11   S    
C6    C7    A    
Cu1   O5    S    
O29   H27   S    
C26   C28   A    
C7    C25   S    
C13   C17   S    
C3    C39   S    
C28   C30   A    
O16   H14   S    
O31   H29   S    
C2    N2    A    
C21   C36   S    
C40   H22   S    
C32   N3    A    
C44   O34   D    
O11   H9    S    
C11   C43   S    
C13   H5    S    
O12   H10   S    
C22   N5    S    
C20   C21   S    
O13   H11   S    
Cu1   O3    S    
C22   C23   S    
C1    C14   S    
C17   H1    S    
C22   O17   S    
C12   C44   S    
C39   H21   S    
C9    O29   S    
C12   O32   S    
C25   O7    A    
C4    C40   S    
