data_mof_unit_28380.cif
_audit_creation_date              2012-12-10T18:05:42-0500
_audit_creation_method            fapswitch 2.2
_symmetry_space_group_name_H-M    P1
_symmetry_Int_Tables_number       1
_space_group_crystal_system       triclinic
_cell_length_a                    10.889286
_cell_length_b                    10.827436
_cell_length_c                    9.550207
_cell_angle_alpha                 90.056324
_cell_angle_beta                  90.964648
_cell_angle_gamma                 90.416312
_cell_volume                      1125.80851573

loop_
_atom_site_label
_atom_site_type_symbol
_atom_type_description
_atom_site_fract_x
_atom_site_fract_y
_atom_site_fract_z
_atom_type_partial_charge
C1    C     C_R   0.500059 0.262181 0.499925 0.782889
C2    C     C_R   0.499941 0.737819 0.500075 0.782891
C3    C     C_R   0.871729 0.497969 0.504033 -0.086118
C4    C     C_R   0.128271 0.502028 0.495967 -0.086118
C5    C     C_R   0.941460 0.473304 0.626701 -0.004704
C6    C     C_R   0.058540 0.526692 0.373299 -0.004704
C7    C     C_R   0.494064 0.063693 0.372778 -0.194138
C8    C     C_R   0.505936 0.936307 0.627222 -0.194138
C9    C     C_R   0.493860 0.935929 0.372842 -0.194913
C10   C     C_R   0.506140 0.064071 0.627158 -0.194913
C11   C     C_R   0.499864 0.871721 0.500067 -0.012499
C12   C     C_R   0.500136 0.128279 0.499933 -0.012499
C13   C     C_R   0.459123 0.399485 0.073272 -0.017960
C14   C     C_R   0.540877 0.600515 0.926728 -0.017959
C15   C     C_R   0.459279 0.399465 0.924894 -0.026430
C16   C     C_R   0.540721 0.600535 0.075106 -0.026427
C17   C     C_R   0.262237 0.501381 0.498506 0.793524
C18   C     C_R   0.737763 0.498618 0.501494 0.793523
C19   C     C_R   0.203545 0.696388 0.071874 -0.151181
C20   C     C_R   0.796450 0.303613 0.928125 -0.151179
C21   C     C_R   0.153864 0.672504 0.203285 -0.123140
C22   C     C_R   0.846131 0.327495 0.796715 -0.123137
C23   C     C_R   0.113071 0.552991 0.236342 0.135343
C24   C     C_R   0.886929 0.447006 0.763658 0.135340
C25   C     C_R   0.122328 0.457941 0.137546 -0.116644
C26   C     C_R   0.877677 0.542055 0.862454 -0.116647
C27   C     C_R   0.172732 0.481934 0.007063 -0.133144
C28   C     C_R   0.827272 0.518063 0.992938 -0.133146
C29   C     C_R   0.212593 0.601225 0.973609 -0.105513
C30   C     C_R   0.787407 0.398774 0.026392 -0.105517
C31   C     C_R   0.931563 0.524295 0.379222 -0.245694
C32   C     C_R   0.068437 0.475700 0.620778 -0.245694
Cu1   Cu    Cu3+1 0.500000 0.500020 0.640660 0.938705
Cu2   Cu    Cu3+1 0.500000 0.499980 0.359340 0.938705
H1    H     H_    0.251540 0.619697 0.872214 0.149837
H2    H     H_    0.748459 0.380303 0.127786 0.149837
H3    H     H_    0.425054 0.319104 0.869120 0.110730
H4    H     H_    0.574946 0.680896 0.130880 0.110730
H5    H     H_    0.091281 0.365317 0.162076 0.118292
H6    H     H_    0.908727 0.634676 0.837925 0.118295
H7    H     H_    0.182255 0.407165 0.933169 0.113344
H8    H     H_    0.817753 0.592831 0.066832 0.113346
H9    H     H_    0.489231 0.111570 0.273324 0.136790
H10   H     H_    0.510769 0.888430 0.726676 0.136790
H11   H     H_    0.488797 0.887748 0.273424 0.139610
H12   H     H_    0.511203 0.112252 0.726576 0.139610
H13   H     H_    0.424744 0.319173 0.127520 0.111774
H14   H     H_    0.575256 0.680827 0.872480 0.111774
N1    N     N_R   0.500030 0.500030 0.852070 -0.153068
N2    N     N_R   0.499970 0.499970 0.147930 -0.153068
O1    O     O_R   0.499990 0.319660 0.618740 -0.592377
O2    O     O_R   0.500010 0.680340 0.381260 -0.592376
O3    O     O_R   0.499990 0.319630 0.381170 -0.599015
O4    O     O_R   0.500010 0.680370 0.618830 -0.599014
O5    O     O_R   0.319650 0.500020 0.618780 -0.596322
O6    O     O_R   0.680350 0.499980 0.381220 -0.596322
O7    O     O_R   0.319640 0.500000 0.381210 -0.562708
O8    O     O_R   0.680360 0.500000 0.618790 -0.562708
H15   H     H_    0.235250 0.788484 0.046322 0.117289
H16   H     H_    0.764742 0.211519 0.953677 0.117290
H17   H     H_    0.147076 0.746612 0.278960 0.112431
H18   H     H_    0.852916 0.253388 0.721039 0.112431
H19   H     H_    0.879220 0.544805 0.285385 0.155007
H20   H     H_    0.120780 0.455190 0.714615 0.155007

loop_
_geom_bond_atom_site_label_1
_geom_bond_atom_site_label_2
_ccdc_geom_bond_type
Cu1   O5    S    
Cu2   O7    S    
C3    C31   A    
C9    H11   S    
Cu1   O8    S    
C1    O3    A    
C7    H9    S    
C22   H18   S    
C1    O1    A    
C29   H1    S    
C21   H17   S    
C13   C15   A    
C30   H2    S    
C5    C32   A    
C7    C9    A    
C28   C30   A    
Cu1   Cu2   S    
C20   C30   A    
C25   H5    S    
Cu2   O6    S    
C18   O6    A    
C9    C11   A    
C24   C26   A    
C26   H6    S    
C4    C32   A    
C1    C12   S    
C2    O2    A    
C3    C18   S    
C8    C11   A    
C2    C11   S    
C10   C12   A    
C28   H8    S    
C26   C28   A    
C19   C21   A    
C20   C22   A    
C6    C31   A    
C14   C16   A    
C15   N1    A    
C21   C23   A    
C7    C12   A    
C22   C24   A    
Cu2   N2    S    
C14   N1    A    
C25   C27   A    
C4    C17   S    
Cu1   N1    S    
C13   N2    A    
C19   C29   A    
C31   H19   S    
C10   H12   S    
C23   C25   A    
C16   H4    S    
C27   C29   A    
C32   H20   S    
Cu2   O3    S    
C4    C6    A    
C2    O4    A    
C17   O7    A    
Cu1   O4    S    
C13   H13   S    
C17   O5    A    
C5    C24   S    
C14   H14   S    
C19   H15   S    
C20   H16   S    
C6    C23   S    
Cu2   O2    S    
C18   O8    A    
C8    C10   A    
C15   H3    S    
Cu1   O1    S    
C8    H10   S    
C16   N2    A    
C27   H7    S    
C3    C5    A    
