data_mof_unit_66131.cif
_audit_creation_date              2012-12-11T17:26:03-0500
_audit_creation_method            fapswitch 2.2
_symmetry_space_group_name_H-M    P1
_symmetry_Int_Tables_number       1
_space_group_crystal_system       triclinic
_cell_length_a                    6.948263
_cell_length_b                    18.959376
_cell_length_c                    20.734986
_cell_angle_alpha                 107.58502
_cell_angle_beta                  90.237729
_cell_angle_gamma                 90.55382
_cell_volume                      2603.67987801

loop_
_atom_site_label
_atom_site_type_symbol
_atom_type_description
_atom_site_fract_x
_atom_site_fract_y
_atom_site_fract_z
_atom_type_partial_charge
O1    O     O_R   0.505770 0.444240 0.557370 -0.535619
O2    O     O_R   0.169820 0.415250 0.421330 -0.535805
O3    O     O_R   0.005590 0.555760 0.442630 -0.530081
C1    C     C_R   0.338715 0.393630 0.395293 0.719542
O4    O     O_R   0.175660 0.435500 0.555540 -0.537669
O5    O     O_R   0.011460 0.576150 0.577800 -0.533108
C2    C     C_R   0.344470 0.421170 0.575637 0.721202
O6    O     O_R   0.499890 0.423850 0.422200 -0.534627
O7    O     O_3   0.341200 0.546120 0.507150 -0.361835
V1    V     V_3+5 0.063980 0.491440 0.498670 1.455171
O8    O     O_R   0.682100 0.584750 0.578670 -0.535828
C3    C     C_R   0.852036 0.606238 0.604599 0.724161
O9    O     O_R   0.676270 0.564500 0.444460 -0.533392
C4    C     C_R   0.845143 0.578848 0.424361 0.720062
V2    V     V_3+5 0.564720 0.508560 0.501330 1.461538
O10   O     O_3   0.837360 0.453880 0.492850 -0.369344
C5    C     C_R   0.067011 0.784635 0.243007 0.554425
C6    C     C_R   0.905356 0.793316 0.205174 -0.103598
C7    C     C_R   0.731225 0.758514 0.212736 -0.190466
H1    H     H_    0.604966 0.764443 0.184075 0.208521
C8    C     C_R   0.718489 0.715706 0.257353 -0.181025
H2    H     H_    0.582666 0.689334 0.262263 0.212749
C9    C     C_R   0.879710 0.706950 0.295175 -0.104722
C10   C     C_R   0.054306 0.741724 0.287662 0.554092
C11   C     C_1   0.917207 0.838004 0.159034 0.102886
C12   C     C_1   0.865964 0.662111 0.341141 0.112238
C13   C     C_1   0.855659 0.624430 0.379269 -0.156088
C14   C     C_1   0.926706 0.875601 0.120815 -0.164042
C15   C     C_1   0.916340 0.831615 0.833089 -0.182247
C16   C     C_1   0.900972 0.780176 0.780819 0.019630
C17   C     C_1   0.881447 0.719789 0.719201 0.019317
C18   C     C_1   0.866083 0.668349 0.666931 -0.182318
C19   C     C_1   0.352949 0.331298 0.332773 -0.189015
C20   C     C_1   0.375709 0.280073 0.280655 0.015723
C21   C     C_1   0.406756 0.220023 0.219277 0.016844
C22   C     C_1   0.429511 0.168787 0.167167 -0.185011
H3    H     H_    0.662202 0.336648 0.740989 0.167505
C23   C     C_R   0.568093 0.256416 0.790470 -0.092097
C24   C     C_R   0.415907 0.207320 0.795089 -0.085886
C25   C     C_R   0.250566 0.202312 0.754338 0.641368
C26   C     C_R   0.233858 0.245251 0.710134 -0.180935
H4    H     H_    0.104810 0.240381 0.679510 0.150598
C27   C     C_R   0.381983 0.293902 0.705336 0.021342
C28   C     C_R   0.547689 0.299187 0.745422 -0.189479
C29   C     C_1   0.423363 0.162248 0.841174 0.124726
C30   C     C_1   0.365404 0.338257 0.659100 0.007737
C31   C     C_1   0.354225 0.375708 0.620822 -0.182455
C32   C     C_1   0.429668 0.124440 0.879262 -0.118660
O11   O     O_R   0.282550 0.076220 0.077760 -0.534317
O12   O     O_R   0.606940 0.064510 0.944450 -0.528290
O13   O     O_R   0.770980 0.923830 0.922210 -0.533613
C33   C     C_R   0.438239 0.078851 0.924332 0.714609
O14   O     O_R   0.612630 0.084760 0.078660 -0.535993
O15   O     O_R   0.776710 0.944230 0.057380 -0.535813
C34   C     C_R   0.443733 0.106429 0.104667 0.720034
O16   O     O_R   0.276820 0.055820 0.942590 -0.533499
O17   O     O_3   0.441200 0.953910 0.992830 -0.368475
V3    V     V_3+5 0.718480 0.008550 0.001330 1.470410
O18   O     O_R   0.106020 0.935440 0.055580 -0.532923
C35   C     C_R   0.937118 0.921119 0.075665 0.714359
O19   O     O_R   0.100330 0.915180 0.921370 -0.536851
C36   C     C_R   0.930397 0.893723 0.895422 0.726947
V4    V     V_3+5 0.217720 0.991360 0.998720 1.467281
O20   O     O_3   0.945130 0.046090 0.007170 -0.365679
F1    F     F_    0.212410 0.734146 0.323587 -0.656175
F2    F     F_    0.237007 0.817793 0.236781 -0.659695
C37   C     C_2   0.749568 0.264538 0.831141 0.846281
O21   O     O_2   0.861172 0.315724 0.833945 -0.566453
O22   O     O_R   0.795977 0.213810 0.865510 -0.645191
H5    H     H_    0.923652 0.225566 0.890537 0.308523
F3    F     F_    0.104388 0.155330 0.757193 -0.671498

loop_
_geom_bond_atom_site_label_1
_geom_bond_atom_site_label_2
_ccdc_geom_bond_type
O5    V1    S    
O12   C33   A    
O8    C3    A    
C30   C31   T    
C23   C28   A    
C15   C16   T    
O11   V4    S    
C25   F3    S    
C4    C13   S    
C26   H4    S    
O18   V4    S    
C7    H1    S    
O9    V2    S    
C24   C29   S    
O1    V2    S    
C1    O6    A    
O11   C34   A    
O12   V3    S    
H3    C28   S    
C8    C9    A    
C5    C6    A    
O7    V2    S    
O16   V4    S    
O18   C35   A    
O3    V1    S    
O15   C35   A    
O9    C4    A    
C3    C18   S    
C11   C14   T    
O5    C3    A    
C26   C27   A    
C16   C17   S    
C5    F2    S    
C23   C24   A    
O3    C4    A    
C10   F1    S    
C37   O21   D    
O14   V3    S    
O2    C1    A    
C22   C34   S    
C14   C35   S    
C25   C26   A    
C7    C8    A    
C9    C12   S    
C19   C20   T    
O6    V2    S    
O17   V3    S    
O22   H5    S    
O14   C34   A    
C27   C28   A    
V3    O20   S    
O19   C36   A    
O15   V3    S    
C6    C11   S    
C27   C30   S    
C5    C10   A    
C9    C10   A    
V2    O10   S    
O2    V1    S    
C33   O16   A    
O4    V1    S    
C32   C33   S    
C23   C37   S    
C15   C36   S    
O19   V4    S    
C20   C21   S    
O7    V1    S    
C29   C32   T    
O13   V3    S    
C24   C25   A    
O4    C2    A    
C1    C19   S    
C6    C7    A    
C12   C13   T    
V1    O10   S    
O13   C36   A    
O1    C2    A    
C8    H2    S    
O8    V2    S    
C17   C18   T    
C21   C22   T    
O17   V4    S    
V4    O20   S    
C37   O22   S    
C2    C31   S    
