data_mof_unit_40891.cif
_audit_creation_date              2012-10-26T20:48:49-0400
_audit_creation_method            fapswitch 2.2
_symmetry_space_group_name_H-M    P1
_symmetry_Int_Tables_number       1
_space_group_crystal_system       triclinic
_cell_length_a                    15.168311
_cell_length_b                    13.962412
_cell_length_c                    9.13049
_cell_angle_alpha                 89.995045
_cell_angle_beta                  92.086846
_cell_angle_gamma                 89.998848
_cell_volume                      1932.42936608

loop_
_atom_site_label
_atom_site_type_symbol
_atom_type_description
_atom_site_fract_x
_atom_site_fract_y
_atom_site_fract_z
_atom_type_partial_charge
C1    C     C_R   0.330080 0.500139 0.501346 0.534473
C2    C     C_R   0.577985 0.892658 0.528593 0.220551
C3    C     C_R   0.499758 0.500007 0.220647 0.544893
C4    C     C_R   0.500243 0.500002 0.779352 0.544912
C5    C     C_R   0.500026 0.055195 0.499993 -0.009712
C6    C     C_R   0.500001 0.945933 0.500040 -0.025896
C7    C     C_1   0.499910 0.500016 0.065451 -0.056048
C8    C     C_1   0.500090 0.500009 0.934549 -0.056038
C9    C     C_R   0.096681 0.585381 0.538970 -0.123554
C10   C     C_R   0.905465 0.418680 0.535171 -0.123198
C11   C     C_R   0.903313 0.585374 0.460978 -0.123576
C12   C     C_R   0.669919 0.500138 0.498655 0.534480
C13   C     C_R   0.094538 0.418673 0.464904 -0.123206
C14   C     C_R   0.188421 0.584938 0.538398 -0.120818
C15   C     C_R   0.813975 0.417470 0.530278 -0.135671
C16   C     C_R   0.811573 0.584930 0.461548 -0.120842
C17   C     C_R   0.186027 0.417464 0.469794 -0.135691
C18   C     C_R   0.233670 0.500839 0.503463 0.014670
C19   C     C_R   0.766329 0.500838 0.496542 0.014734
C20   C     C_R   0.048676 0.502398 0.500673 0.036018
C21   C     C_R   0.951322 0.502398 0.499339 0.036036
C22   C     C_3   0.680258 0.236411 0.735513 -0.068278
C23   C     C_R   0.547969 0.209916 0.606059 0.362254
C24   C     C_3   0.349395 0.756572 0.243276 -0.088942
C25   C     C_3   0.319725 0.236428 0.264571 -0.068292
C26   C     C_3   0.650588 0.756566 0.756779 -0.089011
C27   C     C_3   0.530383 0.036802 0.831869 -0.134840
C28   C     C_3   0.303648 0.947406 0.590328 -0.109338
C29   C     C_3   0.469584 0.036749 0.168178 -0.134576
C30   C     C_3   0.696982 0.945930 0.410001 -0.109534
C31   C     C_R   0.426305 0.791909 0.453742 0.350928
C32   C     C_R   0.452039 0.209918 0.393943 0.362287
C33   C     C_R   0.573693 0.791893 0.546280 0.350378
C34   C     C_R   0.545327 0.107921 0.611416 0.218861
C35   C     C_R   0.422005 0.892661 0.471468 0.220549
C36   C     C_R   0.454698 0.107925 0.388586 0.218620
Cu1   Cu    Cu3+1 0.500000 0.596430 0.500000 1.008363
Cu2   Cu    Cu3+1 0.500000 0.403570 0.500000 1.048462
H1    H     H_    0.063711 0.650428 0.570978 0.104565
H2    H     H_    0.709584 0.208345 0.633826 0.105058
H3    H     H_    0.688624 0.183798 0.825992 0.164735
H4    H     H_    0.296643 0.709577 0.196206 0.126451
H5    H     H_    0.412288 0.735409 0.192968 0.108653
H6    H     H_    0.332318 0.831585 0.212769 0.151825
H7    H     H_    0.281949 0.300924 0.229386 0.111262
H8    H     H_    0.290425 0.208367 0.366289 0.104859
H9    H     H_    0.311329 0.183813 0.174114 0.164733
H10   H     H_    0.703287 0.709507 0.803896 0.126426
H11   H     H_    0.587664 0.735497 0.807092 0.108715
H12   H     H_    0.939901 0.353919 0.568340 0.098923
H13   H     H_    0.667747 0.831567 0.787228 0.151864
H14   H     H_    0.494074 0.101096 0.869386 0.125473
H15   H     H_    0.568842 0.006587 0.926494 0.116941
H16   H     H_    0.483408 0.980567 0.792848 0.090812
H17   H     H_    0.342406 0.997970 0.661264 0.088822
H18   H     H_    0.296931 0.876881 0.645914 0.111657
H19   H     H_    0.236454 0.977812 0.574014 0.137267
H20   H     H_    0.516462 0.980417 0.207175 0.090983
H21   H     H_    0.506002 0.100979 0.130716 0.125476
H22   H     H_    0.431097 0.006642 0.073526 0.116852
H23   H     H_    0.936279 0.650413 0.428922 0.104470
H24   H     H_    0.658209 0.995226 0.336858 0.088203
H25   H     H_    0.704518 0.874697 0.356838 0.113107
H26   H     H_    0.763882 0.977089 0.426330 0.137192
H27   H     H_    0.060105 0.353904 0.431786 0.098921
H28   H     H_    0.223836 0.649973 0.567435 0.157599
H29   H     H_    0.780752 0.351394 0.554326 0.113940
H30   H     H_    0.776154 0.649959 0.432463 0.157175
H31   H     H_    0.219253 0.351382 0.445799 0.113916
H32   H     H_    0.718031 0.300902 0.770707 0.111232
N1    N     N_R   0.500000 0.258690 0.500000 -0.263567
N2    N     N_R   0.500000 0.741310 0.500000 -0.273607
O1    O     O_R   0.371460 0.581430 0.500010 -0.453345
O2    O     O_3   0.353111 0.744552 0.396793 -0.520933
O3    O     O_3   0.409384 0.262445 0.283532 -0.518506
O4    O     O_3   0.646873 0.744519 0.603270 -0.521365
O5    O     O_3   0.590124 0.060649 0.723981 -0.529661
O6    O     O_3   0.341286 0.937740 0.452315 -0.507553
O7    O     O_3   0.409865 0.060661 0.276066 -0.529795
O8    O     O_3   0.658665 0.937810 0.547720 -0.507698
O9    O     O_R   0.628540 0.418570 0.499990 -0.496068
O10   O     O_R   0.628540 0.581430 0.499990 -0.453358
O11   O     O_R   0.371460 0.418570 0.500010 -0.496109
O12   O     O_R   0.500000 0.581420 0.288390 -0.512513
O13   O     O_R   0.500000 0.418580 0.711610 -0.438753
O14   O     O_R   0.500000 0.581420 0.711610 -0.512393
O15   O     O_R   0.500000 0.418580 0.288390 -0.438723
O16   O     O_3   0.590606 0.262441 0.716475 -0.518566

loop_
_geom_bond_atom_site_label_1
_geom_bond_atom_site_label_2
_ccdc_geom_bond_type
C17   H31   S    
C30   H26   S    
Cu2   O11   S    
C24   H4    S    
C14   C18   A    
C4    C8    S    
C32   O3    S    
C28   H18   S    
C27   H16   S    
C7    C8    T    
C13   H27   S    
C28   H19   S    
C15   C19   A    
C1    C18   S    
C32   C36   A    
C3    C7    S    
C10   C15   A    
C34   O5    S    
C5    C6    S    
C22   H3    S    
C4    O14   A    
C5    C36   A    
C9    H1    S    
C6    C35   A    
C9    C20   A    
C33   N2    A    
C29   H21   S    
C26   O4    S    
Cu1   O12   S    
C16   H30   S    
C22   O16   S    
C28   O6    S    
C25   H9    S    
C26   H10   S    
C30   O8    S    
C22   H2    S    
C30   H25   S    
C2    C6    A    
C28   H17   S    
C32   N1    A    
C10   C21   A    
Cu2   O13   S    
C3    O15   A    
C23   N1    A    
Cu1   O14   S    
C26   H11   S    
C31   O2    S    
C4    O13   A    
C11   H23   S    
C11   C21   A    
C25   O3    S    
C9    C14   A    
Cu1   Cu2   S    
C11   C16   A    
C33   O4    S    
C29   O7    S    
C29   H22   S    
C23   C34   A    
C15   H29   S    
C5    C34   A    
C17   C18   A    
C14   H28   S    
C12   O10   A    
C20   C21   S    
C2    C33   A    
C31   N2    A    
C23   O16   S    
C30   H24   S    
Cu2   O9    S    
C24   H6    S    
C31   C35   A    
Cu1   O10   S    
C10   H12   S    
C25   H7    S    
C27   H14   S    
Cu1   O1    S    
Cu2   N1    S    
C13   C20   A    
C27   O5    S    
C36   O7    S    
C27   H15   S    
C1    O11   A    
C35   O6    S    
C13   C17   A    
Cu2   O15   S    
C1    O1    A    
C26   H13   S    
C24   O2    S    
C16   C19   A    
C12   C19   S    
C12   O9    A    
C2    O8    S    
C29   H20   S    
Cu1   N2    S    
C3    O12   A    
C24   H5    S    
C25   H8    S    
C22   H32   S    
