data_mof_unit_37392.cif
_audit_creation_date              2012-10-26T19:17:56-0400
_audit_creation_method            fapswitch 2.2
_symmetry_space_group_name_H-M    P1
_symmetry_Int_Tables_number       1
_space_group_crystal_system       triclinic
_cell_length_a                    10.795369
_cell_length_b                    12.318272
_cell_length_c                    13.211661
_cell_angle_alpha                 116.746827
_cell_angle_beta                  77.052738
_cell_angle_gamma                 101.486496
_cell_volume                      1519.23823037

loop_
_atom_site_label
_atom_site_type_symbol
_atom_type_description
_atom_site_fract_x
_atom_site_fract_y
_atom_site_fract_z
_atom_type_partial_charge
C1    C     C_R   0.513916 0.854872 0.286590 0.522713
C2    C     C_R   0.295467 0.241595 0.288224 -0.116135
C3    C     C_R   0.371261 0.157832 0.197490 -0.101493
C4    C     C_R   0.737178 0.001134 0.501960 0.542321
C5    C     C_R   0.352710 0.034990 0.178551 -0.095974
C6    C     C_R   0.259441 0.995963 0.251238 -0.057279
C7    C     C_R   0.184147 0.080030 0.343682 0.050272
C8    C     C_R   0.317779 0.280821 0.017131 -0.143343
C9    C     C_R   0.455230 0.227550 0.834439 -0.007324
C10   C     C_R   0.624971 0.811442 0.090891 -0.144424
C11   C     C_R   0.664413 0.729326 0.979697 -0.155704
C12   C     C_R   0.621619 0.841019 0.796510 -0.103046
C13   C     C_R   0.613040 0.607326 0.940094 -0.126342
C14   C     C_R   0.517498 0.564802 0.011223 0.034973
C15   C     C_R   0.470782 0.651162 0.122136 0.022134
C16   C     C_R   0.481417 0.144984 0.713329 0.540944
C17   C     C_R   0.467078 0.439598 0.976366 0.030659
C18   C     C_R   0.367581 0.404082 0.050084 0.048766
C19   C     C_R   0.315859 0.492189 0.154199 -0.144395
C20   C     C_R   0.364630 0.614148 0.188607 -0.126716
C21   C     C_R   0.511345 0.348312 0.869768 -0.138261
C22   C     C_R   0.361438 0.192710 0.909555 -0.148325
C23   C     C_R   0.037958 0.955391 0.567206 -0.156362
C24   C     C_R   0.531493 0.772815 0.163963 -0.007194
C25   C     C_R   0.702714 0.345428 0.326296 -0.154634
C26   C     C_R   0.327834 0.760408 0.646879 0.049504
C27   C     C_R   0.290571 0.664241 0.679239 -0.167715
C28   C     C_R   0.262886 0.998658 0.497706 0.543190
C29   C     C_R   0.354957 0.560249 0.623547 -0.143210
C30   C     C_R   0.458405 0.551345 0.534458 -0.012646
C31   C     C_R   0.493373 0.652619 0.504509 0.187304
C32   C     C_R   0.528938 0.446750 0.474676 -0.019788
C33   C     C_R   0.632060 0.445863 0.386487 0.030676
C34   C     C_R   0.129199 0.997112 0.495059 -0.002021
C35   C     C_R   0.664740 0.545368 0.359013 -0.180379
C36   C     C_R   0.597435 0.646479 0.416974 -0.091665
C37   C     C_R   0.502376 0.342203 0.498146 0.048983
C38   C     C_R   0.671874 0.245982 0.353715 0.042367
C39   C     C_R   0.643306 0.964492 0.817588 -0.093881
C40   C     C_R   0.740085 0.004024 0.747523 -0.056588
C41   C     C_R   0.815681 0.919810 0.655555 0.048227
C42   C     C_R   0.795633 0.796435 0.636827 -0.091257
C43   C     C_R   0.698550 0.757285 0.707010 -0.113170
C44   C     C_R   0.091450 0.040839 0.425686 -0.033293
C45   C     C_R   0.962141 0.044128 0.432143 -0.155912
C46   C     C_R   0.870944 0.002485 0.504324 -0.001762
C47   C     C_R   0.908715 0.958866 0.573726 -0.033467
C48   C     C_R   0.201817 0.202927 0.360955 -0.096339
Cu1   Cu    Cu3+1 0.529370 0.098270 0.475420 0.929025
Cu2   Cu    Cu3+1 0.470630 0.901730 0.524580 0.917014
H1    H     H_    0.444423 0.188129 0.141913 0.114678
H2    H     H_    0.583885 0.029255 0.887135 0.100731
H3    H     H_    0.316494 0.679168 0.267416 0.143548
H4    H     H_    0.725901 0.168046 0.307516 0.112725
H5    H     H_    0.744027 0.545525 0.292085 0.109434
H6    H     H_    0.781493 0.343987 0.258577 0.087736
H7    H     H_    0.425452 0.334659 0.563249 0.121300
H8    H     H_    0.277408 0.840814 0.690656 0.118534
H9    H     H_    0.322000 0.488632 0.652109 0.100950
H10   H     H_    0.211493 0.670331 0.747753 0.099014
H11   H     H_    0.631394 0.718365 0.390512 0.184701
H12   H     H_    0.247313 0.900917 0.236830 0.087476
H13   H     H_    0.753970 0.099424 0.762887 0.091821
H14   H     H_    0.852266 0.730147 0.565792 0.105193
H15   H     H_    0.681678 0.661698 0.690979 0.109770
H16   H     H_    0.932397 0.075722 0.377698 0.122355
H17   H     H_    0.145282 0.269103 0.432209 0.102142
H18   H     H_    0.310192 0.336745 0.302884 0.113886
H19   H     H_    0.545198 0.810242 0.849575 0.115668
H20   H     H_    0.411419 0.970225 0.108202 0.101527
H21   H     H_    0.067595 0.923711 0.621635 0.121987
H22   H     H_    0.316996 0.099101 0.882806 0.117571
H23   H     H_    0.236403 0.466886 0.209000 0.100172
H24   H     H_    0.241853 0.253314 0.072982 0.110036
H25   H     H_    0.586868 0.368427 0.809989 0.114008
H26   H     H_    0.672121 0.904257 0.121380 0.122273
H27   H     H_    0.650270 0.549622 0.853199 0.098315
H28   H     H_    0.738660 0.759617 0.924818 0.122058
N1    N     N_R   0.573890 0.246290 0.438210 -0.227511
N2    N     N_R   0.426890 0.754320 0.561170 -0.228717
O1    O     O_R   0.536940 0.972510 0.318130 -0.501299
O2    O     O_R   0.487330 0.806530 0.359650 -0.526604
O3    O     O_R   0.705160 0.082990 0.479250 -0.510117
O4    O     O_R   0.655550 0.917010 0.520760 -0.504743
O5    O     O_R   0.512670 0.193470 0.640350 -0.508308
O6    O     O_R   0.463060 0.027490 0.681870 -0.503666
O7    O     O_R   0.344450 0.082990 0.479240 -0.487476
O8    O     O_R   0.294840 0.917010 0.520750 -0.520199

loop_
_geom_bond_atom_site_label_1
_geom_bond_atom_site_label_2
_ccdc_geom_bond_type
C12   H19   S    
C27   C29   A    
C41   C42   A    
Cu1   O7    S    
C19   C20   A    
C25   H6    S    
C9    C21   A    
Cu2   O4    S    
C31   N2    A    
C4    C46   S    
C45   C46   A    
C37   N1    A    
C26   C27   A    
C29   C30   A    
C40   H13   S    
C9    C16   S    
C12   C43   A    
C2    H18   S    
C27   H10   S    
C30   C31   A    
C9    C22   A    
C38   N1    A    
C1    O1    A    
C18   C19   A    
Cu1   O1    S    
C10   H26   S    
C29   H9    S    
C4    O4    A    
C28   O8    A    
C8    C22   A    
Cu2   O8    S    
C39   H2    S    
C28   C34   S    
C13   C14   A    
C16   O6    A    
C14   C17   A    
C22   H22   S    
C15   C20   A    
C13   H27   S    
C23   C47   A    
C35   H5    S    
C23   H21   S    
C19   H23   S    
C34   C44   A    
C39   C40   A    
C3    H1    S    
C2    C48   A    
C1    O2    A    
C7    C44   S    
C8    C18   A    
Cu1   N1    S    
C35   C36   A    
C5    H20   S    
C11   H28   S    
Cu1   O5    S    
C25   C38   A    
C38   H4    S    
C43   H15   S    
C23   C34   A    
C28   O7    A    
C8    H24   S    
C17   C18   A    
C41   C47   S    
C32   C37   A    
C26   H8    S    
C40   C41   A    
C16   O5    A    
C42   C43   A    
C36   H11   S    
C42   H14   S    
C44   C45   A    
Cu2   O2    S    
C46   C47   A    
C15   C24   A    
C31   C36   A    
C20   H3    S    
C3    C5    A    
Cu2   N2    S    
C6    C7    A    
C21   H25   S    
C10   C24   A    
C32   C33   A    
Cu1   O3    S    
C12   C39   A    
C2    C3    A    
C7    C48   A    
C30   C32   A    
C11   C13   A    
C6    H12   S    
C5    C6    A    
C4    O3    A    
C33   C35   A    
C48   H17   S    
C26   N2    A    
C10   C11   A    
Cu2   O6    S    
C1    C24   S    
Cu1   Cu2   S    
C45   H16   S    
C14   C15   A    
C37   H7    S    
C25   C33   A    
C17   C21   A    
