data_mof_unit_44828.cif
_audit_creation_date              2012-12-11T15:41:25-0500
_audit_creation_method            fapswitch 2.2
_symmetry_space_group_name_H-M    P1
_symmetry_Int_Tables_number       1
_space_group_crystal_system       triclinic
_cell_length_a                    14.976422
_cell_length_b                    14.940429
_cell_length_c                    14.946506
_cell_angle_alpha                 108.9315
_cell_angle_beta                  110.10306
_cell_angle_gamma                 109.56403
_cell_volume                      2568.38248417

loop_
_atom_site_label
_atom_site_type_symbol
_atom_type_description
_atom_site_fract_x
_atom_site_fract_y
_atom_site_fract_z
_atom_type_partial_charge
C1    C     C_R   0.195525 0.993228 0.900941 0.699947
C2    C     C_R   0.810728 0.774082 0.280916 -0.105732
C3    C     C_R   0.292266 0.183977 0.659368 -0.150293
C4    C     C_R   0.710872 0.696154 0.183051 -0.139426
C5    C     C_R   0.296148 0.270861 0.737920 0.090328
C6    C     C_R   0.708634 0.656585 0.082673 0.098394
C7    C     C_R   0.198371 0.258126 0.737198 -0.155427
C8    C     C_R   0.807971 0.693452 0.082359 -0.183629
C9    C     C_R   0.099225 0.159812 0.660648 -0.053714
C10   C     C_R   0.907569 0.770902 0.180382 -0.042483
C11   C     C_R   0.096518 0.073543 0.584066 -0.031525
C12   C     C_R   0.784625 0.971811 0.062927 0.667339
C13   C     C_R   0.908932 0.811294 0.279475 -0.023649
C14   C     C_R   0.408538 0.474034 0.848464 -0.227086
C15   C     C_R   0.599997 0.468308 0.938879 -0.214032
C16   C     C_R   0.748016 0.222260 0.314264 -0.097215
C17   C     C_R   0.195859 0.790710 0.699237 -0.112466
C18   C     C_R   0.506050 0.571365 0.934706 0.072486
C19   C     C_R   0.499045 0.372424 0.881981 0.057386
C20   C     C_R   0.604461 0.567781 0.979984 0.017782
C21   C     C_R   0.402638 0.372840 0.823082 0.035431
C22   C     C_R   0.871720 0.527801 0.427800 -0.166302
C23   C     C_R   0.773748 0.325158 0.324955 0.023377
C24   C     C_R   0.964727 0.522221 0.621276 -0.165806
C25   C     C_R   0.963831 0.621059 0.520973 -0.162235
C26   C     C_R   0.872723 0.428994 0.528038 -0.160579
C27   C     C_R   0.017134 0.615272 0.614795 0.144622
C28   C     C_R   0.833739 0.428429 0.428024 0.141619
C29   C     C_R   0.593693 0.938592 0.566878 -0.123979
C30   C     C_R   0.395023 0.844906 0.375976 -0.152590
C31   C     C_R   0.593553 0.931763 0.472145 -0.189650
C32   C     C_R   0.395426 0.852835 0.470451 -0.205519
C33   C     C_R   0.494863 0.895716 0.379686 0.180976
C34   C     C_R   0.132419 0.697112 0.696845 0.028651
C35   C     C_R   0.495544 0.911468 0.569002 0.180315
C36   C     C_R   0.972881 0.851005 0.949056 -0.191271
C37   C     C_R   0.903452 0.979593 0.879251 -0.205698
C38   C     C_R   0.906015 0.881043 0.979654 -0.158709
C39   C     C_R   0.969942 0.949172 0.848368 -0.153675
C40   C     C_R   0.407208 0.903402 0.206110 0.699840
C41   C     C_R   0.589645 0.036021 0.774683 0.691750
C42   C     C_R   0.881017 0.955143 0.954655 0.183305
C43   C     C_R   0.017312 0.898599 0.896812 0.187059
C44   C     C_R   0.589427 0.293713 0.986730 -0.118860
C45   C     C_R   0.497214 0.929785 0.298917 -0.127580
C46   C     C_R   0.408772 0.683879 0.949208 -0.084120
C47   C     C_R   0.589772 0.993461 0.299255 -0.246573
C48   C     C_R   0.406600 0.936076 0.685130 -0.235755
C49   C     C_R   0.407412 0.205622 0.900548 -0.101450
C50   C     C_R   0.592304 0.777362 0.038078 -0.155416
C51   C     C_R   0.747755 0.314090 0.221830 -0.116193
C52   C     C_R   0.196739 0.699116 0.790389 -0.131344
C53   C     C_R   0.194952 0.901970 0.992216 -0.206466
C54   C     C_R   0.782164 0.060477 0.969067 -0.234206
C55   C     C_R   0.129869 0.927503 0.925666 -0.148741
C56   C     C_R   0.497688 0.956339 0.672458 -0.127418
C57   C     C_R   0.825261 0.000385 0.000411 -0.119653
C58   C     C_R   0.497406 0.292531 0.919601 0.030811
C59   C     C_R   0.502212 0.673047 0.973101 0.022449
C60   C     C_R   0.192815 0.085666 0.583094 -0.097619
F1    F     F_    0.161319 0.016606 0.819501 -0.761415
F2    F     F_    0.836415 0.954372 0.144267 -0.737341
F3    F     F_    0.302963 0.820632 0.156420 -0.759740
F4    F     F_    0.688083 0.104871 0.793073 -0.756488
H1    H     H_    0.190601 0.018647 0.523756 0.102778
H2    H     H_    0.675922 0.467698 0.973332 0.126280
H3    H     H_    0.838604 0.532076 0.353637 0.113265
H4    H     H_    0.999654 0.516788 0.694370 0.113067
H5    H     H_    0.998120 0.693549 0.514943 0.110037
H6    H     H_    0.840467 0.355369 0.532849 0.113859
H7    H     H_    0.671563 0.973652 0.639709 0.169682
H8    H     H_    0.316012 0.809545 0.305282 0.198279
H9    H     H_    0.671609 0.964266 0.475514 0.117712
H10   H     H_    0.317240 0.822878 0.466998 0.120980
H11   H     H_    0.999884 0.802573 0.978922 0.121585
H12   H     H_    0.812109 0.804822 0.357962 0.103582
H13   H     H_    0.875785 0.027293 0.848665 0.142631
H14   H     H_    0.757766 0.199907 0.377310 0.098849
H15   H     H_    0.167752 0.823589 0.647976 0.110441
H16   H     H_    0.880131 0.851384 0.028078 0.176185
H17   H     H_    0.992996 0.977208 0.797596 0.194541
H18   H     H_    0.673239 0.340644 0.007586 0.104575
H19   H     H_    0.323627 0.619688 0.901199 0.095232
H20   H     H_    0.673783 0.017306 0.351980 0.141018
H21   H     H_    0.321007 0.881367 0.623082 0.135006
H22   H     H_    0.321867 0.173667 0.845891 0.182218
H23   H     H_    0.366432 0.191814 0.658364 0.125647
H24   H     H_    0.676281 0.800407 0.068230 0.188927
H25   H     H_    0.756858 0.376589 0.198816 0.097678
H26   H     H_    0.169962 0.647528 0.823086 0.102763
H27   H     H_    0.168375 0.842819 0.017377 0.194447
H28   H     H_    0.809797 0.110119 0.935575 0.218126
H29   H     H_    0.019729 0.997270 0.525930 0.087670
H30   H     H_    0.986325 0.870644 0.355067 0.080079
H31   H     H_    0.635492 0.666330 0.185307 0.121515
H32   H     H_    0.199230 0.323085 0.797624 0.114698
H33   H     H_    0.808122 0.661672 0.006185 0.114704
H34   H     H_    0.024600 0.150104 0.661423 0.103314
H35   H     H_    0.983773 0.799246 0.179530 0.106954
H36   H     H_    0.335327 0.475900 0.804661 0.123339
N1    N     N_R   0.293810 0.002730 0.945950 -0.103458
N2    N     N_R   0.443210 0.997250 0.791090 -0.067809
N3    N     N_R   0.443180 0.152110 0.945950 -0.047832
N4    N     N_R   0.556820 0.847890 0.054050 -0.047788
N5    N     N_R   0.706170 0.208950 0.152090 -0.042313
N6    N     N_R   0.293830 0.791050 0.847910 -0.043683
N7    N     N_R   0.293800 0.945910 0.002760 -0.074331
N8    N     N_R   0.706200 0.054090 0.997240 -0.079809
N9    N     N_R   0.706190 0.997270 0.054050 -0.103106
N10   N     N_R   0.706160 0.152130 0.208910 -0.038129
N11   N     N_R   0.293840 0.847870 0.791090 -0.043741
N12   N     N_R   0.443140 0.945920 0.152090 -0.096088
N13   N     N_R   0.556860 0.054080 0.847910 -0.097342
N14   N     N_R   0.556830 0.208940 0.002760 -0.050611
N15   N     N_R   0.443170 0.791060 0.997240 -0.043643
N16   N     N_R   0.556790 0.002750 0.208910 -0.071870
Ni1   Ni    Ni4+2 0.369690 0.999990 0.869700 0.240769
Ni2   Ni    Ni4+2 0.630310 0.000010 0.130300 0.245639
Ni3   Ni    Ni4+2 0.369670 0.869670 0.000000 0.246501
Ni4   Ni    Ni4+2 0.630330 0.130330 0.000000 0.232178

loop_
_geom_bond_atom_site_label_1
_geom_bond_atom_site_label_2
_ccdc_geom_bond_type
N1    N7    A    
N5    N10   A    
C50   N4    A    
C9    H34   S    
N6    Ni3   S    
C33   C45   S    
C14   C18   A    
C52   H26   S    
C24   C27   A    
N10   Ni2   S    
C16   N10   A    
C40   N12   A    
C15   C19   A    
C7    H32   S    
C40   F3    S    
C46   N15   A    
C6    C8    A    
C50   C59   A    
C14   C21   A    
C19   C21   A    
C24   C26   A    
C38   C42   A    
C44   H18   S    
C32   H10   S    
C46   C59   A    
C31   H9    S    
N4    N15   A    
C17   H15   S    
N8    N9    A    
C48   C56   A    
C37   C42   A    
C2    C13   A    
N8    Ni4   S    
C44   C58   A    
C22   C25   A    
C53   H27   S    
C31   C33   A    
N5    Ni4   S    
C18   C20   A    
C50   H24   S    
C3    C60   A    
C11   H29   S    
C45   C47   A    
C44   N14   A    
C19   C58   S    
C22   C28   A    
N3    Ni1   S    
C17   N11   A    
C42   C57   S    
N7    Ni3   S    
C12   N9    A    
N9    Ni2   S    
N4    Ni2   S    
N6    N11   A    
C53   C55   A    
C27   C34   S    
C40   C45   A    
C3    H23   S    
C32   C35   A    
N3    N14   A    
C39   H17   S    
C4    C6    A    
C5    C7    A    
C39   C43   A    
C47   H20   S    
C15   H2    S    
C37   H13   S    
C49   C58   A    
C15   C20   A    
C2    C4    A    
C8    H33   S    
C41   C56   A    
C54   H28   S    
C36   H11   S    
N13   Ni4   S    
C12   F2    S    
C53   N7    A    
C23   C51   A    
C51   N5    A    
C48   N2    A    
C23   C28   S    
C9    C11   A    
N2    Ni1   S    
C12   C57   A    
C43   C55   S    
C60   H1    S    
C16   C23   A    
N15   Ni3   S    
C26   H6    S    
C25   H5    S    
C17   C34   A    
C4    H31   S    
C11   C60   A    
C1    N1    A    
N12   N16   A    
C2    H12   S    
C7    C9    A    
C30   C33   A    
C35   C56   S    
C34   C52   A    
C49   H22   S    
C8    C10   A    
C41   N13   A    
C3    C5    A    
C10   C13   A    
C1    F1    S    
C49   N3    A    
N12   Ni3   S    
C30   H8    S    
C14   H36   S    
C25   C27   A    
C6    C20   S    
C29   C35   A    
C26   C28   A    
C54   N8    A    
C13   H30   S    
N11   Ni1   S    
N1    Ni1   S    
C36   C38   A    
C1    C55   A    
C29   C31   A    
N2    N13   A    
C51   H25   S    
C30   C32   A    
C38   H16   S    
C47   N16   A    
N16   Ni2   S    
C16   H14   S    
C10   H35   S    
C22   H3    S    
C24   H4    S    
C52   N6    A    
C46   H19   S    
C18   C59   S    
C5    C21   S    
C37   C39   A    
C48   H21   S    
C36   C43   A    
C41   F4    S    
N14   Ni4   S    
C29   H7    S    
C54   C57   A    
