data_mof_unit_15437.cif
_audit_creation_date              2012-12-11T16:26:25-0500
_audit_creation_method            fapswitch 2.2
_symmetry_space_group_name_H-M    P1
_symmetry_Int_Tables_number       1
_space_group_crystal_system       triclinic
_cell_length_a                    6.950429
_cell_length_b                    17.335038
_cell_length_c                    19.801197
_cell_angle_alpha                 108.170339
_cell_angle_beta                  90.42975
_cell_angle_gamma                 90.535069
_cell_volume                      2266.56153928

loop_
_atom_site_label
_atom_site_type_symbol
_atom_type_description
_atom_site_fract_x
_atom_site_fract_y
_atom_site_fract_z
_atom_type_partial_charge
O1    O     O_R   0.494330 0.415720 0.413720 -0.552248
O2    O     O_R   0.819330 0.430070 0.560210 -0.486379
O3    O     O_R   0.994320 0.584280 0.586280 -0.518097
C1    C     C_R   0.650868 0.416543 0.582860 0.773199
O4    O     O_R   0.823730 0.406300 0.412670 -0.547729
O5    O     O_R   0.998760 0.560340 0.437690 -0.549765
C2    C     C_R   0.654159 0.382643 0.385327 0.627158
O6    O     O_R   0.489890 0.439660 0.562310 -0.546261
O7    O     O_3   0.662340 0.550560 0.508380 -0.369414
V1    V     V_3+5 0.935370 0.490620 0.498450 1.614380
O8    O     O_R   0.328750 0.569930 0.439790 -0.531143
C3    C     C_R   0.160013 0.583127 0.416721 0.739692
O9    O     O_R   0.324340 0.593700 0.587330 -0.529116
C4    C     C_R   0.156981 0.617621 0.614686 0.794137
V2    V     V_3+5 0.435940 0.509380 0.501550 1.553915
O10   O     O_3   0.159100 0.449440 0.491620 -0.351670
H1    H     H_    0.080644 0.878183 0.570919 0.206175
C5    C     C_R   0.202562 0.584224 0.753454 -0.002835
C6    C     C_R   0.206961 0.566441 0.818219 0.032346
C7    C     C_R   0.181837 0.628330 0.880443 -0.076486
C8    C     C_R   0.151813 0.707853 0.881625 -0.013075
C9    C     C_R   0.142850 0.729809 0.817378 -0.002884
C10   C     C_R   0.166225 0.665602 0.751083 0.012376
C11   C     C_R   0.114270 0.812447 0.817482 -0.134034
C12   C     C_R   0.097184 0.829731 0.751415 0.002400
C13   C     C_R   0.132279 0.766496 0.685938 -0.024290
C14   C     C_R   0.155771 0.684284 0.685084 -0.142602
C15   C     C_R   0.048574 0.908859 0.746922 0.362682
C16   C     C_R   0.025362 0.921486 0.681384 -0.226251
C17   C     C_R   0.077195 0.862956 0.619993 -0.148704
C18   C     C_R   0.144409 0.788869 0.622325 0.337851
H2    H     H_    0.184727 0.613976 0.930123 0.169258
H3    H     H_    0.985746 0.980664 0.678384 0.172683
C19   C     C_R   0.990491 0.627015 0.322696 -0.156222
C20   C     C_R   0.149622 0.633258 0.368096 -0.084371
C21   C     C_R   0.296852 0.688911 0.368368 -0.075414
C22   C     C_R   0.282640 0.742250 0.327420 0.029681
C23   C     C_R   0.125516 0.732946 0.279285 0.059332
C24   C     C_R   0.978404 0.674802 0.276724 0.007289
C25   C     C_R   0.420752 0.804952 0.334110 -0.118940
C26   C     C_R   0.402585 0.856603 0.291638 0.421493
C27   C     C_R   0.258515 0.841784 0.238144 0.054337
C28   C     C_R   0.116029 0.781383 0.233535 -0.009503
C29   C     C_R   0.962273 0.770415 0.183893 -0.017587
C30   C     C_R   0.813852 0.713658 0.182701 0.351007
C31   C     C_R   0.821633 0.666323 0.228937 0.327521
C32   C     C_R   0.252183 0.886696 0.189614 -0.098646
C33   C     C_R   0.107208 0.873165 0.137570 -0.059751
C34   C     C_R   0.960505 0.816519 0.136423 -0.015591
H4    H     H_    0.878498 0.583282 0.322735 0.166561
H5    H     H_    0.420811 0.691179 0.402184 0.142204
H6    H     H_    0.358906 0.932776 0.191848 0.210842
H7    H     H_    0.846866 0.807769 0.097063 0.180995
C35   C     C_R   0.694197 0.207790 0.887311 -0.134742
C36   C     C_R   0.626673 0.127736 0.863958 -0.017353
C37   C     C_R   0.573442 0.091797 0.791396 -0.046176
C38   C     C_R   0.588708 0.138418 0.742770 -0.040907
C39   C     C_R   0.638052 0.222817 0.770706 0.082853
C40   C     C_R   0.691204 0.256188 0.842699 0.045165
C41   C     C_R   0.555791 0.105428 0.667661 -0.068465
C42   C     C_R   0.543260 0.157754 0.626267 -0.066379
C43   C     C_R   0.583517 0.240662 0.654710 0.082115
C44   C     C_R   0.637195 0.274052 0.726698 -0.025519
C45   C     C_R   0.687788 0.358419 0.754613 -0.018923
C46   C     C_R   0.730822 0.390168 0.828856 0.422299
C47   C     C_R   0.736637 0.338631 0.870641 -0.201649
C48   C     C_R   0.579275 0.289249 0.610197 -0.157438
C49   C     C_R   0.641374 0.369996 0.634323 -0.116572
C50   C     C_R   0.693716 0.405666 0.706612 0.390269
H8    H     H_    0.742763 0.233964 0.941776 0.112805
H9    H     H_    0.513726 0.132685 0.569669 0.193168
H10   H     H_    0.532631 0.263019 0.555507 0.139549
H11   H     H_    0.771822 0.364103 0.926756 0.176803
C51   C     C_R   0.450775 0.399905 0.264968 -0.135654
C52   C     C_R   0.346728 0.412668 0.209805 -0.106690
C53   C     C_R   0.347908 0.355404 0.143613 -0.073450
C54   C     C_R   0.453610 0.283997 0.131456 -0.024107
C55   C     C_R   0.539089 0.263438 0.190126 -0.025298
C56   C     C_R   0.541979 0.324753 0.258160 0.084161
C57   C     C_R   0.621482 0.185649 0.183288 -0.156806
C58   C     C_R   0.714866 0.171934 0.243206 0.008061
C59   C     C_R   0.731559 0.235931 0.309796 -0.087623
C60   C     C_R   0.641070 0.312626 0.317376 -0.119271
C61   C     C_R   0.792384 0.094580 0.239447 0.315166
C62   C     C_R   0.925697 0.087552 0.289318 -0.158904
C63   C     C_R   0.951936 0.149472 0.352235 0.395488
C64   C     C_R   0.835502 0.218940 0.366872 -0.122314
H12   H     H_    0.458321 0.451403 0.312402 0.134632
H13   H     H_    0.274018 0.469733 0.217451 0.165447
H14   H     H_    0.278227 0.370354 0.100217 0.170022
H15   H     H_    0.994675 0.029812 0.282556 0.202018
O11   O     O_R   0.775200 0.060470 0.937800 -0.515589
O12   O     O_R   0.441110 0.093720 0.087350 -0.544152
O13   O     O_R   0.266330 0.939630 0.062280 -0.521926
C65   C     C_R   0.610580 0.117964 0.114243 0.736167
O14   O     O_R   0.445750 0.069950 0.939820 -0.519084
O15   O     O_R   0.271000 0.915700 0.913700 -0.514754
C66   C     C_R   0.614513 0.082783 0.916662 0.810977
O16   O     O_R   0.770530 0.084400 0.086380 -0.537595
O17   O     O_3   0.602830 0.949510 0.991680 -0.355036
V3    V     V_3+5 0.329710 0.009370 0.001550 1.642450
O18   O     O_R   0.940990 0.906170 0.912570 -0.528025
C67   C     C_R   0.108874 0.881390 0.885962 0.766876
O19   O     O_R   0.936350 0.929940 0.060100 -0.534085
C68   C     C_R   0.103656 0.919901 0.085656 0.734509
V4    V     V_3+5 0.829160 0.990450 0.998310 1.617346
O20   O     O_3   0.105910 0.050480 0.008320 -0.366586
C69   C     C_2   0.578495 0.819646 0.388156 0.519420
H16   H     H_    0.550688 0.815150 0.440633 0.086063
O21   O     O_2   0.741825 0.835822 0.374203 -0.490746
Cl1   Cl    Cl    0.544778 0.946259 0.312916 -0.521271
Cl2   Cl    Cl    0.614108 0.701486 0.123957 -0.529524
Cl3   Cl    Cl    0.632800 0.595837 0.225645 -0.647469
C70   C     C_2   0.488520 0.008655 0.768902 0.381122
H17   H     H_    0.371252 0.994091 0.730817 0.080234
O22   O     O_2   0.550282 0.955482 0.791339 -0.514858
C71   C     C_2   0.557362 0.017108 0.628087 0.392343
H18   H     H_    0.642200 0.975989 0.647223 0.064532
O23   O     O_2   0.466810 0.989396 0.572501 -0.495705
C72   C     C_2   0.269697 0.519535 0.691790 0.476378
H19   H     H_    0.416535 0.523062 0.676641 0.053485
O24   O     O_2   0.163347 0.464071 0.658414 -0.464664
Cl4   Cl    Cl    0.765926 0.508934 0.732445 -0.622348
Cl5   Cl    Cl    0.765519 0.493637 0.877423 -0.595892
Cl6   Cl    Cl    0.108336 0.129147 0.415241 -0.519410
C73   C     C_2   0.493515 0.241067 0.056102 0.391891
H20   H     H_    0.631444 0.212824 0.041413 -0.035675
O25   O     O_2   0.375599 0.239514 0.009591 -0.532286
C74   C     C_2   0.244863 0.484510 0.825420 0.502089
H21   H     H_    0.287985 0.479646 0.876751 0.075881
O26   O     O_2   0.222556 0.421834 0.776206 -0.502967
Cl7   Cl    Cl    0.703711 0.000413 0.184203 -0.642855
C75   C     C_2   0.795441 0.261966 0.442347 0.545002
H22   H     H_    0.651318 0.283172 0.457225 -0.040382
O27   O     O_2   0.920415 0.274000 0.488222 -0.484035
C76   C     C_2   0.125622 0.762845 0.953620 0.356005
H23   H     H_    0.992885 0.795662 0.967409 0.033766
O28   O     O_2   0.248384 0.766747 0.999057 -0.503780
Cl8   Cl    Cl    0.028959 0.000205 0.817322 -0.658788
Cl9   Cl    Cl    0.285042 0.739148 0.548789 -0.703343

loop_
_geom_bond_atom_site_label_1
_geom_bond_atom_site_label_2
_ccdc_geom_bond_type
C29   C34   A    
C6    C74   S    
C2    C60   S    
C36   C37   A    
O13   C68   A    
V3    O20   S    
C73   H20   S    
C26   C27   A    
C64   C75   S    
C6    C7    A    
C1    O6    A    
O19   V4    S    
C58   C59   A    
C62   H15   S    
C30   Cl2   S    
O11   C66   A    
C54   C55   A    
C37   C38   A    
C12   C15   A    
C13   C14   A    
C22   C23   A    
C43   C48   A    
C21   C22   A    
C48   H10   S    
C22   C25   A    
C71   O23   D    
C40   C47   A    
O5    C3    A    
C17   C18   A    
C65   O16   A    
V4    O20   S    
C50   Cl4   S    
C59   C64   A    
C16   H3    S    
C69   H16   S    
C19   C20   A    
C46   Cl5   S    
C52   C53   A    
O9    C4    A    
O8    V2    S    
C61   C62   A    
C20   C21   A    
O13   V3    S    
C49   C50   A    
O14   C66   A    
O1    V2    S    
C10   C14   A    
C4    C14   S    
C16   C17   A    
O7    V1    S    
C8    C76   S    
C25   C69   S    
C42   H9    S    
C13   C18   A    
O12   C65   A    
O1    C2    A    
O14   V3    S    
C63   Cl6   S    
H1    C17   S    
O18   C67   A    
C15   Cl8   S    
O19   C68   A    
C72   O24   D    
C70   H17   S    
C35   C40   A    
C9    C10   A    
C19   H4    S    
C51   C52   A    
C48   C49   A    
C32   C33   A    
C53   C54   A    
C76   O28   D    
O12   V3    S    
C1    C49   S    
C55   C56   A    
C5    C6    A    
C38   C41   A    
C12   C13   A    
C62   C63   A    
C47   H11   S    
C61   Cl7   S    
C19   C24   A    
C41   C42   A    
C3    C20   S    
O2    C1    A    
C28   C29   A    
C43   C44   A    
C33   C68   S    
C35   H8    S    
C41   C71   S    
C45   C50   A    
C11   C12   A    
C57   C65   S    
C21   H5    S    
O15   C67   A    
O3    C4    A    
C24   C31   A    
O11   V4    S    
C33   C34   A    
C59   C60   A    
O6    V2    S    
C51   C56   A    
O9    V2    S    
C75   H22   S    
C9    C11   A    
C27   C28   A    
O2    V1    S    
C5    C72   S    
C58   C61   A    
C29   C30   A    
O4    C2    A    
C74   H21   S    
C7    H2    S    
C39   C44   A    
O16   V4    S    
C35   C36   A    
C15   C16   A    
C73   O25   D    
C31   Cl3   S    
C63   C64   A    
C57   C58   A    
O5    V1    S    
C70   O22   D    
O8    C3    A    
C32   H6    S    
O17   V4    S    
C11   C67   S    
C45   C46   A    
C39   C40   A    
O4    V1    S    
O3    V1    S    
V1    O10   S    
C71   H18   S    
C56   C60   A    
C38   C39   A    
C23   C24   A    
C5    C10   A    
C34   H7    S    
C36   C66   S    
O17   V3    S    
C69   O21   D    
O18   V4    S    
C55   C57   A    
C27   C32   A    
O7    V2    S    
C42   C43   A    
C52   H13   S    
C44   C45   A    
C30   C31   A    
C23   C28   A    
C7    C8    A    
C46   C47   A    
C26   Cl1   S    
C75   O27   D    
C37   C70   S    
C72   H19   S    
C76   H23   S    
C25   C26   A    
C51   H12   S    
C18   Cl9   S    
C8    C9    A    
O15   V3    S    
C54   C73   S    
V2    O10   S    
C53   H14   S    
C74   O26   D    
