data_mof_unit_39379.cif
_audit_creation_date              2013-03-05T16:03:27-0500
_audit_creation_method            fapswitch 2.2
_symmetry_space_group_name_H-M    P1
_symmetry_Int_Tables_number       1
_space_group_crystal_system       triclinic
_cell_length_a                    6.95881
_cell_length_b                    18.444821
_cell_length_c                    20.010904
_cell_angle_alpha                 68.457949
_cell_angle_beta                  89.988369
_cell_angle_gamma                 91.451886
_cell_volume                      2388.17525875

loop_
_atom_site_label
_atom_site_type_symbol
_atom_site_description
_atom_site_fract_x
_atom_site_fract_y
_atom_site_fract_z
_atom_type_partial_charge
O1    O     O_R   0.488960 0.443750 0.941980 -0.605426
O2    O     O_R   0.823890 0.406510 0.087590 -0.609517
O3    O     O_R   0.999680 0.556250 0.058020 -0.616471
C1    C     C_R   0.653437 0.385270 0.116250 0.906118
O4    O     O_R   0.818360 0.434410 0.944340 -0.562034
O5    O     O_R   0.994110 0.584350 0.913750 -0.557159
C2    C     C_R   0.648722 0.419003 0.925167 0.961148
O6    O     O_R   0.494530 0.415650 0.086250 -0.576386
O7    O     O_3   0.662590 0.549160 0.990130 -0.217351
V1    V     V_3+5 0.935320 0.490880 0.001830 1.247680
O8    O     O_R   0.324180 0.593490 0.912410 -0.569072
C3    C     C_R   0.158778 0.618599 0.885634 0.884941
O9    O     O_R   0.329720 0.565590 0.055660 -0.532199
C4    C     C_R   0.162512 0.580156 0.075593 1.012242
V2    V     V_3+5 0.435990 0.509120 0.998170 1.286214
O10   O     O_3   0.158850 0.450840 0.009870 -0.281692
C5    C     C_3   0.049593 0.705738 0.309495 0.276257
C6    C     C_3   0.241416 0.687230 0.280917 -0.159506
H1    H     H_    0.330247 0.635563 0.307669 0.187601
C7    C     C_1   0.159411 0.626781 0.120046 -0.182762
C8    C     C_1   0.106363 0.873471 0.379224 -0.087993
C9    C     C_3   0.957719 0.727460 0.234745 -0.265346
C10   C     C_3   0.149513 0.710517 0.205369 0.054197
C11   C     C_3   0.028141 0.812576 0.216764 0.326262
C12   C     C_3   0.114964 0.791195 0.292234 -0.119964
C13   C     C_3   0.218783 0.796584 0.185849 -0.198692
C14   C     C_3   0.305137 0.773792 0.262183 -0.172775
C15   C     C_1   0.158077 0.665133 0.157961 0.219099
C16   C     C_1   0.107326 0.835768 0.340631 0.293515
H2    H     H_    0.289797 0.834548 0.134877 0.205133
C17   C     C_R   0.342589 0.776796 0.861615 0.283987
C18   C     C_R   0.355428 0.851889 0.863236 -0.207604
C19   C     C_R   0.267939 0.913459 0.811364 -0.196179
C20   C     C_R   0.176217 0.902771 0.753691 0.306800
C21   C     C_R   0.169349 0.827532 0.748573 -0.049867
C22   C     C_R   0.227063 0.761727 0.808651 -0.034124
C23   C     C_R   0.106379 0.816699 0.685557 -0.195817
C24   C     C_R   0.053295 0.740894 0.688557 0.115509
C25   C     C_R   0.086105 0.674050 0.751566 0.042752
C26   C     C_R   0.163730 0.684910 0.813912 -0.192065
C27   C     C_R   0.962438 0.731384 0.629261 -0.353025
C28   C     C_R   0.893495 0.659214 0.631415 0.261125
C29   C     C_R   0.939304 0.592162 0.690199 0.310812
C30   C     C_R   0.046147 0.598547 0.748326 -0.333928
H3    H     H_    0.440673 0.863386 0.903727 0.203273
H4    H     H_    0.273951 0.970412 0.815502 0.201966
H5    H     H_    0.934360 0.780745 0.581127 0.176684
C31   C     C_R   0.552442 0.101448 0.242331 0.154155
C32   C     C_R   0.482002 0.097067 0.177728 0.357650
C33   C     C_R   0.461143 0.165051 0.117898 -0.238052
C34   C     C_R   0.512652 0.236916 0.120644 -0.226016
C35   C     C_R   0.576281 0.244109 0.185087 0.113423
C36   C     C_R   0.584384 0.175795 0.248436 -0.066417
C37   C     C_R   0.635924 0.317996 0.186030 -0.219490
C38   C     C_R   0.689936 0.325440 0.252379 0.085256
C39   C     C_R   0.695118 0.256962 0.315743 0.063819
C40   C     C_R   0.631469 0.183418 0.314914 -0.218128
C41   C     C_R   0.736579 0.399058 0.258485 -0.123877
C42   C     C_R   0.820794 0.401836 0.322195 -0.203403
C43   C     C_R   0.839925 0.332556 0.382301 0.331566
C44   C     C_R   0.767233 0.262620 0.379632 -0.253844
H6    H     H_    0.410127 0.162144 0.067775 0.189934
H7    H     H_    0.500581 0.286717 0.071157 0.137713
H8    H     H_    0.777320 0.211588 0.428116 0.148374
O11   O     O_R   0.770540 0.084530 0.414050 -0.581472
O12   O     O_R   0.445710 0.065660 0.555720 -0.577322
O13   O     O_R   0.270420 0.915650 0.586190 -0.599263
C45   C     C_R   0.614746 0.079404 0.576535 0.982311
O14   O     O_R   0.441140 0.093540 0.412470 -0.592574
O15   O     O_R   0.265820 0.943740 0.441930 -0.563690
C46   C     C_R   0.612086 0.115323 0.384178 0.984086
O16   O     O_R   0.775150 0.056440 0.558310 -0.551027
O17   O     O_3   0.602370 0.950960 0.510050 -0.260796
V3    V     V_3+5 0.329450 0.009140 0.498150 1.288583
O18   O     O_R   0.935790 0.934280 0.444060 -0.556564
C47   C     C_R   0.103157 0.919638 0.424271 0.987685
O19   O     O_R   0.940370 0.906390 0.587310 -0.579595
C48   C     C_R   0.106468 0.884019 0.615468 0.957032
V4    V     V_3+5 0.828810 0.990710 0.501460 1.313772
O20   O     O_3   0.105780 0.049100 0.489960 -0.263837
C49   C     C_3   0.773661 0.299436 0.733639 -0.197746
C50   C     C_3   0.597103 0.293470 0.688448 -0.293870
H9    H     H_    0.890845 0.344007 0.715404 0.265219
C51   C     C_1   0.622112 0.123644 0.623152 -0.105461
C52   C     C_1   0.639922 0.370058 0.882760 -0.186868
C53   C     C_3   0.794362 0.210477 0.756571 0.428710
C54   C     C_3   0.622247 0.204688 0.711046 -0.048742
C55   C     C_3   0.664593 0.194314 0.823346 -0.276105
C56   C     C_3   0.638953 0.283500 0.799668 -0.028834
C57   C     C_3   0.487904 0.188841 0.777227 -0.210544
C58   C     C_3   0.466210 0.277889 0.754394 0.383669
C59   C     C_1   0.622489 0.160137 0.662724 0.260913
C60   C     C_1   0.639014 0.329914 0.846387 0.250724
H10   H     H_    0.373088 0.143119 0.795383 0.230797
H11   H     H_    0.696227 0.153671 0.878585 0.207048
N1    N     N_R   0.068288 0.966208 0.706781 0.225510
O21   O     O_R   0.882872 0.957489 0.703501 -0.408234
O22   O     O_R   0.145485 0.036094 0.681130 -0.359998
N2    N     N_R   0.779864 0.654960 0.572568 0.274415
O23   O     O_R   0.647871 0.600505 0.583282 -0.292373
O24   O     O_R   0.789389 0.711483 0.510081 -0.322449
C61   C     C_2   0.143839 0.528035 0.796981 0.682661
H12   H     H_    0.288827 0.533470 0.814680 -0.005796
O25   O     O_2   0.066077 0.463457 0.816895 -0.515102
N3    N     N_R   0.933622 0.331959 0.446793 0.239907
O26   O     O_R   0.088023 0.374770 0.442701 -0.339394
O27   O     O_R   0.883167 0.280196 0.508988 -0.356029
N4    N     N_R   0.633371 0.032887 0.293643 0.236237
O28   O     O_R   0.525622 0.972299 0.328932 -0.349148
O29   O     O_R   0.819288 0.028020 0.298609 -0.371610
N5    N     N_R   0.441412 0.023425 0.171016 0.261201
O30   O     O_R   0.492229 0.012391 0.112957 -0.338792
O31   O     O_R   0.321608 0.973848 0.215568 -0.373839
N6    N     N_R   0.960320 0.654773 0.376766 0.252895
O32   O     O_R   0.055422 0.597548 0.421297 -0.308524
O33   O     O_R   0.781986 0.663373 0.390790 -0.318699
C62   C     C_2   0.668448 0.473150 0.205192 0.531985
H13   H     H_    0.769617 0.519521 0.175716 0.071528
O34   O     O_2   0.496418 0.483418 0.195997 -0.576121
C63   C     C_2   0.873435 0.477213 0.329376 0.599778
H14   H     H_    0.849034 0.484804 0.379939 0.113083
O35   O     O_2   0.950812 0.530277 0.280045 -0.639551
C64   C     C_2   0.558753 0.350744 0.614479 0.825178
H15   H     H_    0.558748 0.412581 0.604824 0.082465
O36   O     O_2   0.527065 0.328497 0.565076 -0.527660
N7    N     N_R   0.286532 0.316016 0.755568 0.243317
O37   O     O_R   0.245070 0.379645 0.702574 -0.359177
O38   O     O_R   0.184963 0.294471 0.814542 -0.381439
N8    N     N_R   0.973896 0.171834 0.756862 0.249525
O39   O     O_R   0.076735 0.191409 0.698312 -0.344791
O40   O     O_R   0.018826 0.111339 0.812600 -0.391508
C65   C     C_2   0.495441 0.803292 0.276962 0.690487
H16   H     H_    0.586584 0.837721 0.232526 0.069228
O41   O     O_2   0.546108 0.790227 0.338527 -0.497741
N9    N     N_R   0.917991 0.881534 0.178895 0.249476
O42   O     O_R   0.856382 0.893549 0.114460 -0.312133
O43   O     O_R   0.891086 0.933721 0.207148 -0.318719
C66   C     C_2   0.764382 0.700195 0.218991 0.569902
H17   H     H_    0.680461 0.657327 0.261583 0.037038
O44   O     O_2   0.702451 0.724695 0.157914 -0.542072
N10   N     N_R   0.891015 0.517353 0.687732 0.271527
O45   O     O_R   0.964524 0.497307 0.637468 -0.301512
O46   O     O_R   0.742120 0.478674 0.723839 -0.401449
N11   N     N_R   0.482094 0.723245 0.902575 0.241484
O47   O     O_R   0.610877 0.699515 0.868598 -0.370822
O48   O     O_R   0.513906 0.715914 0.968808 -0.379407

loop_
_geom_bond_atom_site_label_1
_geom_bond_atom_site_label_2
_geom_bond_distance
_ccdc_geom_bond_type
O12   C45   1.297711 A    
C38   C39   1.424981 A    
C27   C28   1.389066 A    
C42   C63   1.486185 S    
O11   V4    2.007872 S    
C58   N7    1.454354 S    
C18   H3    1.083225 S    
C21   C22   1.425873 A    
C1    O6    1.296845 A    
C49   C50   1.551171 S    
C64   H15   1.084629 S    
C31   N4    1.432991 S    
O19   C48   1.295156 A    
C35   C36   1.424251 A    
N3    O27   1.301534 A    
C8    C47   1.450115 S    
C13   C14   1.553292 S    
N7    O37   1.299429 A    
C21   C23   1.415230 A    
C11   C13   1.543763 S    
C6    H1    1.110058 S    
O16   V4    1.984717 S    
N10   O46   1.299334 A    
O5    C3    1.315576 A    
C24   C25   1.426465 A    
C53   C55   1.543757 S    
C64   O36   1.219735 D    
V2    O10   2.153988 S    
O12   V3    1.976898 S    
N4    O28   1.299050 A    
C5    C6    1.546475 S    
C20   C21   1.428169 A    
O17   V3    2.175097 S    
C10   C13   1.552689 S    
C17   N11   1.429762 S    
O14   C46   1.305954 A    
O1    C2    1.302257 A    
C54   C57   1.553930 S    
O8    V2    2.018144 S    
N5    O30   1.301316 A    
C35   C37   1.421338 A    
C65   H16   1.077454 S    
N1    O22   1.300977 A    
O15   V3    1.971444 S    
C57   H10   1.105583 S    
O1    V2    1.967726 S    
C56   C58   1.529546 S    
O7    V1    2.175095 S    
C17   C22   1.432561 A    
C39   C40   1.422206 A    
C49   C53   1.543620 S    
C32   N5    1.434361 S    
C49   C56   1.552822 S    
C55   H11   1.110060 S    
C42   C43   1.406165 A    
V3    O20   1.721123 S    
O9    C4    1.295964 A    
C19   H4    1.083413 S    
O13   C48   1.303959 A    
C52   C60   1.213918 T    
C49   H9    1.104348 S    
C63   O35   1.218979 D    
C5    N6    1.456888 S    
C33   C34   1.384905 A    
O19   V4    2.018032 S    
C12   C16   1.484441 S    
C31   C36   1.432627 A    
C34   C35   1.414044 A    
C45   C51   1.447626 S    
C4    C7    1.447092 S    
N9    O42   1.300253 A    
C34   H7    1.080469 S    
C11   C12   1.541565 S    
C24   C27   1.409244 A    
N11   O48   1.301513 A    
C25   C26   1.437605 A    
O4    C2    1.297970 A    
C36   C40   1.425478 A    
C53   C54   1.530106 S    
C7    C15   1.212697 T    
C41   C42   1.420633 A    
O11   C46   1.295549 A    
C8    C16   1.214378 T    
C41   C62   1.480700 S    
C50   C58   1.536698 S    
C6    C10   1.554485 S    
C43   C44   1.392938 A    
C3    C26   1.505232 S    
C44   H8    1.079336 S    
O2    C1    1.304041 A    
O18   C47   1.296344 A    
C23   C24   1.416779 A    
N6    O33   1.298652 A    
N2    O23   1.301346 A    
C22   C26   1.439334 A    
C45   O16   1.302149 A    
N1    O21   1.300869 A    
C19   C20   1.392568 A    
C27   H5    1.077016 S    
O14   V3    1.986257 S    
N5    O31   1.299397 A    
O13   V3    1.994724 S    
C10   C15   1.479842 S    
C40   C46   1.493221 S    
C61   O25   1.220278 D    
O3    C4    1.300293 A    
C66   O44   1.219924 D    
C11   N9    1.456493 S    
C31   C32   1.411723 A    
N2    O24   1.301545 A    
C55   C57   1.560850 S    
C13   H2    1.110268 S    
O6    V2    2.012266 S    
O9    V2    1.968223 S    
C29   C30   1.419911 A    
O15   C47   1.301473 A    
C33   H6    1.083327 S    
C9    C11   1.542878 S    
C29   N10   1.430327 S    
C28   C29   1.402394 A    
O2    V1    1.986255 S    
C50   C64   1.498102 S    
C63   H14   1.085075 S    
N8    O39   1.300442 A    
C23   C48   1.493310 S    
N9    O43   1.300002 A    
C37   C38   1.433315 A    
N7    O38   1.300467 A    
C1    C37   1.491391 S    
C9    C10   1.542807 S    
C17   C18   1.397937 A    
C6    C14   1.552696 S    
C20   N1    1.432682 S    
N11   O47   1.301986 A    
O17   V4    1.702614 S    
O5    V1    1.994673 S    
C14   C65   1.489661 S    
O8    C3    1.292833 A    
C53   N8    1.452924 S    
N6    O32   1.300400 A    
C25   C30   1.437933 A    
C12   C14   1.542394 S    
N3    O26   1.301599 A    
C9    C66   1.498227 S    
C5    C9    1.542729 S    
C5    C12   1.540960 S    
C18   C19   1.381098 A    
C62   O34   1.220167 D    
O7    V2    1.706296 S    
O4    V1    1.976916 S    
O3    V1    1.971584 S    
V1    O10   1.721035 S    
C62   H13   1.083481 S    
C28   N2    1.443328 S    
C57   C58   1.546200 S    
C2    C52   1.448714 S    
N4    O29   1.300437 A    
C56   C60   1.481444 S    
C61   H12   1.083765 S    
N10   O45   1.300973 A    
C66   H17   1.083583 S    
V4    O20   2.154133 S    
C55   C56   1.550784 S    
C65   O41   1.219269 D    
C32   C33   1.390568 A    
C38   C41   1.436531 A    
C39   C44   1.411666 A    
C51   C59   1.213029 T    
C54   C59   1.481183 S    
O18   V4    1.968193 S    
C43   N3    1.442570 S    
C50   C54   1.545135 S    
N8    O40   1.300287 A    
C30   C61   1.488887 S    
