data_mof_unit_10652.cif
_audit_creation_date              2012-12-10T19:45:49-0500
_audit_creation_method            fapswitch 2.2
_symmetry_space_group_name_H-M    P1
_symmetry_Int_Tables_number       1
_space_group_crystal_system       triclinic
_cell_length_a                    10.833771
_cell_length_b                    14.717178
_cell_length_c                    14.709744
_cell_angle_alpha                 65.205025
_cell_angle_beta                  103.638513
_cell_angle_gamma                 102.848401
_cell_volume                      2048.74437613

loop_
_atom_site_label
_atom_site_type_symbol
_atom_type_description
_atom_site_fract_x
_atom_site_fract_y
_atom_site_fract_z
_atom_type_partial_charge
C1    C     C_R   0.477694 0.119509 0.312276 0.843595
C2    C     C_R   0.522306 0.880491 0.687724 0.843595
C3    C     C_R   0.870549 0.001113 0.495646 -0.036076
C4    C     C_R   0.129451 0.998887 0.504354 -0.036076
C5    C     C_R   0.906474 0.953590 0.441795 0.068069
C6    C     C_R   0.093526 0.046410 0.558205 0.068069
C7    C     C_R   0.466708 0.186959 0.204680 -0.068205
C8    C     C_R   0.533292 0.813041 0.795320 -0.068205
C9    C     C_R   0.433347 0.216440 0.026917 -0.133185
C10   C     C_R   0.566653 0.783559 0.973083 -0.133185
C11   C     C_R   0.443760 0.149669 0.128138 -0.129260
C12   C     C_R   0.556240 0.850331 0.871861 -0.129260
C13   C     C_R   0.481008 0.291114 0.179002 -0.119657
C14   C     C_R   0.518992 0.708886 0.820998 -0.119657
C15   C     C_R   0.483797 0.360412 0.078612 0.094039
C16   C     C_R   0.516203 0.639588 0.921388 0.094039
C17   C     C_R   0.451255 0.321187 0.001667 0.060937
C18   C     C_R   0.548744 0.678813 0.998333 0.060938
C19   C     C_R   0.510990 0.467059 0.052259 -0.120548
C20   C     C_R   0.489009 0.532941 0.947741 -0.120548
C21   C     C_R   0.438850 0.489476 0.873982 0.597805
C22   C     C_R   0.561150 0.510524 0.126018 0.597805
C23   C     C_R   0.262903 0.999140 0.502390 0.839661
C24   C     C_R   0.737097 0.000860 0.497610 0.839661
C25   C     C_R   0.428538 0.386194 0.900573 -0.257706
C26   C     C_R   0.571461 0.613806 0.099427 -0.257705
C27   C     C_R   0.701328 0.278337 0.677559 0.520419
C28   C     C_R   0.298672 0.721663 0.322441 0.520418
C29   C     C_R   0.675742 0.200786 0.642536 -0.134018
C30   C     C_R   0.324258 0.799214 0.357464 -0.134018
C31   C     C_R   0.518906 0.285374 0.507951 0.749556
C32   C     C_R   0.481094 0.714626 0.492049 0.749556
C33   C     C_R   0.547729 0.371145 0.534884 -0.188289
C34   C     C_R   0.452270 0.628855 0.465116 -0.188289
C35   C     C_R   0.635517 0.362636 0.625470 -0.053554
C36   C     C_R   0.364483 0.637363 0.374529 -0.053554
C37   C     C_R   0.489397 0.462083 0.479276 0.108050
C38   C     C_R   0.510602 0.537917 0.520724 0.108050
C39   C     C_R   0.586566 0.518779 0.617308 -0.155056
C40   C     C_R   0.413434 0.481221 0.382692 -0.155056
C41   C     C_R   0.651938 0.435600 0.666063 -0.148515
C42   C     C_R   0.348062 0.564400 0.333937 -0.148516
C43   C     C_R   0.352289 0.081363 0.770001 -0.184183
C44   C     C_R   0.647710 0.918637 0.229998 -0.184183
C45   C     C_R   0.263355 0.035087 0.710875 0.646639
C46   C     C_R   0.736645 0.964913 0.289124 0.646639
C47   C     C_R   0.186951 0.093751 0.622861 -0.000552
C48   C     C_R   0.813048 0.906249 0.377139 -0.000552
C49   C     C_R   0.199063 0.198456 0.596546 -0.154660
C50   C     C_R   0.800937 0.801544 0.403454 -0.154660
C51   C     C_R   0.287891 0.244131 0.656126 -0.116565
C52   C     C_R   0.712109 0.755869 0.343874 -0.116564
C53   C     C_R   0.365048 0.185744 0.742338 -0.239855
C54   C     C_R   0.634952 0.814256 0.257662 -0.239855
C55   C     C_R   0.964189 0.047495 0.552344 -0.229117
C56   C     C_R   0.035810 0.952505 0.447656 -0.229116
Cu1   Cu    Cu3+1 0.466270 0.918260 0.475690 1.028392
Cu2   Cu    Cu3+1 0.533730 0.081740 0.524310 1.028392
H1    H     H_    0.434831 0.221406 0.787650 0.160202
H2    H     H_    0.565169 0.778594 0.212350 0.160202
H3    H     H_    0.409868 0.186164 0.968337 0.136044
H4    H     H_    0.590132 0.813836 0.031663 0.136044
H5    H     H_    0.712500 0.426682 0.738514 0.209854
H6    H     H_    0.287500 0.573318 0.261486 0.209854
H7    H     H_    0.275324 0.865029 0.316624 0.176479
H8    H     H_    0.724676 0.134971 0.683376 0.176479
H9    H     H_    0.595374 0.565247 0.659258 0.229277
H10   H     H_    0.404626 0.434753 0.340741 0.229277
H11   H     H_    0.411292 0.036366 0.837479 0.149543
H12   H     H_    0.588708 0.963634 0.162521 0.149543
H13   H     H_    0.140807 0.244751 0.529259 0.174289
H14   H     H_    0.859192 0.755249 0.470741 0.174289
H15   H     H_    0.297749 0.324956 0.634964 0.169937
H16   H     H_    0.702251 0.675044 0.365036 0.169937
H17   H     H_    0.936624 0.082554 0.594985 0.161974
H18   H     H_    0.063375 0.917446 0.405015 0.161974
H19   H     H_    0.394526 0.356349 0.841680 0.166914
H20   H     H_    0.605473 0.643651 0.158320 0.166914
H21   H     H_    0.517237 0.683940 0.761703 0.234873
H22   H     H_    0.482763 0.316060 0.238297 0.234873
H23   H     H_    0.569527 0.930791 0.853736 0.149980
H24   H     H_    0.430473 0.069209 0.146264 0.149980
N1    N     N_R   0.584450 0.204570 0.560790 -0.254452
N2    N     N_R   0.415550 0.795430 0.439210 -0.254452
O1    O     O_R   0.455540 0.022090 0.338120 -0.604082
O2    O     O_R   0.544460 0.977910 0.661880 -0.604082
O3    O     O_R   0.512510 0.160150 0.379180 -0.523234
O4    O     O_R   0.487490 0.839850 0.620820 -0.523233
O5    O     O_R   0.291160 0.930970 0.479480 -0.594396
O6    O     O_R   0.708840 0.069030 0.520520 -0.594396
O7    O     O_R   0.348130 0.069020 0.520540 -0.539509
O8    O     O_R   0.651870 0.930980 0.479460 -0.539508
F1    F     F_    0.389083 0.543407 0.776853 -0.680371
F2    F     F_    0.610917 0.456593 0.223147 -0.680372
F3    F     F_    0.582816 0.724405 0.562624 -0.679103
F4    F     F_    0.417184 0.275595 0.437377 -0.679103
F5    F     F_    0.787863 0.269876 0.763203 -0.653084
F6    F     F_    0.212137 0.730124 0.236796 -0.653084
F7    F     F_    0.251839 0.933542 0.739121 -0.679298
F8    F     F_    0.748161 0.066458 0.260878 -0.679298

loop_
_geom_bond_atom_site_label_1
_geom_bond_atom_site_label_2
_ccdc_geom_bond_type
C1    O3    A    
C56   H18   S    
Cu1   O8    S    
C27   C29   A    
C5    C56   A    
C36   C42   A    
C19   C20   A    
C18   C26   A    
C6    C55   A    
C49   H13   S    
Cu2   O3    S    
C53   H1    S    
C39   C41   A    
C54   H2    S    
C15   C19   A    
C26   H20   S    
Cu1   O5    S    
C25   H19   S    
C29   N1    A    
C37   C40   A    
C52   H16   S    
C38   C39   A    
C31   F4    S    
Cu2   O2    S    
C31   N1    A    
C50   H14   S    
C21   C25   A    
C3    C55   A    
C43   C53   A    
C52   C54   A    
C49   C51   A    
C50   C52   A    
C23   O5    A    
C44   H12   S    
C14   C16   A    
C23   O7    A    
Cu2   O7    S    
C8    C12   A    
C55   H17   S    
C40   C42   A    
C13   H22   S    
C43   H11   S    
C34   C38   A    
C4    C56   A    
C22   F2    S    
C3    C24   S    
C10   H4    S    
C24   O8    A    
C44   C46   A    
C45   C47   A    
C11   H24   S    
C1    O1    A    
C32   N2    A    
C5    C48   S    
C46   C48   A    
C6    C47   S    
C19   C22   A    
C4    C6    A    
C45   F7    S    
C4    C23   S    
C27   C35   A    
C33   C37   A    
C51   C53   A    
C32   C34   A    
C7    C11   A    
C37   C38   A    
C43   C45   A    
C16   C20   A    
C31   C33   A    
Cu1   N2    S    
C14   H21   S    
C2    O4    A    
C9    C11   A    
C10   C12   A    
Cu2   O6    S    
C9    C17   A    
C13   C15   A    
C22   C26   A    
C9    H3    S    
C41   H5    S    
C42   H6    S    
C28   F6    S    
C15   C17   A    
C46   F8    S    
C27   F5    S    
C8    C14   A    
C1    C7    S    
C39   H9    S    
C2    C8    S    
C51   H15   S    
C3    C5    A    
C24   O6    A    
C47   C49   A    
Cu1   O4    S    
C17   C25   A    
C28   C30   A    
Cu2   N1    S    
Cu1   Cu2   S    
C21   F1    S    
C10   C18   A    
C48   C50   A    
C33   C35   A    
Cu1   O1    S    
C12   H23   S    
C2    O2    A    
C34   C36   A    
C30   N2    A    
C35   C41   A    
C30   H7    S    
C29   H8    S    
C44   C54   A    
C7    C13   A    
C32   F3    S    
C20   C21   A    
C28   C36   A    
C16   C18   A    
C40   H10   S    
