data_mof_unit_40695.cif
_audit_creation_date              2013-03-05T15:49:17-0500
_audit_creation_method            fapswitch 2.2
_symmetry_space_group_name_H-M    P1
_symmetry_Int_Tables_number       1
_space_group_crystal_system       triclinic
_cell_length_a                    20.683232
_cell_length_b                    22.786337
_cell_length_c                    6.930791
_cell_angle_alpha                 90.448676
_cell_angle_beta                  86.280136
_cell_angle_gamma                 90.022731
_cell_volume                      3259.46603799

loop_
_atom_site_label
_atom_site_type_symbol
_atom_site_description
_atom_site_fract_x
_atom_site_fract_y
_atom_site_fract_z
_atom_type_partial_charge
O1    O     O_R   0.387100 0.552640 0.378490 -0.600053
O2    O     O_R   0.612900 0.052640 0.621510 -0.591958
O3    O     O_R   0.249610 0.559600 0.072250 -0.600529
O4    O     O_R   0.750390 0.059600 0.927750 -0.602495
O5    O     O_R   0.249120 0.447360 0.902040 -0.591237
O6    O     O_R   0.750880 0.947360 0.097960 -0.589441
C1    C     C_R   0.226232 0.572575 0.245803 0.906988
C2    C     C_R   0.774558 0.071711 0.754891 0.918331
O7    O     O_R   0.386610 0.559560 0.048860 -0.592351
O8    O     O_R   0.613390 0.059560 0.951140 -0.597447
O9    O     O_R   0.387100 0.447320 0.878470 -0.592458
O10   O     O_R   0.612900 0.947320 0.121530 -0.576434
C3    C     C_R   0.405415 0.577170 0.215699 0.984914
C4    C     C_R   0.593846 0.076572 0.786199 0.988295
O11   O     O_R   0.249120 0.552680 0.402050 -0.606798
O12   O     O_R   0.750880 0.052680 0.597950 -0.608713
O13   O     O_3   0.318110 0.463180 0.223790 -0.259261
O14   O     O_3   0.681890 0.963180 0.776210 -0.254582
V1    V     V_3+5 0.318110 0.506830 0.948930 1.171503
V2    V     V_3+5 0.681890 0.006830 0.051070 1.181537
O15   O     O_R   0.386610 0.440400 0.548840 -0.580372
O16   O     O_R   0.613390 0.940400 0.451160 -0.586916
C5    C     C_R   0.407796 0.425265 0.712684 0.968171
C6    C     C_R   0.592298 0.925304 0.285467 0.961000
O17   O     O_R   0.249610 0.440440 0.572240 -0.597879
O18   O     O_R   0.750390 0.940440 0.427760 -0.601322
C7    C     C_R   0.226302 0.427628 0.745102 0.977825
C8    C     C_R   0.773712 0.927641 0.254182 0.968035
V3    V     V_3+5 0.318110 0.493170 0.448930 1.180149
V4    V     V_3+5 0.681890 0.993170 0.551070 1.189772
O19   O     O_3   0.318110 0.536820 0.723940 -0.286707
O20   O     O_3   0.681890 0.036820 0.276060 -0.283080
C9    C     C_R   0.171325 0.386398 0.764623 -0.182196
C10   C     C_R   0.828827 0.886455 0.233452 -0.168261
C11   C     C_R   0.173430 0.335079 0.651281 -0.192225
C12   C     C_R   0.827185 0.835816 0.347512 -0.207241
C13   C     C_R   0.122111 0.295278 0.663719 -0.000203
C14   C     C_R   0.878916 0.796436 0.336201 -0.005163
C15   C     C_R   0.066382 0.307187 0.784243 0.180324
C16   C     C_R   0.934684 0.808135 0.216262 0.184566
C17   C     C_R   0.064653 0.357628 0.901268 -0.089887
C18   C     C_R   0.935936 0.857806 0.098196 -0.088388
C19   C     C_R   0.116465 0.397574 0.893170 0.254522
C20   C     C_R   0.883658 0.897280 0.105000 0.254182
C21   C     C_R   0.921870 0.163175 0.855191 -0.144948
C22   C     C_R   0.079771 0.664586 0.145700 -0.146809
C23   C     C_R   0.869787 0.124232 0.881533 -0.123045
C24   C     C_R   0.131704 0.625428 0.119323 -0.119141
C25   C     C_R   0.838160 0.145905 0.559544 -0.148687
C26   C     C_R   0.161994 0.646750 0.443986 -0.150633
C27   C     C_R   0.889210 0.185623 0.534749 -0.005493
C28   C     C_R   0.111128 0.686806 0.468797 -0.002175
C29   C     C_R   0.932140 0.194528 0.681192 0.048241
C30   C     C_R   0.068964 0.696056 0.320878 0.055424
C31   C     C_2   0.010202 0.266590 0.798650 -0.331335
C32   C     C_2   0.991287 0.767928 0.202975 -0.331379
C33   C     C_2   0.987423 0.236253 0.648351 0.306235
C34   C     C_2   0.013776 0.738093 0.353361 0.303476
C35   C     C_R   0.827939 0.114717 0.732934 -0.128986
C36   C     C_R   0.172906 0.615699 0.268999 -0.109623
H1    H     H_    0.215485 0.325321 0.554946 0.175041
H2    H     H_    0.785216 0.826303 0.443966 0.162513
H3    H     H_    0.863165 0.100597 0.016324 0.125549
H4    H     H_    0.138702 0.601791 0.983396 0.123747
H5    H     H_    0.806257 0.140047 0.442956 0.149434
H6    H     H_    0.193169 0.640498 0.561823 0.137034
H7    H     H_    0.022186 0.366198 0.997366 0.156791
H8    H     H_    0.978403 0.866177 0.002344 0.157539
H9    H     H_    0.954573 0.167781 0.970055 0.157345
H10   H     H_    0.047610 0.669257 0.029718 0.154324
H11   H     H_    0.984794 0.263429 0.940342 0.175714
H12   H     H_    0.017053 0.764416 0.061749 0.174673
H13   H     H_    0.126278 0.255119 0.579480 0.160210
H14   H     H_    0.875020 0.756773 0.420973 0.157480
H15   H     H_    0.894825 0.209578 0.400377 0.149591
H16   H     H_    0.105050 0.710721 0.604379 0.144574
C37   C     C_R   0.572464 0.362884 0.573866 0.285867
C38   C     C_R   0.421761 0.869628 0.262000 0.299109
H17   H     H_    0.523527 0.445513 0.545906 0.116677
H18   H     H_    0.468911 0.953990 0.264170 0.116748
C39   C     C_R   0.462839 0.384005 0.702573 -0.183849
C40   C     C_R   0.537352 0.884251 0.282808 -0.171056
C41   C     C_R   0.477041 0.099844 0.817672 0.207267
C42   C     C_R   0.521732 0.600005 0.154649 0.220276
C43   C     C_R   0.424669 0.136907 0.794876 -0.187670
C44   C     C_R   0.571734 0.639523 0.109995 -0.200593
C45   C     C_R   0.433257 0.195706 0.745708 0.319395
C46   C     C_R   0.562031 0.699998 0.123086 0.310281
C47   C     C_R   0.496138 0.221502 0.742393 -0.093117
C48   C     C_R   0.502902 0.722836 0.210388 -0.082250
C49   C     C_R   0.551325 0.183700 0.756143 -0.037992
C50   C     C_R   0.450075 0.683082 0.253607 -0.040220
C51   C     C_R   0.505676 0.283554 0.718086 0.073348
C52   C     C_R   0.494227 0.784346 0.250404 0.073151
C53   C     C_R   0.567520 0.304762 0.650225 -0.096798
C54   C     C_R   0.430540 0.807584 0.275351 -0.089876
C55   C     C_R   0.621952 0.268113 0.667038 0.326648
C56   C     C_R   0.378934 0.768550 0.323708 0.330744
C57   C     C_R   0.614142 0.210193 0.737240 0.094119
C58   C     C_R   0.390621 0.707516 0.334257 0.064362
C59   C     C_R   0.455670 0.325468 0.760970 -0.094976
C60   C     C_R   0.546936 0.823410 0.271695 -0.072906
C61   C     C_R   0.519999 0.401316 0.602497 -0.170066
C62   C     C_R   0.475418 0.906825 0.268914 -0.182520
C63   C     C_R   0.540932 0.121450 0.789345 -0.182313
C64   C     C_R   0.459376 0.620942 0.215417 -0.188545
H19   H     H_    0.410610 0.313176 0.837695 0.143163
H20   H     H_    0.595639 0.807184 0.282776 0.134695
H21   H     H_    0.376157 0.118721 0.801790 0.178793
H22   H     H_    0.617868 0.623122 0.048947 0.179307
N1    N     N_R   0.686185 0.291382 0.634993 0.229701
O21   O     O_R   0.709438 0.325453 0.765212 -0.388700
O22   O     O_R   0.725084 0.269678 0.497453 -0.401014
N2    N     N_R   0.316339 0.790795 0.389175 0.228591
O23   O     O_R   0.265514 0.775307 0.299745 -0.391235
O24   O     O_R   0.308670 0.816160 0.558043 -0.396718
C65   C     C_3   0.629232 0.384099 0.444542 -0.817246
H23   H     H_    0.669079 0.399277 0.531976 0.281328
H24   H     H_    0.646069 0.348955 0.341452 0.266230
H25   H     H_    0.615510 0.421821 0.355043 0.219740
C66   C     C_3   0.358008 0.897913 0.222159 -0.816363
H26   H     H_    0.330356 0.869662 0.125563 0.267306
H27   H     H_    0.329267 0.907415 0.359406 0.277947
H28   H     H_    0.365879 0.940235 0.145471 0.220001
C67   C     C_3   0.463693 0.035908 0.861650 -0.934938
H29   H     H_    0.410992 0.026468 0.881410 0.249290
H30   H     H_    0.484296 0.007848 0.741156 0.246246
H31   H     H_    0.486000 0.023823 0.997124 0.243478
C68   C     C_3   0.535135 0.535152 0.126568 -0.940599
H32   H     H_    0.587276 0.526181 0.089525 0.251756
H33   H     H_    0.520960 0.511402 0.261949 0.235672
H34   H     H_    0.507266 0.517454 0.007494 0.251836
N3    N     N_R   0.378784 0.225638 0.673211 0.222225
O25   O     O_R   0.321152 0.219016 0.757252 -0.398374
O26   O     O_R   0.384790 0.251265 0.505801 -0.397904
N4    N     N_R   0.609431 0.736750 0.022738 0.223369
O27   O     O_R   0.591271 0.774684 0.897608 -0.396473
O28   O     O_R   0.670919 0.725752 0.031334 -0.396421
C69   C     C_3   0.673679 0.178901 0.796836 -0.849057
H35   H     H_    0.715515 0.208032 0.818247 0.279608
H36   H     H_    0.663939 0.157995 0.939460 0.234603
H37   H     H_    0.688551 0.147517 0.680568 0.220227
C70   C     C_3   0.342336 0.671081 0.453608 -0.791301
H38   H     H_    0.308513 0.697331 0.550059 0.261371
H39   H     H_    0.312902 0.645924 0.355644 0.210036
H40   H     H_    0.367987 0.642917 0.553575 0.244452
N5    N     N_R   0.012538 0.246830 0.452890 0.224701
O29   O     O_R   0.023004 0.203021 0.333413 -0.427942
O30   O     O_R   0.017557 0.300185 0.387876 -0.413180
N6    N     N_R   0.988242 0.749340 0.548544 0.224654
O31   O     O_R   0.977230 0.705944 0.667099 -0.429173
O32   O     O_R   0.982960 0.802927 0.614091 -0.413289
C71   C     C_3   0.111102 0.452357 0.016802 -0.928227
H41   H     H_    0.118916 0.491727 0.924856 0.224546
H42   H     H_    0.062567 0.456419 0.094255 0.251893
H43   H     H_    0.147583 0.451391 0.127300 0.259843
C72   C     C_3   0.888548 0.951272 0.980361 -0.926846
H44   H     H_    0.880501 0.991181 0.071635 0.223449
H45   H     H_    0.937007 0.955167 0.902552 0.252374
H46   H     H_    0.851994 0.949311 0.870128 0.260124

loop_
_geom_bond_atom_site_label_1
_geom_bond_atom_site_label_2
_geom_bond_distance
_ccdc_geom_bond_type
C59   H19   1.080569 S    
C70   H40   1.108287 S    
V4    O20   2.156836 S    
C72   H44   1.110098 S    
C48   C52   1.435687 A    
O13   V3    1.698566 S    
C45   N3    1.437531 S    
N5    O29   1.301161 A    
O4    C2    1.299505 A    
V1    O19   1.707416 S    
N2    O23   1.301778 A    
C17   H7    1.084183 S    
C33   N5    1.441113 S    
C39   C59   1.401944 A    
C7    C9    1.474821 S    
O9    V1    2.003535 S    
C25   H5    1.083327 S    
O10   V2    2.007939 S    
H18   C62   1.084191 S    
O16   C6    1.298514 A    
C11   C13   1.394696 A    
C42   C44   1.392231 A    
O3    C1    1.298913 A    
C43   H21   1.083764 S    
C65   H24   1.109973 S    
C2    C35   1.477211 S    
C23   H3    1.082947 S    
C55   N1    1.434749 S    
C69   H37   1.101976 S    
C44   C46   1.394032 A    
C56   N2    1.435155 S    
O12   V4    2.008040 S    
C70   H38   1.107905 S    
C42   C68   1.512391 S    
C38   C66   1.510332 S    
C6    C40   1.472581 S    
C51   C53   1.419851 A    
C66   H28   1.111599 S    
O7    C3    1.303982 A    
C9    C11   1.402724 A    
O5    C7    1.291036 A    
C38   C54   1.429918 A    
O7    V1    2.010871 S    
C4    C63   1.497144 S    
O6    C8    1.292816 A    
N1    O21   1.301409 A    
O8    V2    2.018013 S    
C16   C32   1.484593 S    
C54   C56   1.414280 A    
C67   H31   1.109354 S    
C26   C28   1.394389 A    
O3    V1    2.002953 S    
O14   V4    1.708368 S    
C71   H42   1.110788 S    
C5    C39   1.474575 S    
C10   C12   1.402960 A    
C68   H34   1.110092 S    
C15   C31   1.483726 S    
H17   C61   1.084345 S    
C43   C45   1.393518 A    
C8    C10   1.475934 S    
C2    O12   1.293299 A    
C18   H8    1.084137 S    
C20   C72   1.508383 S    
C17   C19   1.404376 A    
C57   C69   1.505570 S    
C24   C36   1.403557 A    
C18   C20   1.404960 A    
C41   C67   1.512378 S    
V2    O20   1.697614 S    
C12   H2    1.083626 S    
C55   C57   1.415739 A    
C28   C30   1.405527 A    
O11   V3    2.012238 S    
C42   C64   1.412533 A    
C21   C23   1.399082 A    
O17   V3    2.009726 S    
C13   C15   1.404204 A    
C22   C24   1.398595 A    
N5    O30   1.301649 A    
C23   C35   1.403179 A    
C66   H27   1.108418 S    
C21   H9    1.082051 S    
C9    C19   1.418318 A    
C10   C20   1.418375 A    
C46   N4    1.437404 S    
N4    O28   1.301567 A    
O8    C4    1.299054 A    
C65   H25   1.111543 S    
C51   C59   1.423625 A    
C29   C33   1.493976 S    
N4    O27   1.301789 A    
C1    O11   1.294880 A    
C14   H14   1.081961 S    
C25   C27   1.393416 A    
C38   C62   1.399245 A    
C37   C53   1.431207 A    
C41   C63   1.412277 A    
C27   C29   1.404749 A    
C32   H12   1.086095 S    
C52   C54   1.419495 A    
C48   C50   1.437046 A    
C49   C63   1.452448 A    
C22   C30   1.410507 A    
O1    V3    2.007294 S    
C40   C60   1.401334 A    
N1    O22   1.301543 A    
C71   H43   1.109770 S    
C60   H20   1.080787 S    
C26   H6    1.083199 S    
C52   C60   1.421512 A    
C66   H26   1.110120 S    
C50   C64   1.449043 A    
C41   C43   1.391633 A    
C46   C48   1.425541 A    
O18   V4    2.002382 S    
C72   H46   1.109822 S    
C56   C58   1.414970 A    
O15   C5    1.292782 A    
C67   H29   1.110892 S    
C30   C34   1.495087 S    
N6    O32   1.301629 A    
C37   C61   1.397835 A    
O1    C3    1.297373 A    
C12   C14   1.394588 A    
C1    C36   1.477595 S    
C3    C64   1.496428 S    
C50   C58   1.428661 A    
C67   H30   1.110629 S    
C68   H32   1.110934 S    
C39   C61   1.389931 A    
C70   H39   1.098855 S    
C13   H13   1.082058 S    
O16   V4    2.011360 S    
C44   H22   1.083794 S    
O18   C8    1.297827 A    
C27   H15   1.082871 S    
C16   C18   1.401083 A    
C28   H16   1.082816 S    
C58   C70   1.507911 S    
N2    O24   1.301692 A    
C69   H35   1.107274 S    
C53   C55   1.413420 A    
O5    V1    2.007440 S    
O17   C7    1.297470 A    
O6    V2    2.011635 S    
O10   C6    1.292350 A    
C37   C65   1.511768 S    
C25   C35   1.405064 A    
O2    V4    2.002893 S    
C26   C36   1.404853 A    
C31   C33   1.355393 D    
V3    O19   2.143026 S    
C65   H23   1.107887 S    
C14   C16   1.404056 A    
C69   H36   1.107292 S    
N3    O25   1.301574 A    
O15   V3    2.018504 S    
C11   H1    1.083663 S    
O9    C5    1.297448 A    
O13   V1    2.155914 S    
C32   C34   1.356153 D    
O14   V2    2.142105 S    
C47   C51   1.437263 A    
O2    C4    1.299076 A    
C22   H10   1.082014 S    
C24   H4    1.083043 S    
C21   C29   1.410666 A    
O4    V2    2.010300 S    
C15   C17   1.400666 A    
C72   H45   1.110789 S    
C47   C49   1.438783 A    
N3    O26   1.301744 A    
C45   C47   1.425927 A    
C40   C62   1.390007 A    
N6    O31   1.301190 A    
C49   C57   1.431146 A    
C71   H41   1.110169 S    
C19   C71   1.508572 S    
C31   H11   1.086212 S    
C34   N6    1.441032 S    
C68   H33   1.109662 S    
