data_mof_unit_24323.cif
_audit_creation_date              2013-03-05T16:34:20-0500
_audit_creation_method            fapswitch 2.2
_symmetry_space_group_name_H-M    P1
_symmetry_Int_Tables_number       1
_space_group_crystal_system       triclinic
_cell_length_a                    8.841793
_cell_length_b                    9.096905
_cell_length_c                    7.791459
_cell_angle_alpha                 90.000283
_cell_angle_beta                  97.98986
_cell_angle_gamma                 90.001782
_cell_volume                      620.606560746

loop_
_atom_site_label
_atom_site_type_symbol
_atom_site_description
_atom_site_fract_x
_atom_site_fract_y
_atom_site_fract_z
_atom_type_partial_charge
O1    O     O_R   0.500010 0.288400 0.642760 -0.578979
O2    O     O_R   0.499990 0.711600 0.357240 -0.578962
O3    O     O_R   0.499990 0.288400 0.357240 -0.574176
O4    O     O_R   0.500010 0.711600 0.642760 -0.574150
C1    C     C_R   0.499995 0.220053 0.499998 0.835323
C2    C     C_R   0.500005 0.779947 0.500002 0.835326
O5    O     O_R   0.274840 0.500000 0.609840 -0.560762
O6    O     O_R   0.725160 0.500000 0.390160 -0.560729
O7    O     O_R   0.274830 0.500000 0.324260 -0.539668
O8    O     O_R   0.725170 0.500000 0.675740 -0.539597
C3    C     C_R   0.203833 0.501042 0.456465 0.807080
C4    C     C_R   0.796168 0.498992 0.543536 0.807106
Cu1   Cu    Cu3+1 0.500010 0.500000 0.669080 1.118745
Cu2   Cu    Cu3+1 0.499990 0.500000 0.330920 1.118737
C5    C     C_2   0.039647 0.497030 0.431310 0.019554
C6    C     C_2   0.960355 0.503091 0.568692 0.019534
C7    C     C_1   0.499999 0.065373 0.499999 -0.120043
C8    C     C_1   0.500001 0.934627 0.500001 -0.120018
N1    N     N_1   0.499980 0.500000 0.076820 0.004723
N2    N     N_1   0.500020 0.500000 0.923180 0.004726
N3    N     N_R   0.966254 0.480504 0.256013 0.153724
O9    O     O_R   0.959193 0.591670 0.150193 -0.264586
O10   O     O_R   0.924731 0.350677 0.197145 -0.301012
N4    N     N_R   0.033746 0.519634 0.743991 0.153622
O11   O     O_R   0.040262 0.408628 0.850007 -0.264376
O12   O     O_R   0.075559 0.649431 0.802721 -0.301143

loop_
_geom_bond_atom_site_label_1
_geom_bond_atom_site_label_2
_geom_bond_distance
_ccdc_geom_bond_type
O7    Cu2   1.984271 S    
N1    N2    1.197128 T    
C5    N3    1.436233 S    
O6    C4    1.270342 A    
C7    C8    1.189388 T    
C6    N4    1.436261 S    
N3    O9    1.300789 A    
O5    C3    1.270334 A    
O7    C3    1.278650 A    
O2    C2    1.274277 A    
O3    Cu2   1.935800 S    
O8    C4    1.278651 A    
C2    C8    1.407106 S    
N4    O12   1.301222 A    
N3    O10   1.301208 A    
O2    Cu2   1.935797 S    
O1    C1    1.274278 A    
O1    Cu1   1.935798 S    
C5    C6    1.359762 D    
O5    Cu1   1.980225 S    
C1    C7    1.407106 S    
N4    O11   1.300816 A    
O4    C2    1.274270 A    
O4    Cu1   1.935799 S    
O6    Cu2   1.980225 S    
Cu1   N2    1.979798 S    
Cu1   Cu2   2.634735 S    
C3    C5    1.438082 S    
Cu2   N1    1.979798 S    
C4    C6    1.438109 S    
O3    C1    1.274269 A    
O8    Cu1   1.984271 S    
