data_mof_unit_21826.cif
_audit_creation_date              2012-12-10T18:34:29-0500
_audit_creation_method            fapswitch 2.2
_symmetry_space_group_name_H-M    P1
_symmetry_Int_Tables_number       1
_space_group_crystal_system       triclinic
_cell_length_a                    15.016608
_cell_length_b                    15.429099
_cell_length_c                    15.693777
_cell_angle_alpha                 89.772476
_cell_angle_beta                  103.699539
_cell_angle_gamma                 81.776775
_cell_volume                      3493.65879869

loop_
_atom_site_label
_atom_site_type_symbol
_atom_type_description
_atom_site_fract_x
_atom_site_fract_y
_atom_site_fract_z
_atom_type_partial_charge
C1    C     C_R   0.441584 0.662068 0.483955 0.863529
C2    C     C_R   0.558563 0.337778 0.511090 0.894817
C3    C     C_R   0.299992 0.868957 0.363790 -0.286060
C4    C     C_R   0.718298 0.120835 0.546049 -0.306332
C5    C     C_R   0.322160 0.781233 0.394238 0.497700
C6    C     C_R   0.689753 0.211496 0.544473 0.489183
C7    C     C_R   0.469532 0.812854 0.481258 -0.325679
C8    C     C_R   0.533739 0.188831 0.470413 -0.344436
C9    C     C_R   0.453794 0.896226 0.441559 0.094816
C10   C     C_R   0.561807 0.098757 0.469535 0.096994
C11   C     C_R   0.365515 0.926464 0.386591 0.102940
C12   C     C_R   0.654756 0.064529 0.511111 0.111353
C13   C     C_R   0.523081 0.951063 0.458301 0.090385
C14   C     C_R   0.497567 0.041319 0.435483 0.092041
C15   C     C_R   0.408594 0.070771 0.380770 -0.226189
C16   C     C_R   0.617217 0.918119 0.495972 -0.230175
C17   C     C_R   0.344465 0.013385 0.355013 -0.199572
C18   C     C_R   0.682387 0.974275 0.520188 -0.200150
C19   C     C_R   0.851074 0.603825 0.658731 0.400214
C20   C     C_R   0.149983 0.393888 0.342331 0.406239
C21   C     C_R   0.759425 0.587696 0.628343 -0.233995
C22   C     C_R   0.240792 0.412219 0.371698 -0.261311
C23   C     C_R   0.500511 0.500093 0.661779 0.902463
C24   C     C_R   0.499394 0.499516 0.338261 0.865453
C25   C     C_R   0.788793 0.535131 0.494426 0.510487
C26   C     C_R   0.210032 0.467584 0.504222 0.553447
C27   C     C_R   0.885004 0.534935 0.527027 -0.196106
C28   C     C_R   0.113844 0.469253 0.470289 -0.174884
C29   C     C_R   0.913798 0.577907 0.606423 0.021231
C30   C     C_R   0.085599 0.424926 0.391510 0.019396
C31   C     C_R   0.952325 0.496164 0.482730 0.112310
C32   C     C_R   0.045752 0.510674 0.512440 0.116954
C33   C     C_R   0.067388 0.568202 0.581527 -0.212693
C34   C     C_R   0.930001 0.440266 0.412338 -0.250297
C35   C     C_R   0.004282 0.596901 0.630701 -0.179598
C36   C     C_R   0.994060 0.409187 0.364947 -0.175304
C37   C     C_3   0.417342 0.472405 0.008590 -0.228694
C38   C     C_3   0.575621 0.524893 0.990366 -0.230281
C39   C     C_3   0.423249 0.553955 0.953261 -0.208238
C40   C     C_3   0.569729 0.443379 0.045510 -0.211211
C41   C     C_1   0.501281 0.500045 0.751077 -0.174749
C42   C     C_1   0.497194 0.498629 0.248790 -0.182747
C43   C     C_3   0.492274 0.417717 0.970506 0.217557
C44   C     C_3   0.500749 0.579630 0.028276 0.211269
C45   C     C_3   0.498200 0.498758 0.916877 0.129492
C46   C     C_3   0.494936 0.498623 0.081950 0.126240
C47   C     C_1   0.500342 0.499546 0.826317 -0.022770
C48   C     C_1   0.495320 0.498291 0.172986 -0.037558
C49   C     C_R   0.407166 0.753860 0.455974 -0.170310
C50   C     C_R   0.595423 0.244748 0.509833 -0.152628
H1    H     H_    0.363593 0.599417 0.913768 0.166577
H2    H     H_    0.629393 0.397971 0.085082 0.162788
H3    H     H_    0.290590 0.397622 0.332389 0.180771
H4    H     H_    0.708588 0.605070 0.666071 0.177727
H5    H     H_    0.132894 0.592387 0.599134 0.212041
H6    H     H_    0.863623 0.417903 0.393340 0.197469
H7    H     H_    0.352849 0.450723 0.018104 0.160615
H8    H     H_    0.640638 0.546063 0.982012 0.161059
H9    H     H_    0.277530 0.037660 0.312002 0.140325
H10   H     H_    0.753750 0.947003 0.549856 0.151588
H11   H     H_    0.462106 0.216230 0.444770 0.178990
H12   H     H_    0.531447 0.792217 0.532252 0.178427
H13   H     H_    0.233004 0.891089 0.319888 0.153300
H14   H     H_    0.789316 0.094254 0.577587 0.149103
H15   H     H_    0.388075 0.137205 0.354330 0.135880
H16   H     H_    0.642520 0.848763 0.505341 0.148201
H17   H     H_    0.026448 0.635835 0.686967 0.194885
H18   H     H_    0.971997 0.370067 0.308796 0.190727
N1    N     N_R   0.731710 0.552730 0.549140 -0.146107
N2    N     N_R   0.268290 0.447270 0.450860 -0.157206
O1    O     O_R   0.383110 0.605620 0.475230 -0.567464
O2    O     O_R   0.616890 0.394380 0.524770 -0.560735
O3    O     O_R   0.531900 0.639510 0.506760 -0.624616
O4    O     O_R   0.468100 0.360490 0.493240 -0.631446
O5    O     O_R   0.425620 0.483070 0.607460 -0.574040
O6    O     O_R   0.574380 0.516930 0.392540 -0.553875
O7    O     O_R   0.574400 0.516960 0.638990 -0.622003
O8    O     O_R   0.425600 0.483040 0.361010 -0.649193
Zn1   Zn    Zn3+2 0.400660 0.477370 0.478940 0.962880
Zn2   Zn    Zn3+2 0.599340 0.522630 0.521060 0.982013
O9    O     O_3   0.246830 0.481336 0.591609 -0.645834
C51   C     C_3   0.271611 0.399755 0.639540 0.131894
H19   H     H_    0.331389 0.405840 0.695318 0.193802
H20   H     H_    0.295333 0.344409 0.600646 0.124360
C52   C     C_3   0.192152 0.378008 0.677800 -0.423746
H21   H     H_    0.168987 0.433943 0.715667 0.246128
H22   H     H_    0.132918 0.366609 0.623879 0.227613
C53   C     C_3   0.221960 0.296048 0.738217 -0.905819
H23   H     H_    0.162405 0.281302 0.763421 0.266074
H24   H     H_    0.245459 0.239068 0.701839 0.267414
H25   H     H_    0.279031 0.306568 0.794904 0.289978
O10   O     O_3   0.749742 0.528617 0.406138 -0.611240
C54   C     C_3   0.751045 0.609025 0.362812 0.106835
H26   H     H_    0.823132 0.623366 0.370624 0.130431
H27   H     H_    0.710492 0.664104 0.389499 0.105444
C55   C     C_3   0.707446 0.606360 0.264676 -0.306742
H28   H     H_    0.633270 0.599806 0.254598 0.240959
H29   H     H_    0.711462 0.669468 0.232421 0.191780
C56   C     C_3   0.756262 0.531538 0.221434 -0.790882
H30   H     H_    0.746399 0.467265 0.246979 0.270699
H31   H     H_    0.831493 0.535507 0.233822 0.252881
H32   H     H_    0.726425 0.536309 0.149522 0.239578
O11   O     O_3   0.880464 0.648541 0.735033 -0.650988
C57   C     C_3   0.843588 0.624218 0.805278 0.080314
H33   H     H_    0.901164 0.614452 0.865336 0.161707
H34   H     H_    0.816290 0.560418 0.797152 0.131890
C58   C     C_3   0.770489 0.698560 0.820961 -0.342913
H35   H     H_    0.805209 0.754877 0.848100 0.230851
H36   H     H_    0.720483 0.721601 0.758116 0.222483
C59   C     C_3   0.717288 0.669054 0.884722 -0.936605
H37   H     H_    0.678404 0.615727 0.856269 0.263395
H38   H     H_    0.666993 0.724915 0.896872 0.287019
H39   H     H_    0.765688 0.645340 0.948258 0.262814
O12   O     O_3   0.119245 0.356579 0.261852 -0.646980
C60   C     C_3   0.183476 0.285896 0.245029 0.078156
H40   H     H_    0.144841 0.230412 0.223635 0.159372
H41   H     H_    0.239021 0.259923 0.303847 0.114857
C61   C     C_3   0.224651 0.312189 0.169900 -0.355093
H42   H     H_    0.168877 0.323278 0.108461 0.230650
H43   H     H_    0.253505 0.374399 0.183922 0.219603
C62   C     C_3   0.301275 0.241384 0.155881 -0.924257
H44   H     H_    0.359855 0.232549 0.215103 0.259795
H45   H     H_    0.327360 0.261238 0.099271 0.281750
H46   H     H_    0.274368 0.178192 0.141991 0.266093
I1    I     I_    0.506469 0.709422 0.073778 -0.460501
I2    I     I_    0.486109 0.288629 0.923319 -0.424709
O13   O     O_3   0.751047 0.266221 0.585628 -0.626769
C63   C     C_3   0.824306 0.267204 0.543024 0.096724
H47   H     H_    0.821778 0.335476 0.518838 0.166472
H48   H     H_    0.820027 0.225341 0.484631 0.116369
C64   C     C_3   0.917076 0.239699 0.609131 -0.337521
H49   H     H_    0.925274 0.287047 0.662657 0.232324
H50   H     H_    0.918264 0.173821 0.638549 0.222753
C65   C     C_3   0.998235 0.236496 0.565744 -0.972181
H51   H     H_    0.991793 0.189202 0.512233 0.268011
H52   H     H_    0.064183 0.215163 0.615180 0.275748
H53   H     H_    0.000428 0.302288 0.538396 0.271642
O14   O     O_3   0.259202 0.724212 0.364737 -0.636328
C66   C     C_3   0.284456 0.675098 0.295676 0.138814
H54   H     H_    0.265566 0.608611 0.301316 0.187786
H55   H     H_    0.360413 0.665667 0.299194 0.107398
C67   C     C_3   0.230921 0.716916 0.206264 -0.391525
H56   H     H_    0.155362 0.725778 0.202790 0.236409
H57   H     H_    0.251400 0.782223 0.197900 0.226553
C68   C     C_3   0.250810 0.659749 0.131752 -0.908680
H58   H     H_    0.325961 0.650593 0.133614 0.285328
H59   H     H_    0.211891 0.691847 0.067688 0.271206
H60   H     H_    0.228896 0.594586 0.137343 0.255933

loop_
_geom_bond_atom_site_label_1
_geom_bond_atom_site_label_2
_ccdc_geom_bond_type
C33   H5    S    
C39   H1    S    
C34   H6    S    
C54   H26   S    
C27   C29   A    
C24   C42   S    
C64   C65   S    
C63   H47   S    
C65   H53   S    
O1    Zn1   S    
O9    C51   S    
C5    O14   S    
C20   C30   A    
C52   H21   S    
C40   C46   S    
C1    O1    A    
C19   C21   A    
C6    O13   S    
C21   H4    S    
C66   C67   S    
C52   C53   S    
C60   H40   S    
C15   H15   S    
C55   C56   S    
O2    Zn2   S    
C15   C17   A    
C9    C13   A    
C61   H42   S    
C38   C45   S    
C2    C50   S    
C38   H8    S    
C19   O11   S    
C40   C43   S    
C56   H30   S    
C60   H41   S    
C55   H29   S    
C58   H35   S    
C4    C12   A    
C2    O4    A    
C8    H11   S    
C39   C45   S    
C52   H22   S    
C54   H27   S    
C38   C40   S    
C13   C14   A    
C58   H36   S    
C67   C68   S    
C5    C49   A    
C2    O2    A    
C43   I2    S    
C57   H34   S    
C57   H33   S    
C68   H59   S    
C44   C46   S    
C68   H58   S    
C22   H3    S    
C59   H38   S    
C45   C47   S    
C46   C48   S    
C44   I1    S    
C27   C31   A    
C28   C32   A    
C7    C49   A    
C4    C6    A    
C10   C14   A    
C23   O5    A    
O8    Zn1   S    
C24   O6    A    
C65   H52   S    
C3    C5    A    
C40   H2    S    
C6    C50   A    
C59   H37   S    
C21   N1    A    
C61   C62   S    
C37   C43   S    
C7    H12   S    
C38   C44   S    
C43   C45   S    
C31   C32   A    
C53   H25   S    
C35   H17   S    
C60   C61   S    
C55   H28   S    
C41   C47   T    
C31   C34   A    
C16   C18   A    
C42   C48   T    
C23   O7    A    
C9    C11   A    
C59   H39   S    
C62   H44   S    
C39   C44   S    
C10   C12   A    
C17   H9    S    
C24   O8    A    
C56   H31   S    
C53   H24   S    
C54   C55   S    
C51   H20   S    
O4    Zn1   S    
C25   C27   A    
C26   N2    A    
C58   C59   S    
C67   H57   S    
C25   N1    A    
C64   H49   S    
C19   C29   A    
C63   C64   S    
C8    C50   A    
C68   H60   S    
O7    Zn2   S    
C18   H10   S    
C7    C9    A    
C4    H14   S    
C11   C17   A    
C25   O10   S    
N2    Zn1   S    
C14   C15   A    
O6    Zn2   S    
C20   C22   A    
C64   H50   S    
C63   H48   S    
C66   H54   S    
C36   H18   S    
O12   C60   S    
C65   H51   S    
C3    H13   S    
C26   O9    S    
C51   C52   S    
C29   C35   A    
C26   C28   A    
C23   C41   S    
C30   C36   A    
C1    O3    A    
C32   C33   A    
C28   C30   A    
C37   C39   S    
C20   O12   S    
C66   H55   S    
C1    C49   S    
O10   C54   S    
C33   C35   A    
O3    Zn2   S    
C34   C36   A    
C61   H43   S    
C62   H45   S    
C3    C11   A    
O14   C66   S    
C56   H32   S    
C16   H16   S    
C53   H23   S    
C8    C10   A    
C51   H19   S    
C13   C16   A    
C12   C18   A    
O11   C57   S    
C62   H46   S    
C67   H56   S    
N1    Zn2   S    
C37   C46   S    
O5    Zn1   S    
C22   N2    A    
C57   C58   S    
C37   H7    S    
O13   C63   S    
