data_mof_unit_66121.cif
_audit_creation_date              2012-12-10T16:49:19-0500
_audit_creation_method            fapswitch 2.2
_symmetry_space_group_name_H-M    P1
_symmetry_Int_Tables_number       1
_space_group_crystal_system       triclinic
_cell_length_a                    18.619052
_cell_length_b                    18.89945
_cell_length_c                    18.911486
_cell_angle_alpha                 109.792783
_cell_angle_beta                  109.246018
_cell_angle_gamma                 109.061416
_cell_volume                      5142.38746524

loop_
_atom_site_label
_atom_site_type_symbol
_atom_type_description
_atom_site_fract_x
_atom_site_fract_y
_atom_site_fract_z
_atom_type_partial_charge
C1    C     C_R   0.380092 0.382591 0.501455 0.793961
C2    C     C_R   0.472070 0.663161 0.739622 0.002770
C3    C     C_R   0.495863 0.682319 0.682569 -0.226732
C4    C     C_R   0.521064 0.763601 0.689493 0.161295
C5    C     C_R   0.520363 0.826315 0.753211 0.420548
C6    C     C_R   0.508954 0.812177 0.818421 -0.266386
C7    C     C_2   0.250662 0.259510 0.578520 -0.106373
C8    C     C_2   0.199342 0.179298 0.511622 -0.289224
C9    C     C_2   0.324263 0.317900 0.578011 0.143781
C10   C     C_2   0.310110 0.323748 0.505639 0.240113
C11   C     C_2   0.501284 0.174582 0.255827 0.521257
C12   C     C_R   0.499621 0.619283 0.618754 0.956313
C13   C     C_2   0.510329 0.184335 0.191552 -0.402470
C14   C     C_2   0.515270 0.250821 0.328253 -0.316229
C15   C     C_2   0.487238 0.303454 0.312295 -0.389058
C16   C     C_2   0.751222 0.739438 0.422803 -0.316511
C17   C     C_2   0.804766 0.818227 0.492661 -0.376392
C18   C     C_2   0.675384 0.677487 0.419465 0.519070
C19   C     C_2   0.687871 0.674726 0.492413 -0.381996
C20   C     C_R   0.380990 0.994418 0.875440 0.954648
C21   C     C_R   0.504507 0.877614 0.881286 0.969811
C22   C     C_R   0.619514 0.001081 0.119305 0.978115
C23   C     C_R   0.619639 0.616410 0.497713 1.001742
C24   C     C_R   0.502403 0.116656 0.119030 0.953225
C25   C     C_R   0.878768 0.998492 0.381578 0.929767
C26   C     C_R   0.122563 0.118047 0.503211 0.930439
C27   C     C_R   0.116519 0.996787 0.618281 0.953789
C28   C     C_R   0.878769 0.881447 0.498369 0.964409
C29   C     C_2   0.185356 0.920503 0.667081 -0.180147
C30   C     C_2   0.173873 0.989478 0.684826 -0.380234
C31   C     C_2   0.245439 0.916524 0.736696 0.301550
C32   C     C_2   0.316829 0.990311 0.803928 -0.411417
C33   C     C_2   0.746932 0.008955 0.325927 -0.164124
C34   C     C_R   0.497604 0.377789 0.380040 0.962034
C35   C     C_2   0.807007 0.990858 0.313818 -0.321265
C36   C     C_2   0.674511 0.997265 0.252911 -0.126558
C37   C     C_2   0.688031 0.012023 0.192854 -0.276996
C38   C     C_R   0.431631 0.577629 0.723697 -0.084534
C39   C     C_R   0.417321 0.561729 0.785849 -0.145606
C40   C     C_R   0.450745 0.630664 0.866981 -0.155908
C41   C     C_R   0.491110 0.715502 0.883476 0.309798
C42   C     C_R   0.490877 0.731631 0.815245 -0.007057
H1    H     H_    0.531761 0.247046 0.195460 0.130243
H2    H     H_    0.546822 0.262599 0.393802 0.180680
H3    H     H_    0.449448 0.288021 0.246206 0.160762
H4    H     H_    0.761520 0.721112 0.367529 0.181737
H5    H     H_    0.790258 0.839115 0.544791 0.174007
H6    H     H_    0.752419 0.713232 0.549613 0.131502
H7    H     H_    0.148936 0.865817 0.601719 0.196025
H8    H     H_    0.410133 0.522947 0.662981 0.144258
H9    H     H_    0.203236 0.040177 0.751108 0.163506
H10   H     H_    0.333785 0.050592 0.802964 0.141249
H11   H     H_    0.748641 0.028272 0.387751 0.172259
H12   H     H_    0.799317 0.961845 0.249530 0.176149
H13   H     H_    0.611393 0.979191 0.249854 0.176383
H14   H     H_    0.753426 0.039895 0.201298 0.155447
H15   H     H_    0.385559 0.496173 0.773231 0.183439
H16   H     H_    0.449234 0.618144 0.918416 0.168602
H17   H     H_    0.240017 0.281419 0.633235 0.169849
H18   H     H_    0.217116 0.156198 0.462641 0.156994
O1    O     O_R   0.460610 0.409240 0.550770 -0.589529
O2    O     O_R   0.358520 0.946380 0.906940 -0.574364
O3    O     O_R   0.551120 0.956920 0.905770 -0.573101
O4    O     O_R   0.449000 0.854790 0.905800 -0.597610
O5    O     O_R   0.641600 0.047410 0.086710 -0.632503
O6    O     O_R   0.539480 0.945290 0.086740 -0.583279
O7    O     O_R   0.551130 0.138990 0.087850 -0.636137
O8    O     O_R   0.449000 0.036870 0.087880 -0.581866
O9    O     O_R   0.909540 0.051950 0.461490 -0.611140
O10   O     O_R   0.909530 0.949160 0.358700 -0.621390
O11   O     O_R   0.090460 0.141840 0.551380 -0.612112
O12   O     O_R   0.358470 0.409870 0.449260 -0.622999
O13   O     O_R   0.090460 0.039050 0.448590 -0.629973
O14   O     O_R   0.090470 0.050840 0.641300 -0.623157
O15   O     O_R   0.090460 0.948050 0.538510 -0.619327
O16   O     O_R   0.909540 0.960950 0.551410 -0.623626
O17   O     O_R   0.909540 0.858160 0.448620 -0.616468
O18   O     O_R   0.551070 0.590720 0.641790 -0.601805
O19   O     O_R   0.448930 0.591350 0.540280 -0.601573
O20   O     O_R   0.641530 0.590130 0.550740 -0.632934
O21   O     O_R   0.539390 0.590760 0.449230 -0.554594
O22   O     O_R   0.551070 0.408650 0.459720 -0.616460
O23   O     O_R   0.448930 0.409280 0.358210 -0.629265
O24   O     O_R   0.460650 0.048500 0.906910 -0.638455
Zn1   Zn    Zn3+2 0.568200 0.499580 0.567780 1.027788
Zn2   Zn    Zn3+2 0.431800 0.500420 0.432220 1.012229
Zn3   Zn    Zn3+2 0.568250 0.065080 0.996810 1.001534
Zn4   Zn    Zn3+2 0.431870 0.928710 0.996840 1.047884
Zn5   Zn    Zn3+2 0.000000 0.068630 0.568630 0.981098
Zn6   Zn    Zn3+2 0.000000 0.931370 0.431370 0.971275
Br1   Br    Br    0.556021 0.790812 0.612362 -0.480937
O25   O     O_3   0.224112 0.285225 0.440007 -0.594923
C43   C     C_3   0.212637 0.232101 0.358882 0.099139
H19   H     H_    0.250436 0.197077 0.363925 0.100706
H20   H     H_    0.232456 0.271234 0.329345 0.179095
C44   C     C_3   0.116216 0.165203 0.298012 -0.797407
H21   H     H_    0.076757 0.197968 0.289973 0.265440
H22   H     H_    0.106183 0.123923 0.233760 0.208389
H23   H     H_    0.093543 0.123525 0.324312 0.251032
O26   O     O_3   0.490420 0.098401 0.256980 -0.599096
C45   C     C_3   0.448535 0.081917 0.304239 0.101973
H24   H     H_    0.390263 0.091174 0.286788 0.139335
H25   H     H_    0.495175 0.124423 0.374852 0.144943
C46   C     C_3   0.417702 0.988605 0.283343 -0.792975
H26   H     H_    0.474368 0.977271 0.300923 0.252207
H27   H     H_    0.385083 0.974754 0.320500 0.207458
H28   H     H_    0.370505 0.944124 0.213147 0.257708
O27   O     O_3   0.596432 0.616467 0.342826 -0.594313
C47   C     C_3   0.577506 0.648093 0.285187 0.120190
H29   H     H_    0.617856 0.646712 0.253089 0.143908
H30   H     H_    0.588727 0.715031 0.318933 0.149934
C48   C     C_3   0.481768 0.590057 0.215493 -0.782770
H31   H     H_    0.439452 0.590297 0.245362 0.257513
H32   H     H_    0.466055 0.613895 0.169371 0.208886
H33   H     H_    0.468321 0.522834 0.179580 0.255402
Br2   Br    Br    0.222683 0.804182 0.722002 -0.510374
Br3   Br    Br    0.569978 0.800646 0.002480 -0.539356
O28   O     O_3   0.533875 0.902834 0.753161 -0.559579
C49   C     C_3   0.451832 0.892976 0.703562 0.137274
H34   H     H_    0.408046 0.877554 0.730860 0.137163
H35   H     H_    0.419138 0.840880 0.635131 0.166534
C50   C     C_3   0.465152 0.977098 0.704436 -0.748819
H36   H     H_    0.400848 0.970534 0.667111 0.201709
H37   H     H_    0.498075 0.030552 0.771957 0.265166
H38   H     H_    0.506095 0.992879 0.674719 0.263327
Br4   Br    Br    0.435930 0.375928 0.680914 -0.538329

loop_
_geom_bond_atom_site_label_1
_geom_bond_atom_site_label_2
_ccdc_geom_bond_type
C30   H9    S    
C12   O19   A    
C45   H24   S    
C8    C26   S    
C41   C42   A    
O24   Zn3   S    
C26   O13   A    
C48   H32   S    
C7    C8    D    
C29   H7    S    
O20   Zn1   S    
O14   Zn5   S    
C36   C37   D    
O13   Zn6   S    
C47   H30   S    
O6    Zn4   S    
C5    C6    A    
C11   C14   S    
C27   O15   A    
C39   H15   S    
C44   H23   S    
C11   C13   D    
C33   C36   S    
O27   C47   S    
C18   C19   D    
O28   C49   S    
C48   H31   S    
C21   O4    A    
C3    C12   S    
C24   O7    A    
C37   H14   S    
C32   H10   S    
C16   C17   D    
C44   H22   S    
C23   O20   A    
C27   O14   A    
C9    C10   D    
C15   C34   S    
O21   Zn2   S    
O15   Zn6   S    
O16   Zn5   S    
C4    Br1   S    
C10   O25   S    
C45   H25   S    
C27   C30   S    
C26   O11   A    
O10   Zn6   S    
O9    Zn5   S    
C7    H17   S    
C46   H26   S    
O5    Zn3   S    
C49   H35   S    
C33   H11   S    
C43   H20   S    
O17   Zn6   S    
C1    O12   A    
C40   H16   S    
C48   H33   S    
C47   C48   S    
C16   H4    S    
C39   C40   A    
C19   H6    S    
C6    C21   S    
O2    Zn4   S    
C13   C24   S    
C12   O18   A    
C11   O26   S    
C19   C23   S    
C22   O5    A    
C29   C30   D    
C2    C38   A    
C31   C32   D    
O11   Zn5   S    
C44   H21   S    
C43   H19   S    
C28   O17   A    
O1    Zn1   S    
C25   C35   S    
O18   Zn1   S    
C40   C41   A    
C45   C46   S    
C20   O24   A    
O8    Zn4   S    
C25   O9    A    
C34   O23   A    
C15   H3    S    
C50   H37   S    
C3    C4    A    
C28   O16   A    
C31   Br2   S    
C13   H1    S    
C14   H2    S    
C20   C32   S    
C49   C50   S    
C7    C9    S    
C23   O21   A    
O3    Zn3   S    
C17   C28   S    
C1    C10   S    
C17   H5    S    
C4    C5    A    
C1    O1    A    
O12   Zn2   S    
C49   H34   S    
C22   O6    A    
C46   H27   S    
C38   H8    S    
C43   C44   S    
O22   Zn1   S    
O7    Zn3   S    
C9    Br4   S    
C5    O28   S    
C50   H38   S    
C2    C3    A    
C29   C31   S    
C36   H13   S    
C47   H29   S    
C8    H18   S    
C22   C37   S    
C38   C39   A    
C2    C42   A    
O25   C43   S    
C33   C35   D    
C46   H28   S    
C20   O2    A    
C18   O27   S    
C21   O3    A    
C24   O8    A    
O23   Zn2   S    
C16   C18   S    
C6    C42   A    
C14   C15   D    
O26   C45   S    
C25   O10   A    
C34   O22   A    
C41   Br3   S    
C50   H36   S    
O4    Zn4   S    
O19   Zn2   S    
C35   H12   S    
