data_mof_unit_39531.cif
_audit_creation_date              2012-12-10T16:49:21-0500
_audit_creation_method            fapswitch 2.2
_symmetry_space_group_name_H-M    P1
_symmetry_Int_Tables_number       1
_space_group_crystal_system       triclinic
_cell_length_a                    7.744886
_cell_length_b                    8.643795
_cell_length_c                    12.859808
_cell_angle_alpha                 89.942768
_cell_angle_beta                  87.806048
_cell_angle_gamma                 93.292753
_cell_volume                      858.846790399

loop_
_atom_site_label
_atom_site_type_symbol
_atom_type_description
_atom_site_fract_x
_atom_site_fract_y
_atom_site_fract_z
_atom_type_partial_charge
C1    C     C_R   0.455473 0.205796 0.497736 0.914105
C2    C     C_R   0.704361 0.441242 0.140472 -0.238763
C3    C     C_R   0.580736 0.455714 0.868808 -0.189594
C4    C     C_R   0.419264 0.544286 0.131192 -0.189594
C5    C     C_R   0.574173 0.470263 0.975323 -0.054698
C6    C     C_R   0.425826 0.529737 0.024677 -0.054698
C7    C     C_2   0.432715 0.044649 0.512181 -0.244730
C8    C     C_2   0.567285 0.955351 0.487819 -0.244730
C9    C     C_1   0.274606 0.991249 0.569942 0.238285
C10   C     C_1   0.725394 0.008751 0.430058 0.238285
C11   C     C_R   0.544527 0.794204 0.502264 0.914105
C12   C     C_R   0.465318 0.501317 0.699829 0.921140
C13   C     C_R   0.534682 0.498683 0.300171 0.921140
C14   C     C_R   0.555861 0.497027 0.188993 -0.182183
C15   C     C_R   0.444139 0.502973 0.811007 -0.182183
C16   C     C_R   0.286170 0.572324 0.966753 0.706984
C17   C     C_R   0.713830 0.427676 0.033247 0.706984
C18   C     C_R   0.295639 0.558758 0.859528 -0.238763
F1    F     F_    0.142655 0.628821 0.013423 -0.647277
F2    F     F_    0.857345 0.371179 0.986576 -0.647277
H1    H     H_    0.305916 0.590084 0.169414 0.223555
H2    H     H_    0.694084 0.409916 0.830586 0.223555
H3    H     H_    0.810403 0.404688 0.185399 0.195662
H4    H     H_    0.189597 0.595312 0.814601 0.195662
H5    H     H_    0.998217 0.615728 0.422157 0.201979
H6    H     H_    0.001783 0.384272 0.577843 0.201979
N1    N     N_2   0.054030 0.541640 0.471970 -0.165693
N2    N     N_2   0.945970 0.458360 0.528030 -0.165693
N3    N     N_1   0.149024 0.949299 0.615784 -0.175985
N4    N     N_1   0.850976 0.050701 0.384216 -0.175985
O1    O     O_R   0.609680 0.261530 0.506880 -0.611445
O2    O     O_R   0.390320 0.738470 0.493120 -0.611445
O3    O     O_R   0.323330 0.288220 0.488910 -0.619810
O4    O     O_R   0.676670 0.711780 0.511090 -0.619809
O5    O     O_R   0.619510 0.488830 0.661140 -0.619851
O6    O     O_R   0.380490 0.511170 0.338860 -0.619851
O7    O     O_R   0.333160 0.515520 0.643180 -0.628759
O8    O     O_R   0.666840 0.484480 0.356820 -0.628759
Zn1   Zn    Zn3+2 0.691200 0.482180 0.511990 0.977078
Zn2   Zn    Zn3+2 0.308800 0.517820 0.488010 0.977078

loop_
_geom_bond_atom_site_label_1
_geom_bond_atom_site_label_2
_ccdc_geom_bond_type
C15   C18   A    
O5    Zn1   S    
C8    C10   S    
H5    N1    S    
C10   N4    T    
H6    N2    S    
C12   C15   S    
C9    N3    T    
N1    Zn2   S    
C1    O3    A    
C7    C8    D    
C13   C14   S    
C2    C17   A    
C4    H1    S    
C13   O8    A    
C5    C6    A    
C16   F1    S    
C18   H4    S    
C4    C6    A    
O1    Zn1   S    
C11   O2    A    
O7    Zn2   S    
O2    Zn2   S    
C1    O1    A    
C4    C14   A    
O8    Zn1   S    
C2    C14   A    
C12   O5    A    
O3    Zn2   S    
C5    C17   A    
C8    C11   S    
C6    C16   A    
O4    Zn1   S    
O6    Zn2   S    
C17   F2    S    
C3    C15   A    
C13   O6    A    
C16   C18   A    
C12   O7    A    
C2    H3    S    
C7    C9    S    
C3    H2    S    
N2    Zn1   S    
C3    C5    A    
C1    C7    S    
C11   O4    A    
N1    N2    D    
