data_mof_unit_26759.cif
_audit_creation_date              2012-12-10T20:31:00-0500
_audit_creation_method            fapswitch 2.2
_symmetry_space_group_name_H-M    P1
_symmetry_Int_Tables_number       1
_space_group_crystal_system       triclinic
_cell_length_a                    14.900245
_cell_length_b                    10.669861
_cell_length_c                    9.890454
_cell_angle_alpha                 90.004929
_cell_angle_beta                  90.698734
_cell_angle_gamma                 89.92358
_cell_volume                      1572.30109048

loop_
_atom_site_label
_atom_site_type_symbol
_atom_type_description
_atom_site_fract_x
_atom_site_fract_y
_atom_site_fract_z
_atom_type_partial_charge
C1    C     C_R   0.495585 0.260496 0.499569 0.864229
C2    C     C_R   0.906540 0.599114 0.566822 0.087597
C3    C     C_R   0.953498 0.319628 0.348092 -0.188124
C4    C     C_R   0.046424 0.322610 0.344855 -0.249353
C5    C     C_R   0.093110 0.413869 0.418202 0.148659
C6    C     C_R   0.046598 0.505359 0.493540 0.083708
C7    C     C_R   0.093994 0.596481 0.568758 0.087387
C8    C     C_R   0.048355 0.689854 0.639016 -0.271881
C9    C     C_R   0.954599 0.694245 0.637264 0.187211
C10   C     C_R   0.185951 0.414614 0.418595 -0.277977
C11   C     C_R   0.231721 0.502431 0.497013 -0.047459
C12   C     C_R   0.327062 0.500521 0.499224 0.860108
C13   C     C_R   0.186967 0.592854 0.572055 -0.260888
C14   C     C_R   0.550224 0.065441 0.587785 0.064930
C15   C     C_R   0.493865 0.128158 0.496893 -0.136250
C16   C     C_R   0.447077 0.061458 0.393883 0.159789
C17   C     C_R   0.452936 0.931855 0.394548 -0.272042
C18   C     C_R   0.501363 0.870951 0.496800 -0.133115
C19   C     C_R   0.553898 0.937751 0.587997 0.115491
C20   C     C_3   0.560235 0.930304 0.738610 -0.451270
C21   C     C_3   0.556028 0.072382 0.738761 -0.482617
C22   C     C_R   0.437464 0.432722 0.070001 0.097883
C23   C     C_R   0.500595 0.739408 0.499847 0.885380
C24   C     C_R   0.564002 0.562646 0.074154 0.427933
C25   C     C_R   0.568178 0.554206 0.929531 0.406920
C26   C     C_R   0.436992 0.433705 0.927764 0.094904
C27   C     C_3   0.337964 0.452419 0.920495 -0.453787
C28   C     C_3   0.338260 0.451671 0.073885 -0.465743
C29   C     C_R   0.672847 0.499779 0.500457 0.948186
C30   C     C_R   0.813276 0.594819 0.566424 -0.359931
C31   C     C_R   0.768247 0.498319 0.500500 -0.177328
C32   C     C_R   0.813200 0.403941 0.430425 0.472790
C33   C     C_R   0.906350 0.409001 0.423525 0.022305
C34   C     C_R   0.953106 0.504751 0.494570 -0.052105
H1    H     H_    0.773925 0.666071 0.616160 0.193095
H2    H     H_    0.414814 0.878239 0.320423 0.162685
H3    H     H_    0.500570 0.885715 0.784871 0.208337
H4    H     H_    0.626159 0.892778 0.773675 0.213703
H5    H     H_    0.493872 0.110057 0.784999 0.215608
H6    H     H_    0.619443 0.116968 0.774344 0.196410
H7    H     H_    0.318747 0.544682 0.876485 0.208569
H8    H     H_    0.302925 0.370313 0.875271 0.201983
H9    H     H_    0.319280 0.543542 0.118388 0.211605
H10   H     H_    0.302884 0.369621 0.117194 0.198521
H11   H     H_    0.918826 0.246941 0.291726 0.188173
H12   H     H_    0.081833 0.252568 0.286598 0.144293
H13   H     H_    0.222769 0.345302 0.361107 0.127148
H14   H     H_    0.224763 0.661264 0.630613 0.138337
H15   H     H_    0.086152 0.760549 0.694112 0.143225
N1    N     N_R   0.499390 0.499140 0.142800 -0.165608
N2    N     N_R   0.499390 0.499180 0.857150 -0.165237
O1    O     O_R   0.500010 0.316790 0.614690 -0.623027
O2    O     O_R   0.500000 0.316760 0.385350 -0.603584
O3    O     O_R   0.367850 0.499990 0.614680 -0.624802
O4    O     O_R   0.367840 0.499950 0.385340 -0.631917
O5    O     O_R   0.500000 0.683240 0.614650 -0.600839
O6    O     O_R   0.499990 0.683210 0.385310 -0.611302
O7    O     O_R   0.632160 0.500050 0.614660 -0.593900
O8    O     O_R   0.632150 0.500010 0.385320 -0.529017
Zn1   Zn    Zn3+2 0.500010 0.500020 0.653130 0.965668
Zn2   Zn    Zn3+2 0.499990 0.499980 0.346870 0.990040
O9    O     O_3   0.625520 0.633209 0.146811 -0.570702
C35   C     C_3   0.607136 0.761573 0.125614 -0.253129
H16   H     H_    0.645080 0.816679 0.202294 0.182309
H17   H     H_    0.629984 0.792222 0.024419 0.176654
H18   H     H_    0.534655 0.784281 0.138020 0.141708
O10   O     O_3   0.639730 0.605598 0.861731 -0.587247
C36   C     C_3   0.716712 0.531622 0.888929 -0.261973
H19   H     H_    0.774266 0.571358 0.834200 0.171853
H20   H     H_    0.707056 0.433435 0.853445 0.156716
H21   H     H_    0.736202 0.532137 0.997668 0.193174
O11   O     O_3   0.765504 0.310627 0.363726 -0.605394
C37   C     C_3   0.751005 0.211261 0.455014 -0.355537
H22   H     H_    0.710524 0.241951 0.542873 0.154232
H23   H     H_    0.815575 0.169627 0.490761 0.163130
H24   H     H_    0.712684 0.136618 0.401840 0.202674
C38   C     C_3   0.909146 0.800785 0.711937 -0.408379
C39   C     C_3   0.874363 0.901066 0.614101 -0.875796
H25   H     H_    0.825090 0.861601 0.540693 0.260761
H26   H     H_    0.840897 0.976804 0.671855 0.242022
H27   H     H_    0.931110 0.942368 0.557527 0.261383
H28   H     H_    0.853950 0.765176 0.775580 0.200705
H29   H     H_    0.957142 0.846601 0.783266 0.201238
C40   C     C_3   0.384664 0.120843 0.289731 -0.394627
C41   C     C_3   0.427633 0.121307 0.150260 -0.833957
H30   H     H_    0.490476 0.177127 0.152285 0.276884
H31   H     H_    0.443438 0.024222 0.117592 0.239500
H32   H     H_    0.380445 0.162939 0.075053 0.235704
H33   H     H_    0.321132 0.066412 0.284048 0.184862
H34   H     H_    0.364147 0.217137 0.317727 0.207524

loop_
_geom_bond_atom_site_label_1
_geom_bond_atom_site_label_2
_ccdc_geom_bond_type
C35   H17   S    
C37   H22   S    
C19   C20   S    
C25   O10   S    
C7    C8    A    
C32   O11   S    
O3    Zn1   S    
C38   C39   S    
C26   C27   S    
C30   H1    S    
C14   C21   S    
C5    C6    A    
C39   H26   S    
C38   H29   S    
O7    Zn1   S    
C15   C16   A    
C16   C40   S    
C18   C19   A    
C1    O2    A    
O1    Zn1   S    
C36   H19   S    
O2    Zn2   S    
C29   O8    A    
C16   C17   A    
C1    C15   S    
C17   H2    S    
C39   H27   S    
C22   N1    A    
C2    C34   A    
C35   H18   S    
C22   C28   S    
C37   H23   S    
C40   H34   S    
C17   C18   A    
C41   H31   S    
C24   N1    A    
O8    Zn2   S    
O10   C36   S    
C23   O5    A    
C40   C41   S    
C39   H25   S    
C8    C9    A    
C4    H12   S    
C41   H30   S    
C28   H10   S    
C18   C23   S    
C25   N2    A    
O9    C35   S    
C20   H4    S    
C27   H7    S    
C31   C32   A    
C21   H5    S    
C7    C13   A    
C20   C21   S    
C33   C34   A    
C9    C38   S    
C24   C25   A    
C37   H24   S    
C40   H33   S    
C3    C4    A    
C10   H13   S    
C41   H32   S    
C23   O6    A    
C24   O9    S    
C14   C19   A    
O11   C37   S    
C13   H14   S    
C11   C12   S    
O6    Zn2   S    
C6    C7    A    
C28   H9    S    
C2    C30   A    
C32   C33   A    
C5    C10   A    
C29   C31   S    
C26   N2    A    
C20   H3    S    
C11   C13   A    
C27   H8    S    
C30   C31   A    
C21   H6    S    
C38   H28   S    
C36   H21   S    
O4    Zn2   S    
C3    H11   S    
C1    O1    A    
C12   O4    A    
C10   C11   A    
C35   H16   S    
C6    C34   A    
C4    C5    A    
O5    Zn1   S    
C29   O7    A    
C36   H20   S    
C22   C26   A    
C27   C28   S    
N1    Zn2   S    
C3    C33   A    
C14   C15   A    
N2    Zn1   S    
C2    C9    A    
C8    H15   S    
C12   O3    A    
