data_mof_unit_17863.cif
_audit_creation_date              2012-12-10T16:47:55-0500
_audit_creation_method            fapswitch 2.2
_symmetry_space_group_name_H-M    P1
_symmetry_Int_Tables_number       1
_space_group_crystal_system       triclinic
_cell_length_a                    7.852828
_cell_length_b                    8.548227
_cell_length_c                    10.580155
_cell_angle_alpha                 91.433524
_cell_angle_beta                  86.684474
_cell_angle_gamma                 92.950657
_cell_volume                      707.920233759

loop_
_atom_site_label
_atom_site_type_symbol
_atom_type_description
_atom_site_fract_x
_atom_site_fract_y
_atom_site_fract_z
_atom_type_partial_charge
C1    C     C_R   0.545120 0.793716 0.507901 0.897088
C2    C     C_2   0.435585 0.042996 0.517989 -0.497527
C3    C     C_R   0.505497 0.508777 0.737093 0.930741
C4    C     C_R   0.456383 0.206527 0.511445 0.980973
C5    C     C_R   0.496722 0.503455 0.262838 1.003969
C6    C     C_2   0.489915 0.652754 0.072555 0.442013
C7    C     C_2   0.483872 0.514280 0.130582 -0.406069
C8    C     C_2   0.451849 0.648349 0.938966 0.077435
C9    C     C_2   0.527528 0.536414 0.868202 -0.341682
C10   C     C_2   0.567974 0.955151 0.538205 0.275405
H1    H     H_    0.441311 0.406591 0.082426 0.127096
H2    H     H_    0.626769 0.470381 0.906929 0.168935
H3    H     H_    0.314148 0.993552 0.486897 0.217282
H4    H     H_    0.988846 0.595702 0.610157 0.165082
N1    N     N_2   0.950320 0.457950 0.466680 0.123492
N2    N     N_2   0.049680 0.542050 0.533320 -0.119581
O1    O     O_R   0.389250 0.738570 0.508180 -0.652528
O2    O     O_R   0.678390 0.711630 0.486820 -0.565397
O3    O     O_R   0.355470 0.513470 0.691600 -0.643981
O4    O     O_R   0.644610 0.486520 0.670240 -0.614555
O5    O     O_R   0.321610 0.288370 0.513180 -0.557652
O6    O     O_R   0.610750 0.261430 0.491820 -0.542402
O7    O     O_R   0.355390 0.513480 0.329760 -0.533648
O8    O     O_R   0.644530 0.486530 0.308400 -0.546597
Zn1   Zn    Zn3+2 0.306940 0.517990 0.514260 1.070736
Zn2   Zn    Zn3+2 0.693060 0.482010 0.485740 1.162483
S1    S     S_3+6 0.553996 0.833333 0.146298 0.033029
O9    O     O_2   0.698476 0.811075 0.230018 -0.259355
O10   O     O_2   0.612522 0.950532 0.047292 -0.281817
O11   O     O_3   0.386388 0.900655 0.233299 -0.561872
H5    H     H_    0.412998 0.014547 0.243964 0.370670
C11   C     C_3   0.326617 0.759530 0.890653 -0.343265
C12   C     C_3   0.142919 0.700175 0.922211 -0.729075
H6    H     H_    0.117407 0.583057 0.877485 0.264869
H7    H     H_    0.118952 0.692251 0.026315 0.306652
H8    H     H_    0.053473 0.782985 0.886808 0.258611
H9    H     H_    0.345505 0.877452 0.935083 0.258287
H10   H     H_    0.347054 0.777108 0.787262 0.203576
S2    S     S_3+6 0.755023 0.018672 0.617417 0.061273
O12   O     O_2   0.890062 0.077985 0.521340 -0.237099
O13   O     O_2   0.715741 0.146613 0.713122 -0.284122
O14   O     O_3   0.828882 0.867314 0.692832 -0.580210
H11   H     H_    0.953470 0.890756 0.695442 0.366439
S3    S     S_3+6 0.012443 0.380913 0.318446 0.215569
O15   O     O_2   0.864548 0.284940 0.268331 -0.223526
O16   O     O_2   0.057661 0.512893 0.229483 -0.294794
O17   O     O_3   0.171432 0.257599 0.317341 -0.520840
H12   H     H_    0.192975 0.226799 0.227162 0.355887

loop_
_geom_bond_atom_site_label_1
_geom_bond_atom_site_label_2
_ccdc_geom_bond_type
C2    C4    S    
C3    O3    A    
C6    C7    D    
C3    C9    S    
C11   H10   S    
S1    O10   D    
C4    O6    A    
N2    Zn1   S    
C1    O1    A    
C6    S1    S    
C5    O7    A    
S3    O17   S    
O1    Zn1   S    
C11   C12   S    
C12   H6    S    
C8    C11   S    
C3    O4    A    
S2    O13   D    
C11   H9    S    
S1    O11   S    
C7    H1    S    
C4    O5    A    
C1    O2    A    
C5    O8    A    
O4    Zn2   S    
C12   H7    S    
O8    Zn2   S    
N1    S3    S    
S2    O14   S    
O7    Zn1   S    
O11   H5    S    
O3    Zn1   S    
C9    H2    S    
H4    N2    S    
O14   H11   S    
N1    N2    D    
C2    C10   D    
S1    O9    D    
C12   H8    S    
S3    O15   D    
O6    Zn2   S    
S2    O12   D    
C5    C7    S    
C2    H3    S    
O5    Zn1   S    
C8    C9    D    
N1    Zn2   S    
C6    C8    S    
C1    C10   S    
O17   H12   S    
S3    O16   D    
C10   S2    S    
O2    Zn2   S    
