data_mof_unit_49238.cif
_audit_creation_date              2012-10-26T21:24:47-0400
_audit_creation_method            fapswitch 2.2
_symmetry_space_group_name_H-M    P1
_symmetry_Int_Tables_number       1
_space_group_crystal_system       triclinic
_cell_length_a                    9.557075
_cell_length_b                    10.942686
_cell_length_c                    15.451506
_cell_angle_alpha                 89.407494
_cell_angle_beta                  73.615918
_cell_angle_gamma                 91.215117
_cell_volume                      1549.72786868

loop_
_atom_site_label
_atom_site_type_symbol
_atom_type_description
_atom_site_fract_x
_atom_site_fract_y
_atom_site_fract_z
_atom_type_partial_charge
C1    C     C_R   0.997080 0.262733 0.502090 0.583220
C2    C     C_R   0.236154 0.372145 0.056169 0.052496
C3    C     C_R   0.333458 0.426116 0.099790 0.020648
C4    C     C_R   0.917356 0.499161 0.672423 0.540651
C5    C     C_R   0.087731 0.352666 0.104413 0.217603
C6    C     C_R   0.034843 0.397220 0.191961 -0.091606
C7    C     C_R   0.274783 0.477848 0.184307 -0.075315
C8    C     C_R   0.116071 0.066233 0.501013 0.023966
C9    C     C_R   0.990724 0.130106 0.505182 0.017517
C10   C     C_R   0.861399 0.059209 0.511312 0.219079
C11   C     C_R   0.866530 0.930978 0.510825 -0.101782
C12   C     C_R   0.678399 0.455611 0.912108 0.029425
C13   C     C_R   0.998420 0.870146 0.502455 -0.019894
C14   C     C_R   0.120845 0.942982 0.497955 -0.059683
C15   C     C_3   0.279831 0.942436 0.489845 -0.179194
C16   C     C_R   0.000799 0.737428 0.500329 0.564712
C17   C     C_3   0.273009 0.082016 0.496240 0.461656
C18   C     C_R   0.608141 0.548180 0.428326 0.171672
C19   C     C_R   0.542339 0.443017 0.566867 0.052760
C20   C     C_R   0.393608 0.443825 0.567181 0.037901
C21   C     C_R   0.460040 0.549344 0.428626 0.274958
C22   C     C_3   0.475752 0.681214 0.401820 0.081153
C23   C     C_R   0.779178 0.488034 0.960486 0.035362
C24   C     C_3   0.635708 0.676971 0.396101 -0.219830
C25   C     C_R   0.082298 0.493111 0.327929 0.568238
C26   C     C_R   0.871323 0.494621 0.771535 0.011141
C27   C     C_R   0.128258 0.461354 0.231876 -0.042837
C28   C     C_R   0.924533 0.518985 0.914496 -0.090405
C29   C     C_R   0.970634 0.521174 0.820651 -0.113085
C30   C     C_R   0.726385 0.462562 0.817246 -0.106969
C31   C     C_R   0.532403 0.421197 0.960215 0.007423
C32   C     C_R   0.485479 0.434846 0.055305 0.048097
C33   C     C_R   0.592837 0.453866 0.101927 0.250266
C34   C     C_R   0.735780 0.484733 0.054369 -0.032021
C35   C     C_R   0.432791 0.370131 0.917208 -0.131366
C36   C     C_R   0.289122 0.341433 0.965303 -0.092675
Cl1   Cl    Cl    0.967283 0.265417 0.060396 -0.565055
Cl2   Cl    Cl    0.689359 0.122101 0.520927 -0.482191
Cl3   Cl    Cl    0.299627 0.138577 0.598435 -0.541694
Cl4   Cl    Cl    0.378587 0.161685 0.396955 -0.399269
Cl5   Cl    Cl    0.444131 0.714035 0.295950 -0.577681
Cl6   Cl    Cl    0.565926 0.412580 0.216472 -0.511501
Cu1   Cu    Cu3+1 0.140670 0.499980 0.500000 1.061099
Cu2   Cu    Cu3+1 0.859330 0.500020 0.500000 1.016599
H1    H     H_    0.766105 0.879676 0.517593 0.161793
H2    H     H_    0.413891 0.736393 0.458352 0.103843
H3    H     H_    0.664982 0.737802 0.445343 0.123612
H4    H     H_    0.922114 0.378736 0.229512 0.203329
H5    H     H_    0.002774 0.541224 0.951240 0.126805
H6    H     H_    0.083343 0.545515 0.786583 0.127361
H7    H     H_    0.652093 0.445820 0.777385 0.114391
H8    H     H_    0.464410 0.346444 0.846911 0.122639
H9    H     H_    0.303436 0.896455 0.548493 0.148552
H10   H     H_    0.710418 0.683724 0.326445 0.192494
H11   H     H_    0.218391 0.300553 0.929290 0.185338
H12   H     H_    0.815064 0.502074 0.091295 0.159471
H13   H     H_    0.343390 0.913100 0.421944 0.196707
H14   H     H_    0.571512 0.398147 0.621771 0.146186
H15   H     H_    0.311680 0.400838 0.622723 0.162445
H16   H     H_    0.342324 0.533953 0.213454 0.233179
N1    N     N_R   0.648210 0.500930 0.499430 -0.249810
N2    N     N_R   0.352300 0.500890 0.499430 -0.257860
O1    O     O_R   0.118810 0.319640 0.500000 -0.450025
O2    O     O_R   0.881230 0.319680 0.499990 -0.443733
O3    O     O_R   0.055580 0.499970 0.629840 -0.522965
O4    O     O_R   0.818000 0.500010 0.629830 -0.523679
O5    O     O_R   0.118770 0.680320 0.500010 -0.500041
O6    O     O_R   0.881190 0.680360 0.500000 -0.528858
O7    O     O_R   0.182000 0.499990 0.370170 -0.441645
O8    O     O_R   0.944420 0.500030 0.370160 -0.503120

loop_
_geom_bond_atom_site_label_1
_geom_bond_atom_site_label_2
_ccdc_geom_bond_type
C8    C17   S    
C4    C26   S    
Cu1   Cu2   S    
C18   N1    A    
Cu2   O8    S    
C16   O6    A    
C5    Cl1   S    
Cu2   N1    S    
C25   C27   S    
C18   C21   A    
C11   C13   A    
C28   H5    S    
C25   O7    A    
Cu2   O4    S    
C6    C27   A    
Cu1   O3    S    
C10   Cl2   S    
C23   C34   A    
C32   C33   A    
C33   C34   A    
Cu1   O1    S    
C3    C32   A    
C19   H14   S    
C16   O5    A    
C21   C22   S    
Cu2   O2    S    
C20   H15   S    
C34   H12   S    
C15   H13   S    
C12   C23   A    
C21   N2    A    
C4    O3    A    
C6    H4    S    
C35   C36   A    
C19   N1    A    
C18   C24   S    
C33   Cl6   S    
C15   H9    S    
C22   C24   S    
C28   C29   A    
C22   H2    S    
C30   H7    S    
C2    C3    A    
C3    C7    A    
C29   H6    S    
C12   C31   A    
C20   N2    A    
C5    C6    A    
C31   C35   A    
C11   H1    S    
C2    C5    A    
Cu2   O6    S    
C10   C11   A    
Cu1   O7    S    
C24   H10   S    
C22   Cl5   S    
C1    O2    A    
C1    O1    A    
C7    H16   S    
C7    C27   A    
C4    O4    A    
C26   C29   A    
Cu1   O5    S    
C9    C10   A    
C13   C16   S    
C2    C36   A    
C35   H8    S    
C36   H11   S    
C17   Cl3   S    
C14   C15   S    
C8    C14   A    
C25   O8    A    
C13   C14   A    
C12   C30   A    
C15   C17   S    
C24   H3    S    
C31   C32   A    
C23   C28   A    
C1    C9    S    
C19   C20   A    
Cu1   N2    S    
C8    C9    A    
C26   C30   A    
C17   Cl4   S    
