data_mof_unit_13300.cif
_audit_creation_date              2012-12-10T17:50:11-0500
_audit_creation_method            fapswitch 2.2
_symmetry_space_group_name_H-M    P1
_symmetry_Int_Tables_number       1
_space_group_crystal_system       triclinic
_cell_length_a                    10.617346
_cell_length_b                    14.669393
_cell_length_c                    14.736813
_cell_angle_alpha                 64.831726
_cell_angle_beta                  103.217219
_cell_angle_gamma                 101.232236
_cell_volume                      2009.89186418

loop_
_atom_site_label
_atom_site_type_symbol
_atom_type_description
_atom_site_fract_x
_atom_site_fract_y
_atom_site_fract_z
_atom_type_partial_charge
C1    C     C_R   0.479669 0.119642 0.312551 0.807007
C2    C     C_R   0.523527 0.880453 0.687747 0.802339
C3    C     C_R   0.519978 0.288455 0.177848 -0.151285
C4    C     C_R   0.490472 0.714168 0.829392 -0.157033
C5    C     C_R   0.488475 0.362441 0.079583 0.072589
C6    C     C_R   0.526043 0.643660 0.929244 0.081770
C7    C     C_R   0.390402 0.332487 0.011204 0.080384
C8    C     C_R   0.628051 0.675747 0.993228 0.087409
C9    C     C_R   0.538960 0.466832 0.051681 -0.110182
C10   C     C_R   0.473398 0.540175 0.962482 -0.117428
C11   C     C_R   0.357329 0.507026 0.909026 0.456218
C12   C     C_R   0.650997 0.500362 0.109513 0.509219
C13   C     C_R   0.327390 0.405269 0.925880 -0.318310
C14   C     C_R   0.687952 0.604653 0.082398 -0.310345
C15   C     C_R   0.751162 0.292537 0.644235 0.423696
C16   C     C_R   0.338015 0.747950 0.297617 0.408801
C17   C     C_R   0.700682 0.206604 0.623750 -0.126004
C18   C     C_R   0.347835 0.815375 0.343663 -0.117935
C19   C     C_R   0.517440 0.287414 0.514663 0.709652
C20   C     C_R   0.465329 0.705072 0.495329 0.713028
C21   C     C_R   0.575179 0.382555 0.518668 -0.177587
C22   C     C_R   0.475424 0.640358 0.447793 -0.176115
C23   C     C_R   0.259664 0.002419 0.497864 0.894109
C24   C     C_R   0.739915 0.997312 0.501880 0.892554
C25   C     C_R   0.687899 0.381275 0.591297 -0.090797
C26   C     C_R   0.401313 0.659257 0.350415 -0.092410
C27   C     C_R   0.519814 0.476448 0.458581 -0.046107
C28   C     C_R   0.550787 0.555572 0.495327 -0.039101
C29   C     C_R   0.662557 0.551723 0.571752 0.493136
C30   C     C_R   0.442460 0.495850 0.360591 0.483038
C31   C     C_R   0.734226 0.467328 0.612290 -0.286839
C32   C     C_R   0.390732 0.589909 0.306579 -0.281320
C33   C     C_3   0.009617 0.959541 0.435647 0.413745
C34   C     C_3   0.988108 0.037481 0.563642 0.404263
C35   C     C_3   0.940288 0.052676 0.406851 0.429897
C36   C     C_3   0.057665 0.944550 0.592100 0.433462
C37   C     C_3   0.875472 0.994418 0.501714 -0.210160
C38   C     C_3   0.122833 0.003542 0.497253 -0.219001
C39   C     C_3   0.944523 0.899398 0.531100 -0.441932
C40   C     C_3   0.052681 0.098034 0.468082 -0.429930
C41   C     C_R   0.463874 0.187943 0.205036 -0.068698
C42   C     C_R   0.548198 0.814119 0.796086 -0.061995
C43   C     C_R   0.343537 0.230066 0.035554 -0.185847
C44   C     C_R   0.678286 0.778279 0.962532 -0.188926
C45   C     C_R   0.381546 0.157593 0.131867 -0.198801
C46   C     C_R   0.637730 0.847368 0.864598 -0.203548
Cu1   Cu    Cu3+1 0.465750 0.918270 0.475680 0.997180
Cu2   Cu    Cu3+1 0.534250 0.081730 0.524320 0.994372
H1    H     H_    0.303412 0.885130 0.301830 0.182544
H2    H     H_    0.752877 0.140384 0.659745 0.200036
H3    H     H_    0.896887 0.820561 0.555039 0.184087
H4    H     H_    0.095112 0.177773 0.438856 0.174047
H5    H     H_    0.243337 0.382854 0.879096 0.167271
H6    H     H_    0.773154 0.630453 0.125442 0.154014
H7    H     H_    0.425468 0.691445 0.773446 0.213496
H8    H     H_    0.575180 0.309515 0.238113 0.217670
H9    H     H_    0.683149 0.924918 0.840463 0.147330
H10   H     H_    0.337392 0.079997 0.151579 0.144221
H11   H     H_    0.269432 0.207358 0.983012 0.139832
H12   H     H_    0.754492 0.803875 0.012160 0.133262
H13   H     H_    0.824535 0.466062 0.664046 0.193350
H14   H     H_    0.338035 0.609554 0.230287 0.190058
N1    N     N_R   0.585750 0.204560 0.560800 -0.266334
N2    N     N_R   0.414250 0.795440 0.439200 -0.260443
O1    O     O_R   0.454850 0.022100 0.338110 -0.604544
O2    O     O_R   0.545150 0.977900 0.661890 -0.598624
O3    O     O_R   0.512700 0.160150 0.379180 -0.562838
O4    O     O_R   0.487300 0.839850 0.620820 -0.534969
O5    O     O_R   0.287930 0.931000 0.479440 -0.549267
O6    O     O_R   0.712070 0.069000 0.520560 -0.555963
O7    O     O_R   0.345780 0.069050 0.520520 -0.549459
O8    O     O_R   0.654220 0.930950 0.479480 -0.581869
O9    O     O_3   0.866720 0.106303 0.311837 -0.578489
C47   C     C_3   0.949182 0.153569 0.238188 -0.297364
H15   H     H_    0.985005 0.096796 0.221851 0.176097
H16   H     H_    0.032586 0.202386 0.261086 0.166545
H17   H     H_    0.892553 0.203002 0.166537 0.193319
O10   O     O_3   0.131308 0.893977 0.688034 -0.577726
C48   C     C_3   0.047231 0.825227 0.754209 -0.314528
H18   H     H_    0.014769 0.758108 0.735239 0.155186
H19   H     H_    0.961415 0.859706 0.752136 0.161612
H20   H     H_    0.101644 0.799533 0.833016 0.183650
O11   O     O_3   0.487175 0.670355 0.599710 -0.549217
C49   C     C_3   0.378583 0.601836 0.635997 -0.347615
H21   H     H_    0.349369 0.543724 0.602953 0.137878
H22   H     H_    0.294586 0.643683 0.622095 0.202560
H23   H     H_    0.404741 0.558987 0.718677 0.191638
O12   O     O_3   0.387136 0.273895 0.476516 -0.528608
C50   C     C_3   0.314897 0.273718 0.546166 -0.376630
H24   H     H_    0.339725 0.342953 0.562639 0.146476
H25   H     H_    0.328844 0.205628 0.618392 0.162041
H26   H     H_    0.210793 0.273473 0.512767 0.170811
O13   O     O_3   0.866949 0.291482 0.710569 -0.577069
C51   C     C_3   0.839241 0.247492 0.810513 -0.379663
H27   H     H_    0.795802 0.167235 0.831167 0.151972
H28   H     H_    0.774000 0.291974 0.821011 0.172783
H29   H     H_    0.931829 0.247840 0.863773 0.193459
O14   O     O_3   0.263354 0.767595 0.202454 -0.582472
C52   C     C_3   0.337680 0.837504 0.128497 -0.347671
H30   H     H_    0.429168 0.807862 0.133652 0.168962
H31   H     H_    0.360119 0.912186 0.134626 0.158720
H32   H     H_    0.279858 0.849829 0.052102 0.197715
O15   O     O_3   0.708777 0.638161 0.592234 -0.595381
C53   C     C_3   0.783163 0.620898 0.690246 0.077852
H33   H     H_    0.804870 0.695400 0.696086 0.153857
H34   H     H_    0.879591 0.597345 0.697863 0.121090
C54   C     C_3   0.709859 0.550583 0.778766 -0.347019
H35   H     H_    0.628944 0.588482 0.778326 0.249721
H36   H     H_    0.668281 0.477779 0.772177 0.207945
C55   C     C_3   0.800019 0.527384 0.880832 -0.928385
H37   H     H_    0.881460 0.487852 0.884585 0.251696
H38   H     H_    0.744934 0.477170 0.943174 0.280122
H39   H     H_    0.839797 0.598469 0.891955 0.255391
O16   O     O_3   0.435878 0.426949 0.316334 -0.603041
C56   C     C_3   0.332957 0.433631 0.233764 0.092039
H40   H     H_    0.341804 0.375344 0.207333 0.169186
H41   H     H_    0.344317 0.506278 0.166862 0.114797
C57   C     C_3   0.197098 0.408332 0.264376 -0.356203
H42   H     H_    0.185964 0.327988 0.318440 0.236383
H43   H     H_    0.183586 0.455725 0.302576 0.220774
C58   C     C_3   0.090460 0.424077 0.171689 -0.933521
H44   H     H_    0.095191 0.505359 0.119053 0.261673
H45   H     H_    0.993744 0.400305 0.196333 0.303294
H46   H     H_    0.101297 0.378024 0.131062 0.241611
O17   O     O_3   0.030575 0.921328 0.367674 -0.609389
C59   C     C_3   0.912552 0.875747 0.329538 0.073721
H47   H     H_    0.905573 0.905298 0.245723 0.152661
H48   H     H_    0.823174 0.893903 0.343463 0.160447
C60   C     C_3   0.914485 0.760712 0.373850 -0.321915
H49   H     H_    0.001612 0.743115 0.357019 0.231220
H50   H     H_    0.920815 0.729601 0.457675 0.229075
C61   C     C_3   0.792328 0.709348 0.329269 -0.909461
H51   H     H_    0.703908 0.727173 0.343908 0.267814
H52   H     H_    0.794559 0.625904 0.365148 0.255119
H53   H     H_    0.787327 0.735426 0.245995 0.244177
O18   O     O_3   0.962790 0.072849 0.632368 -0.613191
C62   C     C_3   0.079712 0.103651 0.685211 0.088022
H54   H     H_    0.093803 0.187748 0.653436 0.155393
H55   H     H_    0.167519 0.076195 0.680064 0.165822
C63   C     C_3   0.067925 0.064631 0.797281 -0.310782
H56   H     H_    0.988510 0.099024 0.804753 0.230477
H57   H     H_    0.043097 0.981135 0.828459 0.218719
C64   C     C_3   0.194851 0.090172 0.859321 -0.953661
H58   H     H_    0.274628 0.053609 0.855387 0.263298
H59   H     H_    0.182653 0.061488 0.940053 0.250771
H60   H     H_    0.221550 0.173530 0.829934 0.255820
O19   O     O_3   0.265604 0.571532 0.845715 -0.600141
C65   C     C_3   0.179959 0.572629 0.905544 -0.325866
H61   H     H_    0.229646 0.612157 0.956105 0.169798
H62   H     H_    0.097536 0.614162 0.854570 0.181749
H63   H     H_    0.137351 0.494925 0.950938 0.161706
O20   O     O_3   0.736214 0.432064 0.179610 -0.591754
C66   C     C_3   0.773651 0.446692 0.271442 -0.357719
H64   H     H_    0.693729 0.469406 0.292290 0.186784
H65   H     H_    0.861221 0.502923 0.267286 0.178325
H66   H     H_    0.800717 0.373900 0.333777 0.207574

loop_
_geom_bond_atom_site_label_1
_geom_bond_atom_site_label_2
_ccdc_geom_bond_type
C25   C31   A    
C64   H60   S    
C39   H3    S    
C26   C32   A    
O13   C51   S    
C34   C37   S    
O9    C47   S    
C23   O5    A    
O19   C65   S    
C63   C64   S    
C11   O19   S    
C53   H34   S    
O16   C56   S    
C24   O6    A    
C60   H50   S    
C62   H55   S    
C33   C39   S    
C47   H16   S    
O11   C49   S    
C34   C40   S    
C28   C29   A    
C35   C37   S    
C49   H22   S    
C2    O4    A    
C61   H53   S    
C15   C25   A    
C64   H58   S    
C29   O15   S    
C64   H59   S    
C42   C46   A    
C31   H13   S    
C55   H37   S    
Cu1   O5    S    
C58   H46   S    
C55   H38   S    
C1    O3    A    
C57   H42   S    
C35   O9    S    
Cu1   Cu2   S    
C19   N1    A    
C61   H51   S    
C56   H41   S    
C47   H17   S    
C1    O1    A    
C54   H35   S    
C49   H23   S    
C7    C43   A    
C66   H65   S    
C9    C10   A    
C43   H11   S    
C60   C61   S    
O12   C50   S    
C21   C27   A    
C38   C40   S    
C22   C28   A    
C27   C30   A    
C54   H36   S    
C53   H33   S    
C44   C46   A    
C13   H5    S    
C16   C26   A    
C62   C63   S    
C45   H10   S    
C44   H12   S    
C47   H15   S    
C23   O7    A    
C65   H63   S    
C63   H56   S    
C4    C6    A    
C19   O12   S    
Cu2   O6    S    
Cu1   N2    S    
C5    C7    A    
O10   C48   S    
Cu2   N1    S    
C6    C8    A    
C59   C60   S    
C3    C5    A    
C40   H4    S    
C46   H9    S    
C66   H66   S    
C57   C58   S    
C20   N2    A    
C5    C9    A    
C3    H8    S    
C52   H30   S    
C34   O18   S    
C29   C31   A    
C56   C57   S    
C33   O17   S    
C24   C37   S    
C16   C18   A    
C49   H21   S    
C50   H26   S    
C51   H28   S    
C43   C45   A    
C55   H39   S    
C58   H44   S    
C1    C41   S    
C14   H6    S    
C12   C14   A    
C4    H7    S    
O17   C59   S    
C54   C55   S    
C50   H25   S    
C15   O13   S    
C20   C22   A    
Cu2   O7    S    
Cu1   O4    S    
O15   C53   S    
C59   H48   S    
C24   O8    A    
C48   H19   S    
C60   H49   S    
C30   O16   S    
C15   C17   A    
C21   C25   A    
C3    C41   A    
C8    C14   A    
C52   H31   S    
C36   C39   S    
C8    C44   A    
C65   H62   S    
O18   C62   S    
C2    O2    A    
C17   H2    S    
C6    C10   A    
C48   H20   S    
C63   H57   S    
C23   C38   S    
C62   H54   S    
C33   C38   S    
C51   H29   S    
C36   C38   S    
C35   C40   S    
C50   H24   S    
C32   H14   S    
C37   C39   S    
C36   O10   S    
C17   N1    A    
C30   C32   A    
C11   C13   A    
C18   N2    A    
C4    C42   A    
C2    C42   S    
C59   H47   S    
C33   C35   S    
C34   C36   S    
C65   H61   S    
Cu2   O3    S    
C51   H27   S    
C9    C12   A    
C57   H43   S    
Cu1   O8    S    
C58   H45   S    
C10   C11   A    
C48   H18   S    
C16   O14   S    
C7    C13   A    
C52   H32   S    
O20   C66   S    
C61   H52   S    
O14   C52   S    
C22   C26   A    
C20   O11   S    
C12   O20   S    
C27   C28   A    
C41   C45   A    
Cu2   O2    S    
C66   H64   S    
Cu1   O1    S    
C53   C54   S    
C56   H40   S    
C18   H1    S    
C19   C21   A    
