data_mof_unit_11476.cif
_audit_creation_date              2012-12-10T19:11:04-0500
_audit_creation_method            fapswitch 2.2
_symmetry_space_group_name_H-M    P1
_symmetry_Int_Tables_number       1
_space_group_crystal_system       triclinic
_cell_length_a                    11.064946
_cell_length_b                    9.030341
_cell_length_c                    8.164825
_cell_angle_alpha                 89.990955
_cell_angle_beta                  93.345036
_cell_angle_gamma                 90.04142
_cell_volume                      814.441055549

loop_
_atom_site_label
_atom_site_type_symbol
_atom_type_description
_atom_site_fract_x
_atom_site_fract_y
_atom_site_fract_z
_atom_type_partial_charge
C1    C     C_R   0.499882 0.221670 0.500011 0.948908
C2    C     C_R   0.261339 0.487761 0.497733 0.790236
C3    C     C_R   0.739772 0.498310 0.503666 0.789195
C4    C     C_R   0.499995 0.778346 0.499995 0.792573
C5    C     C_1   0.499958 0.065868 0.500042 -0.038614
C6    C     C_3   0.082835 0.411745 0.675818 -0.242547
C7    C     C_3   0.062997 0.372426 0.353379 -0.254739
C8    C     C_3   0.935167 0.394224 0.662079 -0.254827
C9    C     C_3   0.917662 0.407976 0.337102 -0.218166
C10   C     C_1   0.499992 0.934172 0.500009 -0.134357
C11   C     C_3   0.073358 0.635721 0.484219 -0.327004
C12   C     C_3   0.936437 0.642803 0.515254 -0.347608
C13   C     C_3   0.123071 0.472716 0.500324 -0.129244
C14   C     C_3   0.878950 0.483297 0.506656 -0.144615
Cu1   Cu    Cu3+1 0.500000 0.500010 0.669080 1.128295
Cu2   Cu    Cu3+1 0.500000 0.500010 0.330920 1.084495
N1    N     N_1   0.500000 0.499970 0.076820 -0.007087
N2    N     N_1   0.500000 0.499970 0.923180 0.021859
O1    O     O_R   0.500000 0.288400 0.642760 -0.535757
O2    O     O_R   0.500000 0.288400 0.357240 -0.572484
O3    O     O_R   0.317700 0.499990 0.642790 -0.544546
O4    O     O_R   0.317700 0.499990 0.357210 -0.577670
O5    O     O_R   0.682300 0.499990 0.642790 -0.512802
O6    O     O_R   0.682300 0.499990 0.357210 -0.564170
O7    O     O_R   0.500000 0.711620 0.642810 -0.572135
O8    O     O_R   0.500000 0.711620 0.357190 -0.575907
C15   C     C_2   0.131281 0.528657 0.810067 0.928948
O9    O     O_2   0.224711 0.504761 0.892613 -0.540297
O10   O     O_R   0.076177 0.665659 0.833170 -0.804460
H1    H     H_    0.122239 0.731402 0.915959 0.370742
C16   C     C_2   0.122084 0.407893 0.195129 0.989392
O11   O     O_2   0.134801 0.536159 0.154802 -0.542030
O12   O     O_R   0.181066 0.296415 0.110903 -0.693025
H2    H     H_    0.267043 0.323410 0.087012 0.359561
C17   C     C_2   0.897221 0.454592 0.820564 0.988331
O13   O     O_2   0.936284 0.389708 0.942150 -0.540256
O14   O     O_R   0.832855 0.586974 0.832402 -0.721384
H3    H     H_    0.873920 0.664604 0.902810 0.359947
C18   C     C_2   0.877877 0.523573 0.200711 0.937744
O15   O     O_2   0.784851 0.502840 0.114721 -0.521661
O16   O     O_R   0.936952 0.658541 0.181264 -0.762535
H4    H     H_    0.880104 0.741932 0.145097 0.316794
C19   C     C_2   0.143943 0.264731 0.737321 0.929058
O17   O     O_2   0.249345 0.237888 0.711945 -0.553403
O18   O     O_R   0.087027 0.172283 0.846962 -0.660255
H5    H     H_    0.137223 0.082141 0.880559 0.359485
C20   C     C_2   0.102199 0.207468 0.380967 0.894654
O19   O     O_2   0.209270 0.180861 0.413788 -0.601197
O20   O     O_R   0.028283 0.086837 0.336424 -0.696046
H6    H     H_    0.070722 0.987821 0.351660 0.344801
C21   C     C_2   0.879127 0.236024 0.661261 0.925284
O21   O     O_2   0.775752 0.219030 0.704723 -0.561583
O22   O     O_R   0.940753 0.110743 0.612062 -0.736808
H7    H     H_    0.891604 0.016326 0.619223 0.345619
C22   C     C_2   0.844352 0.266404 0.286001 0.950667
O23   O     O_2   0.762639 0.219274 0.365566 -0.617296
O24   O     O_R   0.865508 0.195661 0.137961 -0.638157
H8    H     H_    0.810439 0.107386 0.114722 0.349760
H9    H     H_    0.124485 0.712802 0.567923 0.178194
H10   H     H_    0.094151 0.688906 0.368431 0.250636
H11   H     H_    0.924639 0.701218 0.630149 0.235896
H12   H     H_    0.886898 0.722875 0.434126 0.173601

loop_
_geom_bond_atom_site_label_1
_geom_bond_atom_site_label_2
_ccdc_geom_bond_type
C2    O4    A    
Cu1   N2    S    
C4    O8    A    
C9    C14   S    
C16   O12   S    
O14   H3    S    
C9    C22   S    
C15   O10   S    
C19   O18   S    
O16   H4    S    
Cu2   O6    S    
C3    O5    A    
C16   O11   D    
Cu2   O2    S    
C19   O17   D    
C22   O23   D    
Cu1   O5    S    
O12   H2    S    
C3    O6    A    
C5    C10   T    
C20   O20   S    
C11   H10   S    
O22   H7    S    
C6    C13   S    
Cu1   O1    S    
C12   H11   S    
C11   C13   S    
C8    C21   S    
O24   H8    S    
O10   H1    S    
C3    C14   S    
C17   O13   D    
C2    O3    A    
C1    C5    S    
C17   O14   S    
C12   C14   S    
N1    N2    T    
C6    C19   S    
C22   O24   S    
Cu2   O8    S    
C21   O21   D    
C11   H9    S    
Cu1   O7    S    
C7    C16   S    
C4    C10   S    
Cu1   Cu2   S    
C18   O15   D    
C20   O19   D    
C4    O7    A    
Cu1   O3    S    
C12   H12   S    
C18   O16   S    
O20   H6    S    
C15   O9    D    
C7    C9    S    
C2    C13   S    
C1    O2    A    
C6    C8    S    
C7    C13   S    
C8    C14   S    
O18   H5    S    
C1    O1    A    
C9    C18   S    
C6    C15   S    
C11   C12   S    
Cu2   O4    S    
Cu2   N1    S    
C21   O22   S    
C8    C17   S    
C7    C20   S    
