data_mof_unit_8942.cif
_audit_creation_date              2013-03-05T15:52:29-0500
_audit_creation_method            fapswitch 2.2
_symmetry_space_group_name_H-M    P1
_symmetry_Int_Tables_number       1
_space_group_crystal_system       triclinic
_cell_length_a                    27.753748
_cell_length_b                    10.753183
_cell_length_c                    9.627685
_cell_angle_alpha                 90.889184
_cell_angle_beta                  89.011498
_cell_angle_gamma                 94.2228
_cell_volume                      2864.77797026

loop_
_atom_site_label
_atom_site_type_symbol
_atom_site_description
_atom_site_fract_x
_atom_site_fract_y
_atom_site_fract_z
_atom_type_partial_charge
O1    O     O_R   0.500000 0.319640 0.618810 -0.580633
O2    O     O_R   0.500000 0.319660 0.381240 -0.572570
C1    C     C_R   0.497433 0.262526 0.499344 0.787519
O3    O     O_R   0.430260 0.500010 0.618770 -0.598695
O4    O     O_R   0.430270 0.500030 0.381200 -0.577062
C2    C     C_R   0.407215 0.499901 0.501157 0.791224
Cu1   Cu    Cu3+1 0.500000 0.499990 0.640660 0.947345
Cu2   Cu    Cu3+1 0.500000 0.500010 0.359340 0.940700
O5    O     O_R   0.500000 0.680340 0.618760 -0.545208
O6    O     O_R   0.500000 0.680360 0.381190 -0.594557
O7    O     O_R   0.569730 0.499970 0.618800 -0.568923
O8    O     O_R   0.569740 0.499990 0.381230 -0.598029
C3    C     C_R   0.497457 0.736658 0.500624 0.797483
C4    C     C_R   0.592132 0.493116 0.498663 0.780018
C5    C     C_R   0.174381 0.367860 0.457110 0.617695
O9    O     O_2   0.197990 0.262823 0.461715 -0.488243
N1    N     N_R   0.200388 0.480960 0.463174 -0.451244
C6    C     C_R   0.178505 0.590502 0.459535 0.608276
C7    C     C_R   0.280769 0.464286 0.361654 -0.158793
C8    C     C_R   0.330710 0.471303 0.372079 -0.234443
C9    C     C_R   0.323896 0.516780 0.620356 0.123511
C10   C     C_R   0.273087 0.512562 0.607847 0.362781
C11   C     C_R   0.251846 0.484782 0.478164 0.202304
C12   C     C_R   0.100261 0.474427 0.451344 -0.093229
C13   C     C_R   0.123397 0.361444 0.449175 -0.059722
C14   C     C_R   0.094638 0.246994 0.444877 0.257103
C15   C     C_R   0.128098 0.589472 0.455139 -0.002297
C16   C     C_R   0.353425 0.497209 0.500144 -0.149309
C17   C     C_R   0.644222 0.474443 0.494405 -0.049068
C18   C     C_R   0.970517 0.361149 0.415044 -0.029057
C19   C     C_R   0.975510 0.580016 0.496327 -0.007637
C20   C     C_R   0.947502 0.469176 0.459594 -0.013468
C21   C     C_R   0.941917 0.259340 0.355428 0.302299
C22   C     C_R   0.891642 0.256929 0.365662 -0.207498
C23   C     C_R   0.868697 0.357532 0.423420 -0.056040
C24   C     C_R   0.896434 0.465573 0.468064 -0.094992
C25   C     C_R   0.873003 0.569222 0.520903 -0.084952
C26   C     C_R   0.821809 0.559695 0.529312 0.574080
N2    N     N_R   0.795965 0.454102 0.484026 -0.476580
C27   C     C_R   0.818159 0.354110 0.431833 0.562218
C28   C     C_R   0.718507 0.439262 0.612623 -0.049332
C29   C     C_R   0.668649 0.449555 0.616355 -0.132229
C30   C     C_R   0.669827 0.477849 0.367131 -0.224888
C31   C     C_R   0.719569 0.467543 0.363435 -0.111750
C32   C     C_R   0.744217 0.450970 0.486501 0.335953
O10   O     O_2   0.791276 0.251563 0.388446 -0.529305
C33   C     C_R   0.021144 0.359361 0.433162 0.033287
C34   C     C_R   0.049146 0.472977 0.451118 0.064405
C35   C     C_R   0.026265 0.585408 0.470248 0.079086
C36   C     C_R   0.044306 0.247538 0.439674 -0.184287
H1    H     H_    0.649515 0.441509 0.715181 0.160267
H2    H     H_    0.737347 0.425214 0.708026 0.144453
H3    H     H_    0.870363 0.177757 0.321955 0.220316
H4    H     H_    0.023536 0.158550 0.443628 0.166367
O11   O     O_2   0.205556 0.700082 0.462055 -0.514482
C37   C     C_R   0.105032 0.700913 0.454107 -0.153196
H5    H     H_    0.351573 0.454649 0.278396 0.176840
H6    H     H_    0.264359 0.443874 0.261820 0.174530
H7    H     H_    0.125624 0.790388 0.450562 0.184049
C38   C     C_R   0.952193 0.679468 0.561706 0.178019
C39   C     C_R   0.901171 0.676739 0.567501 0.204669
O12   O     O_2   0.797652 0.654597 0.581818 -0.464235
C40   C     C_R   0.054917 0.698945 0.460365 -0.155156
H8    H     H_    0.651607 0.490703 0.270607 0.174304
H9    H     H_    0.739183 0.475476 0.265386 0.143556
H10   H     H_    0.039088 0.787412 0.453536 0.178390
H11   H     H_    0.549071 0.119393 0.340312 0.162743
C41   C     C_R   0.423594 0.118345 0.664123 -0.183325
H12   H     H_    0.420444 0.217801 0.661385 0.137570
C42   C     C_R   0.390270 0.048444 0.746691 -0.125713
H13   H     H_    0.363487 0.094588 0.807525 0.142890
C43   C     C_R   0.390742 0.919264 0.748846 -0.105169
H14   H     H_    0.364341 0.865028 0.811374 0.166791
C44   C     C_R   0.424476 0.859344 0.668229 -0.183317
H15   H     H_    0.422249 0.758943 0.668931 0.143390
C45   C     C_R   0.459173 0.928294 0.585640 0.090118
C46   C     C_R   0.458895 0.059704 0.583946 0.101814
C47   C     C_R   0.492902 0.127969 0.497857 -0.102115
C48   C     C_R   0.523750 0.067223 0.408389 -0.192702
H16   H     H_    0.548157 0.894049 0.339920 0.146210
C49   C     C_R   0.523537 0.939236 0.408926 -0.207041
C50   C     C_R   0.493087 0.869820 0.500201 -0.103051
H17   H     H_    0.438563 0.374800 0.129053 0.127350
C51   C     C_R   0.572408 0.641279 0.147703 -0.259681
H18   H     H_    0.567990 0.667044 0.253266 0.230002
C52   C     C_R   0.616412 0.679757 0.084800 0.111837
C53   C     C_R   0.620226 0.673485 0.940751 0.202642
C54   C     C_R   0.577817 0.642141 0.863961 0.142440
C55   C     C_R   0.537205 0.569725 0.926533 0.130971
C56   C     C_R   0.536112 0.569553 0.075643 0.124762
N3    N     N_R   0.500460 0.501210 0.147910 -0.172900
C57   C     C_R   0.466256 0.431498 0.074022 -0.042234
H19   H     H_    0.439495 0.372851 0.871929 0.126883
C58   C     C_R   0.466422 0.431165 0.926509 -0.059662
N4    N     N_R   0.500480 0.501290 0.852040 -0.172070
N5    N     N_2   0.343650 0.537481 0.754995 -0.386000
H20   H     H_    0.374964 0.594191 0.762409 0.264891
C59   C     C_3   0.341076 0.428636 0.842006 -0.596677
H21   H     H_    0.360779 0.353391 0.791716 0.192319
H22   H     H_    0.302901 0.393529 0.860115 0.258322
H23   H     H_    0.357238 0.453409 0.944376 0.204238
N6    N     N_2   0.979917 0.775837 0.634620 -0.461718
H24   H     H_    0.967671 0.863798 0.630930 0.258928
C60   C     C_3   0.994538 0.742174 0.771691 -0.621973
H25   H     H_    0.018281 0.819514 0.816835 0.241318
H26   H     H_    0.015110 0.657372 0.766023 0.247897
H27   H     H_    0.962332 0.724716 0.840728 0.226952
N7    N     N_2   0.878274 0.780892 0.624564 -0.383690
H28   H     H_    0.892008 0.815461 0.717364 0.262176
C61   C     C_3   0.870385 0.876964 0.525494 -0.528509
H29   H     H_    0.905372 0.921804 0.487765 0.214538
H30   H     H_    0.849192 0.949267 0.576005 0.239586
H31   H     H_    0.849759 0.836811 0.435448 0.251055
N8    N     N_R   0.243115 0.538116 0.726837 0.132617
O13   O     O_R   0.204090 0.467395 0.753771 -0.358002
O14   O     O_R   0.254683 0.632656 0.808811 -0.314399
N9    N     N_2   0.657092 0.728336 0.163146 -0.374635
H32   H     H_    0.688149 0.681993 0.150735 0.270895
C62   C     C_3   0.650636 0.792813 0.294370 -0.587772
H33   H     H_    0.686152 0.834546 0.330008 0.253659
H34   H     H_    0.635764 0.727520 0.374972 0.199921
H35   H     H_    0.626683 0.869554 0.280954 0.219015
N10   N     N_R   0.662492 0.732693 0.873058 0.130628
O15   O     O_R   0.681830 0.839147 0.918835 -0.311597
O16   O     O_R   0.679768 0.685359 0.759424 -0.371148
N11   N     N_2   0.571292 0.723870 0.753347 -0.352787
H36   H     H_    0.598659 0.728713 0.679485 0.279294
C63   C     C_3   0.558123 0.846682 0.798387 -0.617522
H37   H     H_    0.556223 0.907823 0.707420 0.220609
H38   H     H_    0.585545 0.891982 0.869136 0.239411
H39   H     H_    0.522333 0.839260 0.852356 0.229770
N12   N     N_2   0.115588 0.130126 0.445167 -0.378530
H40   H     H_    0.097303 0.065326 0.508478 0.245186
C64   C     C_3   0.124355 0.079438 0.307737 -0.543426
H41   H     H_    0.143873 0.993476 0.316200 0.227270
H42   H     H_    0.146998 0.147586 0.244517 0.247975
H43   H     H_    0.089560 0.055680 0.254606 0.225843
N13   N     N_R   0.962641 0.166977 0.267812 0.105099
O17   O     O_R   0.943212 0.053118 0.263471 -0.394196
O18   O     O_R   0.996019 0.200754 0.176544 -0.348199

loop_
_geom_bond_atom_site_label_1
_geom_bond_atom_site_label_2
_geom_bond_distance
_ccdc_geom_bond_type
C18   C20   1.423282 A    
C53   C54   1.417539 A    
H19   C58   1.078023 S    
C35   C40   1.410667 A    
C17   C29   1.404872 A    
C28   C29   1.396078 A    
C23   C24   1.411127 A    
C12   C15   1.409762 A    
C63   H37   1.107539 S    
C64   H43   1.111825 S    
C60   H26   1.111110 S    
N8    O13   1.301442 A    
N10   O15   1.301805 A    
C46   C47   1.416501 A    
Cu1   O7    1.943082 S    
H17   C57   1.081716 S    
C36   H4    1.080994 S    
C44   C45   1.412800 A    
C20   C24   1.415978 A    
C24   C25   1.414783 A    
C51   C52   1.391877 A    
N9    C62   1.446454 S    
C26   N2    1.367227 A    
H16   C49   1.080540 S    
O7    C4    1.307321 A    
N10   O16   1.298627 A    
C5    O9    1.348552 S    
N7    H28   1.030678 S    
C5    N1    1.368748 A    
C22   C23   1.398417 A    
C39   N7    1.426078 S    
O5    C3    1.302228 A    
C61   H29   1.109796 S    
C54   N11   1.413664 S    
C2    C16   1.491230 S    
C33   C34   1.408815 A    
N7    C61   1.447770 S    
N12   H40   1.032006 S    
N5    C59   1.446659 S    
C42   H13   1.082611 S    
C28   H2    1.082773 S    
C29   H1    1.083112 S    
N2    C32   1.433923 S    
C40   H10   1.080164 S    
C9    C10   1.414683 A    
C17   C30   1.405470 A    
C31   H9    1.082888 S    
C58   N4    1.365489 A    
C51   C56   1.408570 A    
C19   C35   1.423700 A    
O3    Cu1   1.950616 S    
C38   N6    1.427349 S    
C60   H25   1.110288 S    
C30   H8    1.081155 S    
C49   C50   1.394791 A    
C33   C36   1.407350 A    
C45   C46   1.414015 A    
C62   H34   1.108467 S    
C7    H6    1.083184 S    
C44   H15   1.076971 S    
C12   C34   1.417595 A    
C18   C33   1.420433 A    
Cu1   Cu2   2.708464 S    
H11   C48   1.084255 S    
C12   C13   1.415082 A    
C43   C44   1.393683 A    
C45   C50   1.415053 A    
N2    C27   1.363124 A    
C48   C49   1.375941 A    
C15   C37   1.399833 A    
C41   H12   1.080202 S    
C64   H42   1.111398 S    
C8    C16   1.409086 A    
C13   C14   1.417145 A    
C3    C50   1.445986 S    
C38   C39   1.414349 A    
O1    C1    1.296013 A    
C19   C38   1.423234 A    
C55   N4    1.411808 A    
C7    C11   1.392294 A    
C30   C31   1.392880 A    
C25   C26   1.417995 A    
C25   C39   1.418457 A    
C19   C20   1.417686 A    
C21   N13   1.438821 S    
Cu2   O8    1.950611 S    
N5    H20   1.027122 S    
C57   C58   1.420081 A    
N1    C6    1.365638 A    
C37   C40   1.389758 A    
Cu2   N3    2.035636 S    
N1    C11   1.435421 S    
C51   H18   1.056737 S    
N6    C60   1.446437 S    
C61   H31   1.111215 S    
N13   O18   1.301708 A    
C6    O11   1.349870 S    
O3    C2    1.310003 A    
C34   C35   1.414567 A    
C9    C16   1.428473 A    
O8    C4    1.305204 A    
C59   H22   1.110059 S    
C27   O10   1.349968 S    
C4    C17   1.473933 S    
C63   H39   1.111206 S    
N3    C57   1.367873 A    
C14   N12   1.423075 S    
C31   C32   1.398582 A    
C52   C53   1.390035 A    
C62   H35   1.107558 S    
C41   C46   1.415323 A    
Cu1   O5    1.954015 S    
N11   C63   1.453784 S    
C18   C21   1.423463 A    
O1    Cu1   1.947464 S    
Cu2   O6    1.947464 S    
O2    Cu2   1.954015 S    
C6    C15   1.399574 A    
C43   H14   1.082667 S    
O6    C3    1.294433 A    
C63   H38   1.110618 S    
O4    Cu2   1.943084 S    
N8    O14   1.302007 A    
C62   H33   1.110171 S    
C64   H41   1.110013 S    
C9    N5    1.424086 S    
C59   H23   1.110433 S    
Cu1   N4    2.035199 S    
C37   H7    1.082989 S    
C7    C8    1.387836 A    
C14   C36   1.399117 A    
O2    C1    1.299190 A    
C8    H5    1.083090 S    
N9    H32   1.031218 S    
C53   N10   1.443126 S    
C47   C48   1.393222 A    
C56   N3    1.374131 A    
O4    C2    1.310589 A    
N11   H36   1.030519 S    
C21   C22   1.395456 A    
C23   C27   1.401380 A    
C52   N9    1.430670 S    
N6    H24   1.029681 S    
C61   H30   1.110262 S    
C5    C13   1.414913 A    
N13   O17   1.301345 A    
C10   N8    1.439052 S    
C54   C55   1.449679 A    
C22   H3    1.083529 S    
N12   C64   1.446721 S    
C59   H21   1.109948 S    
C41   C42   1.393951 A    
C28   C32   1.400364 A    
C10   C11   1.408375 A    
C42   C43   1.390602 A    
C55   C56   1.435404 A    
C1    C47   1.442984 S    
C60   H27   1.111130 S    
C26   O12   1.348883 S    
