data_mof_unit_52071.cif
_audit_creation_date              2012-12-11T17:22:17-0500
_audit_creation_method            fapswitch 2.2
_symmetry_space_group_name_H-M    P1
_symmetry_Int_Tables_number       1
_space_group_crystal_system       triclinic
_cell_length_a                    20.812554
_cell_length_b                    7.202216
_cell_length_c                    20.436674
_cell_angle_alpha                 90.791404
_cell_angle_beta                  101.35966
_cell_angle_gamma                 91.158981
_cell_volume                      3002.26529926

loop_
_atom_site_label
_atom_site_type_symbol
_atom_type_description
_atom_site_fract_x
_atom_site_fract_y
_atom_site_fract_z
_atom_type_partial_charge
O1    O     O_R   0.807340 0.614490 0.194100 -0.539378
O2    O     O_R   0.192660 0.385510 0.805900 -0.518897
O3    O     O_R   0.692660 0.114490 0.305900 -0.542915
O4    O     O_R   0.307340 0.885510 0.694100 -0.539114
O5    O     O_R   0.672910 0.282300 0.178070 -0.530464
O6    O     O_R   0.327090 0.717700 0.821930 -0.536787
O7    O     O_R   0.827090 0.782300 0.321930 -0.501185
O8    O     O_R   0.172910 0.217700 0.678070 -0.507351
C1    C     C_R   0.650785 0.451153 0.158817 0.768007
C2    C     C_R   0.349205 0.548988 0.841211 0.749815
C3    C     C_R   0.849555 0.956758 0.340356 0.733999
C4    C     C_R   0.150445 0.043318 0.659759 0.775400
O9    O     O_R   0.805620 0.284620 0.186180 -0.540796
O10   O     O_R   0.194380 0.715380 0.813820 -0.551133
O11   O     O_R   0.694380 0.784620 0.313820 -0.513222
O12   O     O_R   0.305620 0.215380 0.686180 -0.531919
O13   O     O_R   0.826310 0.116750 0.314070 -0.546159
O14   O     O_R   0.173690 0.883250 0.685930 -0.545032
O15   O     O_R   0.673690 0.616750 0.185930 -0.514220
O16   O     O_R   0.326310 0.383250 0.814070 -0.500039
C5    C     C_R   0.825064 0.453016 0.171660 0.736278
C6    C     C_R   0.174486 0.546868 0.827810 0.726006
C7    C     C_R   0.674557 0.952420 0.327907 0.721671
C8    C     C_R   0.325234 0.047533 0.671859 0.747434
O17   O     O_3   0.756630 0.448770 0.291950 -0.358232
O18   O     O_3   0.243370 0.551230 0.708050 -0.369828
O19   O     O_3   0.743370 0.948770 0.208050 -0.358333
O20   O     O_3   0.256630 0.051230 0.791950 -0.350087
V1    V     V_3+5 0.748770 0.172970 0.242220 1.532887
V2    V     V_3+5 0.251230 0.827030 0.757780 1.523908
V3    V     V_3+5 0.751230 0.672970 0.257780 1.605117
V4    V     V_3+5 0.248770 0.327030 0.742220 1.598502
C9    C     C_R   0.476511 0.174943 0.513278 -0.317589
C10   C     C_R   0.514178 0.824763 0.476972 -0.311347
C11   C     C_R   0.017667 0.673259 0.979248 -0.293341
C12   C     C_R   0.979878 0.323404 0.017717 -0.289461
H1    H     H_    0.464869 0.311199 0.529511 0.186873
H2    H     H_    0.530690 0.688976 0.465893 0.190138
H3    H     H_    0.029844 0.808725 0.962707 0.191649
H4    H     H_    0.963819 0.187416 0.030086 0.190318
C13   C     C_R   0.450257 0.016307 0.538499 -0.021921
C14   C     C_R   0.540250 0.983321 0.451557 -0.024210
C15   C     C_R   0.044400 0.514294 0.955694 -0.029556
C16   C     C_R   0.954289 0.482640 0.042554 -0.027645
C17   C     C_R   0.465655 0.840159 0.516084 0.467168
C18   C     C_R   0.517354 0.158772 0.466042 0.469790
C19   C     C_R   0.026013 0.338375 0.975985 0.450969
C20   C     C_R   0.974391 0.658809 0.023917 0.453560
C21   C     C_1   0.406575 0.032995 0.585987 0.040213
C22   C     C_1   0.588671 0.966746 0.409054 0.057187
C23   C     C_1   0.090217 0.530064 0.910424 0.034369
C24   C     C_1   0.907776 0.467334 0.087234 0.039871
C25   C     C_1   0.628289 0.958907 0.372617 -0.148249
C26   C     C_1   0.369674 0.040768 0.625258 -0.163542
C27   C     C_1   0.869797 0.460453 0.125422 -0.168907
C28   C     C_1   0.128721 0.538432 0.872872 -0.175737
C29   C     C_R   0.908364 0.984016 0.395404 -0.172204
C30   C     C_R   0.091422 0.016409 0.605175 -0.170202
C31   C     C_R   0.592679 0.449857 0.101926 -0.163268
C32   C     C_R   0.407226 0.551065 0.898251 -0.183730
C33   C     C_R   0.994992 0.819727 0.562836 -0.042967
C34   C     C_R   0.004552 0.181147 0.438425 -0.044446
C35   C     C_R   0.507281 0.715703 0.953388 -0.065132
C36   C     C_R   0.492215 0.286452 0.047173 -0.072836
C37   C     C_R   0.048033 0.870176 0.612850 -0.210237
C38   C     C_R   0.951060 0.133006 0.388761 -0.205110
C39   C     C_R   0.452564 0.699379 0.901943 -0.187192
C40   C     C_R   0.547156 0.302039 0.098376 -0.216768
C41   C     C_R   0.081000 0.111528 0.543554 0.419393
C42   C     C_R   0.919083 0.886570 0.456638 0.350595
C43   C     C_R   0.416502 0.420704 0.951098 0.374737
C44   C     C_R   0.583182 0.581458 0.049405 0.404555
C45   C     C_R   0.021716 0.073612 0.495587 -0.026581
C46   C     C_R   0.978120 0.925296 0.505046 -0.019956
C47   C     C_R   0.476711 0.426501 0.999703 -0.014838
C48   C     C_R   0.522933 0.575552 0.000816 -0.035756
H5    H     H_    0.941852 0.219526 0.345200 0.144522
H6    H     H_    0.056509 0.787940 0.657630 0.151546
H7    H     H_    0.554548 0.194094 0.135354 0.156894
H8    H     H_    0.445139 0.807297 0.864962 0.165835
H9    H     H_    0.968454 0.694250 0.570246 0.205384
H10   H     H_    0.031222 0.306957 0.431474 0.201389
H11   H     H_    0.536573 0.841694 0.955379 0.205630
H12   H     H_    0.462659 0.160953 0.045282 0.201949
O21   O     O_3   0.537061 0.315672 0.436188 -0.557318
C49   C     C_3   0.487226 0.363570 0.381363 0.071295
H13   H     H_    0.491215 0.515364 0.374254 0.137708
H14   H     H_    0.436613 0.335732 0.389997 0.089925
C50   C     C_3   0.496529 0.266482 0.316688 -0.338690
H15   H     H_    0.548213 0.285635 0.310807 0.207626
H16   H     H_    0.485358 0.115585 0.318974 0.181216
C51   C     C_3   0.451393 0.344495 0.255724 -0.794121
H17   H     H_    0.399329 0.327190 0.260361 0.237862
H18   H     H_    0.458497 0.268909 0.210043 0.241556
H19   H     H_    0.462904 0.494200 0.250494 0.227059
O22   O     O_3   0.435089 0.682186 0.534413 -0.561095
C52   C     C_3   0.383096 0.624881 0.481555 0.035573
H20   H     H_    0.376259 0.472408 0.484510 0.139165
H21   H     H_    0.393641 0.651239 0.430946 0.094516
C53   C     C_3   0.318511 0.714258 0.488746 -0.331290
H22   H     H_    0.309889 0.693117 0.540140 0.223824
H23   H     H_    0.321279 0.865640 0.479818 0.196509
C54   C     C_3   0.260650 0.630294 0.438751 -0.693263
H24   H     H_    0.267300 0.654466 0.386909 0.210121
H25   H     H_    0.214662 0.696322 0.445773 0.269419
H26   H     H_    0.256118 0.478642 0.446402 0.253351
O23   O     O_3   0.947371 0.817468 0.044542 -0.556834
C55   C     C_3   0.980290 0.868778 0.109824 0.046090
H27   H     H_    0.022176 0.963805 0.106286 0.120936
H28   H     H_    0.999891 0.748732 0.141062 0.102933
C56   C     C_3   0.932193 0.968502 0.145071 -0.261476
H29   H     H_    0.906508 0.076301 0.112198 0.210929
H30   H     H_    0.894547 0.867352 0.155244 0.195561
C57   C     C_3   0.966812 0.059726 0.210579 -0.848154
H31   H     H_    0.990217 0.953256 0.245733 0.236822
H32   H     H_    0.930222 0.133614 0.233291 0.222121
H33   H     H_    0.004548 0.162355 0.201591 0.233585
O24   O     O_3   0.048766 0.179714 0.950360 -0.558796
C58   C     C_3   0.109910 0.134170 0.990010 0.029768
H34   H     H_    0.101027 0.043658 0.031112 0.120616
H35   H     H_    0.139808 0.257983 0.012664 0.119604
C59   C     C_3   0.149775 0.030549 0.946263 -0.269842
H36   H     H_    0.118121 0.925636 0.914197 0.193665
H37   H     H_    0.168011 0.130636 0.912867 0.235527
C60   C     C_3   0.207777 0.933155 0.988181 -0.688823
H38   H     H_    0.239186 0.034374 0.022261 0.281871
H39   H     H_    0.237525 0.868280 0.954890 0.247797
H40   H     H_    0.190074 0.822604 0.018111 0.191254
S1    S     S_3+6 0.855564 0.738106 0.476032 0.029918
O25   O     O_2   0.865641 0.543391 0.453345 -0.311105
O26   O     O_2   0.855649 0.738783 0.549620 -0.318184
O27   O     O_3   0.781178 0.806473 0.437846 -0.483642
H41   H     H_    0.776687 0.931826 0.456785 0.326504
S2    S     S_3+6 0.144867 0.255961 0.522833 -0.043019
O28   O     O_2   0.144179 0.246664 0.449150 -0.362234
O29   O     O_2   0.135127 0.453067 0.543266 -0.344060
O30   O     O_3   0.218988 0.187297 0.561689 -0.525058
H42   H     H_    0.250346 0.279560 0.549449 0.345604
S3    S     S_3+6 0.649028 0.734559 0.038921 0.006030
O31   O     O_2   0.648135 0.765758 0.966151 -0.318277
O32   O     O_2   0.642089 0.917382 0.072886 -0.342960
O33   O     O_3   0.721995 0.645343 0.071376 -0.507743
H43   H     H_    0.754693 0.741174 0.064397 0.366495
S4    S     S_3+6 0.349892 0.272265 0.962526 -0.039395
O34   O     O_2   0.354647 0.088591 0.928268 -0.327469
O35   O     O_2   0.351352 0.240600 0.035372 -0.369127
O36   O     O_3   0.277488 0.365830 0.930797 -0.513087
H44   H     H_    0.275753 0.479242 0.958328 0.308969

loop_
_geom_bond_atom_site_label_1
_geom_bond_atom_site_label_2
_ccdc_geom_bond_type
O17   V3    S    
O1    C5    A    
C41   S2    S    
O19   V1    S    
O13   V1    S    
C45   C46   A    
O3    C7    A    
O36   H44   S    
C10   C14   A    
C29   C38   A    
C44   C48   A    
O15   V3    S    
S2    O30   S    
C52   H20   S    
O21   C49   S    
O7    C3    A    
O5    C1    A    
C36   C40   A    
O9    V1    S    
O4    C8    A    
S3    O33   S    
C49   H14   S    
C20   O23   S    
C35   C48   A    
C8    C26   S    
C21   C26   T    
O1    V3    S    
C55   H27   S    
C12   C19   A    
O2    V4    S    
C23   C28   T    
C14   C18   A    
O3    V1    S    
O24   C58   S    
C36   H12   S    
C1    O15   A    
C19   O24   S    
C56   H29   S    
C32   C39   A    
C2    O16   A    
O27   H41   S    
C42   C46   A    
C60   H40   S    
O23   C55   S    
C34   C45   A    
C41   C45   A    
O14   V2    S    
C29   C42   A    
C50   H16   S    
C11   C15   A    
C24   C27   T    
C31   C44   A    
S1    O27   S    
C4    C30   S    
C16   C24   S    
C40   H7    S    
O11   C7    A    
C34   H10   S    
O12   C8    A    
C9    C18   A    
C56   C57   S    
O10   V2    S    
S4    O36   S    
C11   C20   A    
C13   C21   S    
C52   H21   S    
C57   H31   S    
O5    V1    S    
C58   H35   S    
S3    O31   D    
C35   C39   A    
C22   C25   T    
O7    V3    S    
C34   C38   A    
O8    V4    S    
C12   H4    S    
C56   H30   S    
C5    C27   S    
C49   H13   S    
C6    C28   S    
C32   C43   A    
C53   C54   S    
C9    H1    S    
C35   H11   S    
C1    C31   S    
C11   H3    S    
C47   C48   A    
O2    C6    A    
C31   C40   A    
C30   C37   A    
C57   H32   S    
O8    C4    A    
O22   C52   S    
C53   H23   S    
O9    C5    A    
C54   H25   S    
C10   C17   A    
C50   C51   S    
C14   C22   S    
S4    O35   D    
O6    V2    S    
C60   H38   S    
C12   C16   A    
C59   H37   S    
C52   C53   S    
S1    O25   D    
O16   V4    S    
C58   C59   S    
C38   H5    S    
C2    C32   S    
C3    O13   A    
C37   H6    S    
C10   H2    S    
C39   H8    S    
S4    O34   D    
C49   C50   S    
O6    C2    A    
S2    O29   D    
C58   H34   S    
C30   C41   A    
O11   V3    S    
S2    O28   D    
O18   V4    S    
C33   C46   A    
O12   V4    S    
O30   H42   S    
C55   C56   S    
C9    C13   A    
C18   O21   S    
C59   C60   S    
O20   V2    S    
C59   H36   S    
C33   H9    S    
C43   C47   A    
S3    O32   D    
O10   C6    A    
C51   H18   S    
C15   C23   S    
C7    C25   S    
C51   H17   S    
C36   C47   A    
C55   H28   S    
C54   H26   S    
C51   H19   S    
C57   H33   S    
C33   C37   A    
C44   S3    S    
C42   S1    S    
C4    O14   A    
C54   H24   S    
C60   H39   S    
C13   C17   A    
O33   H43   S    
C53   H22   S    
C50   H15   S    
C3    C29   S    
C17   O22   S    
C15   C19   A    
O4    V2    S    
C16   C20   A    
C43   S4    S    
S1    O26   D    
