data_mof_unit_26276.cif
_audit_creation_date              2012-10-26T21:05:25-0400
_audit_creation_method            fapswitch 2.2
_symmetry_space_group_name_H-M    P1
_symmetry_Int_Tables_number       1
_space_group_crystal_system       triclinic
_cell_length_a                    9.618181
_cell_length_b                    10.932276
_cell_length_c                    13.882569
_cell_angle_alpha                 93.947614
_cell_angle_beta                  85.395202
_cell_angle_gamma                 90.528272
_cell_volume                      1451.5588635

loop_
_atom_site_label
_atom_site_type_symbol
_atom_type_description
_atom_site_fract_x
_atom_site_fract_y
_atom_site_fract_z
_atom_type_partial_charge
C1    C     C_R   0.498122 0.738038 0.510102 0.564686
C2    C     C_R   0.608396 0.944561 0.546587 0.064198
C3    C     C_R   0.609926 0.070278 0.536182 -0.119716
C4    C     C_R   0.477865 0.500283 0.682746 0.559402
C5    C     C_R   0.501193 0.126743 0.495053 -0.029258
C6    C     C_R   0.869312 0.350451 0.359876 -0.104376
C7    C     C_R   0.947609 0.291825 0.282260 -0.147599
C8    C     C_R   0.091088 0.299652 0.277396 0.037857
C9    C     C_R   0.155473 0.360534 0.353153 -0.076344
C10   C     C_R   0.080842 0.430572 0.428565 0.138817
C11   C     C_R   0.931755 0.428329 0.430013 0.154444
C12   C     C_1   0.465107 0.499581 0.785778 0.006165
C13   C     C_R   0.919091 0.564551 0.569113 0.019077
C14   C     C_R   0.066789 0.564812 0.569027 0.001330
C15   C     C_R   0.500366 0.261764 0.495607 0.527390
C16   C     C_R   0.522106 0.499345 0.317259 0.542354
C17   C     C_1   0.534658 0.497787 0.214165 0.011816
C18   C     C_2   0.556952 0.495365 0.023744 -0.102276
C19   C     C_2   0.442256 0.498165 0.976053 -0.094730
C20   C     C_1   0.453972 0.498866 0.872519 -0.028191
C21   C     C_1   0.545460 0.496480 0.127344 -0.017837
C22   C     C_R   0.234266 0.883950 0.497713 -0.066704
C23   C     C_R   0.132402 0.934558 0.446773 -0.102133
C24   C     C_R   0.164436 0.036943 0.395450 -0.095196
C25   C     C_R   0.291835 0.096488 0.405397 -0.069337
C26   C     C_R   0.387348 0.054913 0.466502 0.019806
C27   C     C_R   0.370443 0.935648 0.497050 0.011571
C28   C     C_R   0.490932 0.873654 0.522145 0.001654
Cu1   Cu    Cu3+1 0.359340 0.500010 0.500010 0.947810
Cu2   Cu    Cu3+1 0.640660 0.499990 0.499990 0.966522
H1    H     H_    0.339184 0.500607 0.014483 0.160991
H2    H     H_    0.896407 0.237607 0.227121 0.154284
H3    H     H_    0.660017 0.493054 0.985322 0.143410
H4    H     H_    0.089923 0.070622 0.349510 0.148574
H5    H     H_    0.263074 0.346492 0.351987 0.178995
H6    H     H_    0.115686 0.617998 0.625697 0.121246
H7    H     H_    0.202391 0.807727 0.539667 0.149759
H8    H     H_    0.030738 0.891766 0.444303 0.151774
H9    H     H_    0.322238 0.169054 0.360711 0.124553
H10   H     H_    0.696881 0.124168 0.560923 0.169727
H11   H     H_    0.858252 0.615768 0.626716 0.153627
H12   H     H_    0.760822 0.330324 0.362167 0.180465
I1    I     I_    0.211351 0.212190 0.158611 -0.421222
I2    I     I_    0.780219 0.877418 0.613550 -0.428697
N1    N     N_R   0.852210 0.498790 0.499090 -0.240246
N2    N     N_R   0.148080 0.498710 0.499060 -0.245615
O1    O     O_R   0.381190 0.680360 0.500010 -0.519049
O2    O     O_R   0.618760 0.680340 0.500000 -0.457794
O3    O     O_R   0.364420 0.499990 0.637850 -0.496373
O4    O     O_R   0.601990 0.499960 0.637840 -0.491530
O5    O     O_R   0.381240 0.319660 0.500000 -0.505701
O6    O     O_R   0.618810 0.319640 0.499990 -0.527897
O7    O     O_R   0.398010 0.500040 0.362160 -0.512043
O8    O     O_R   0.635580 0.500010 0.362150 -0.512437

loop_
_geom_bond_atom_site_label_1
_geom_bond_atom_site_label_2
_ccdc_geom_bond_type
C10   N2    A    
C1    C28   S    
C23   C24   A    
C1    O2    A    
C6    C7    A    
C15   O5    A    
C4    C12   S    
C18   C21   S    
C9    C10   A    
C4    O3    A    
Cu2   N1    S    
C19   C20   S    
C8    I1    S    
Cu1   N2    S    
C19   H1    S    
C12   C20   T    
C13   H11   S    
C2    C3    A    
Cu2   O4    S    
C7    C8    A    
C14   N2    A    
Cu1   O3    S    
C15   O6    A    
C25   H9    S    
C13   N1    A    
Cu2   O8    S    
C26   C27   A    
Cu1   Cu2   S    
Cu1   O7    S    
Cu1   O1    S    
Cu2   O2    S    
C3    H10   S    
C22   C27   A    
C22   C23   A    
C14   H6    S    
C18   H3    S    
C16   O8    A    
C5    C15   S    
C11   N1    A    
C10   C11   A    
C5    C26   A    
C23   H8    S    
C6    C11   A    
C24   C25   A    
C18   C19   D    
Cu1   O5    S    
C4    O4    A    
C27   C28   A    
C9    H5    S    
Cu2   O6    S    
C16   O7    A    
C1    O1    A    
C2    C28   A    
C7    H2    S    
C25   C26   A    
C13   C14   A    
C22   H7    S    
C6    H12   S    
C24   H4    S    
C16   C17   S    
C2    I2    S    
C8    C9    A    
C3    C5    A    
C17   C21   T    
