data_mof_unit_18224.cif
_audit_creation_date              2012-12-11T16:09:03-0500
_audit_creation_method            fapswitch 2.2
_symmetry_space_group_name_H-M    P1
_symmetry_Int_Tables_number       1
_space_group_crystal_system       triclinic
_cell_length_a                    12.998811
_cell_length_b                    13.346208
_cell_length_c                    27.710634
_cell_angle_alpha                 94.79832
_cell_angle_beta                  89.868294
_cell_angle_gamma                 119.137065
_cell_volume                      4180.24041735

loop_
_atom_site_label
_atom_site_type_symbol
_atom_type_description
_atom_site_fract_x
_atom_site_fract_y
_atom_site_fract_z
_atom_type_partial_charge
C1    C     C_R   0.628227 0.897585 0.426602 0.540505
C2    C     C_R   0.172004 0.748574 0.299006 0.016825
C3    C     C_1   0.884599 0.229586 0.814000 0.206842
C4    C     C_1   0.847278 0.158836 0.712939 0.196779
C5    C     C_3   0.383669 0.456778 0.715766 -0.292746
C6    C     C_1   0.387241 0.181193 0.642642 0.235482
C7    C     C_1   0.059667 0.624458 0.685589 0.235028
C8    C     C_1   0.514337 0.395002 0.208776 0.226423
C9    C     C_1   0.045372 0.608813 0.788039 0.204089
C10   C     C_3   0.312329 0.145241 0.799350 -0.300572
C11   C     C_1   0.854860 0.853895 0.695900 0.227402
C12   C     C_3   0.941577 0.951787 0.819722 -0.257995
C13   C     C_R   0.181019 0.748198 0.197214 0.035609
C14   C     C_3   0.377371 0.660703 0.815303 -0.298327
C15   C     C_1   0.445917 0.784033 0.706066 0.187493
C16   C     C_1   0.541010 0.415862 0.313738 0.228433
C17   C     C_3   0.313808 0.741159 0.087307 -0.283006
C18   C     C_3   0.045858 0.607994 0.404191 -0.289573
C19   C     C_1   0.188476 0.562441 0.195218 0.184663
C20   C     C_R   0.601558 0.222817 0.440877 0.556290
C21   C     C_R   0.181836 0.658082 0.220636 -0.017120
C22   C     C_R   0.169235 0.655767 0.270375 -0.143062
C23   C     C_R   0.177093 0.747068 0.146235 0.132844
C24   C     C_R   0.136321 0.814980 0.125309 -0.000403
C25   C     C_R   0.197801 0.943220 0.357202 0.090050
C26   C     C_R   0.192159 0.942056 0.305823 0.003552
C27   C     C_R   0.181602 0.844230 0.276958 -0.014925
C28   C     C_R   0.596830 0.369605 0.232410 -0.044543
C29   C     C_R   0.202272 0.036954 0.282147 -0.012460
C30   C     C_R   0.184101 0.026724 0.231436 -0.033039
C31   C     C_R   0.169478 0.927229 0.203271 -0.019335
C32   C     C_R   0.268485 0.876129 0.425566 0.537247
C33   C     C_R   0.177578 0.840044 0.225844 0.005772
C34   C     C_R   0.142119 0.910001 0.153181 -0.156464
C35   C     C_R   0.204006 0.853130 0.378184 0.016456
C36   C     C_R   0.756145 0.947101 0.354051 -0.036350
C37   C     C_R   0.756079 0.943589 0.302792 -0.018995
C38   C     C_R   0.742534 0.934807 0.200422 0.011942
C39   C     C_R   0.600121 0.368240 0.283243 -0.047185
C40   C     C_R   0.830539 0.031080 0.227498 -0.105036
C41   C     C_R   0.844420 0.032423 0.277116 -0.021396
C42   C     C_R   0.743538 0.923912 0.149603 0.132378
C43   C     C_R   0.675182 0.813686 0.124623 0.010990
C44   C     C_R   0.627015 0.898792 0.564865 0.536187
C45   C     C_R   0.564201 0.772744 0.349493 -0.133832
C46   C     C_R   0.566826 0.761018 0.298980 0.000395
C47   C     C_R   0.659982 0.849535 0.275589 0.027319
C48   C     C_R   0.475536 0.665534 0.270940 -0.009202
C49   C     C_R   0.480389 0.656656 0.220641 -0.107996
C50   C     C_R   0.668349 0.327555 0.305120 -0.024107
C51   C     C_R   0.571639 0.742719 0.197355 -0.011016
C52   C     C_R   0.657946 0.842570 0.224521 0.026984
C53   C     C_R   0.582921 0.726819 0.147608 -0.166507
C54   C     C_R   0.653793 0.867828 0.376954 -0.027894
C55   C     C_R   0.675211 0.188709 0.658940 -0.133793
C56   C     C_R   0.568805 0.168211 0.581417 0.554711
C57   C     C_R   0.696843 0.222773 0.708795 -0.009789
C58   C     C_R   0.738032 0.297756 0.808593 0.011482
C59   C     C_R   0.799715 0.245005 0.786143 -0.003055
C60   C     C_R   0.780771 0.209475 0.736025 -0.015202
C61   C     C_R   0.669159 0.339115 0.203966 -0.018922
C62   C     C_R   0.754230 0.335024 0.858472 -0.112331
C63   C     C_R   0.692077 0.387730 0.878920 0.004988
C64   C     C_R   0.508370 0.223563 0.659862 -0.027111
C65   C     C_R   0.546916 0.284818 0.705320 0.002049
C66   C     C_R   0.634887 0.275011 0.731452 0.006914
C67   C     C_R   0.499808 0.354634 0.725327 0.137098
C68   C     C_R   0.271202 0.879231 0.563179 0.534631
C69   C     C_R   0.527127 0.396966 0.773953 -0.114709
C70   C     C_R   0.600668 0.372961 0.801453 -0.026141
C71   C     C_R   0.658401 0.315421 0.780415 0.035973
C72   C     C_1   0.683765 0.362093 0.153335 -0.043451
C73   C     C_R   0.617491 0.407809 0.850085 -0.126005
C74   C     C_R   0.583498 0.192216 0.634139 -0.027561
C75   C     C_1   0.217613 0.860703 0.609204 0.034609
C76   C     C_R   0.105579 0.728187 0.718792 -0.005422
C77   C     C_R   0.098218 0.720681 0.769210 -0.042011
C78   C     C_R   0.197223 0.931425 0.783468 0.137667
C79   C     C_R   0.204256 0.937026 0.732851 -0.075615
C80   C     C_1   0.635774 0.274279 0.396011 -0.007723
C81   C     C_R   0.159889 0.837013 0.700819 0.011930
C82   C     C_R   0.143641 0.821962 0.801446 0.003843
C83   C     C_1   0.655105 0.304744 0.355653 -0.045365
C84   C     C_1   0.126164 0.811963 0.852815 -0.049348
C85   C     C_1   0.185373 0.848818 0.650166 0.013134
C86   C     C_1   0.101789 0.796612 0.894488 -0.004888
C87   C     C_1   0.642808 0.864191 0.610630 0.017310
C88   C     C_R   0.753695 0.832277 0.724339 -0.000602
C89   C     C_R   0.758598 0.824931 0.774721 0.104726
C90   C     C_R   0.557725 0.794605 0.780164 0.100866
C91   C     C_R   0.553093 0.801420 0.729733 -0.021457
C92   C     C_R   0.740093 0.296691 0.276647 0.166924
C93   C     C_R   0.651480 0.821990 0.701976 -0.039287
C94   C     C_1   0.698860 0.391572 0.112693 -0.009036
C95   C     C_R   0.660776 0.806834 0.802452 0.061587
C96   C     C_1   0.667677 0.798565 0.853929 0.014146
C97   C     C_1   0.649492 0.841809 0.651368 -0.016366
C98   C     C_1   0.683661 0.790269 0.895889 -0.002563
C99   C     C_R   0.067001 0.773363 0.078685 0.541868
C100  C     C_R   0.716354 0.440949 0.067195 0.546156
C101  C     C_R   0.718335 0.784454 0.079654 0.563212
C102  C     C_R   0.056685 0.766051 0.941349 0.545022
C103  C     C_R   0.711330 0.436309 0.928898 0.544980
C104  C     C_R   0.739265 0.300990 0.226173 0.175839
C105  C     C_R   0.171578 0.748961 0.349529 0.111304
C106  C     C_R   0.716328 0.776366 0.943195 0.541158
C107  C     C_3   0.927696 0.365400 0.318802 -0.266844
C108  C     C_1   0.186339 0.121623 0.208398 0.182946
C109  C     C_1   0.241229 0.148786 0.308441 0.258902
C110  C     C_3   0.093375 0.992741 0.419543 -0.250107
C111  C     C_3   0.937164 0.071718 0.122247 -0.247333
C112  C     C_1   0.855948 0.036337 0.383527 0.224793
C113  C     C_1   0.952365 0.127692 0.298641 0.208496
C114  C     C_1   0.377405 0.573381 0.292538 0.209989
C115  C     C_3   0.928287 0.348365 0.193131 -0.269809
Cr1   Cr    Cr6+3 0.416430 0.829200 0.492370 1.036257
Cr2   Cr    Cr6+3 0.674630 0.087020 0.504170 1.059334
Cr3   Cr    Cr6+3 0.408920 0.083740 0.503490 1.038674
Cr4   Cr    Cr6+3 0.914010 0.832750 0.013970 1.020830
Cr5   Cr    Cr6+3 0.922310 0.578600 0.003000 1.029964
Cr6   Cr    Cr6+3 0.656280 0.574630 0.003870 1.028352
H1    H     H_    0.895384 0.103413 0.210095 0.152996
H2    H     H_    0.161830 0.582160 0.286962 0.156267
H3    H     H_    0.120106 0.967354 0.135975 0.133009
H4    H     H_    0.779197 0.204295 0.322404 0.255533
H5    H     H_    0.945506 0.353244 0.356438 0.160941
H6    H     H_    0.925008 0.447518 0.319315 0.146909
H7    H     H_    0.001737 0.373745 0.296439 0.188052
H8    H     H_    0.270307 0.096335 0.402608 0.292253
H9    H     H_    0.095520 0.068687 0.440114 0.182311
H10   H     H_    0.098931 0.937785 0.446158 0.137922
H11   H     H_    0.008713 0.942817 0.398042 0.160242
H12   H     H_    0.525539 0.644193 0.127684 0.150146
H13   H     H_    0.777949 0.078101 0.122099 0.239168
H14   H     H_    0.980644 0.161809 0.139237 0.138451
H15   H     H_    0.964160 0.074655 0.084154 0.173419
H16   H     H_    0.968028 0.020707 0.141391 0.161229
H17   H     H_    0.765296 0.217592 0.165183 0.235698
H18   H     H_    0.952778 0.429334 0.216502 0.154132
H19   H     H_    0.944145 0.369406 0.154910 0.143860
H20   H     H_    0.985645 0.313325 0.203993 0.182621
H21   H     H_    0.466510 0.408218 0.661452 0.268709
H22   H     H_    0.330279 0.466979 0.687342 0.174670
H23   H     H_    0.412892 0.582096 0.199356 0.181509
H24   H     H_    0.455312 0.543691 0.729508 0.142570
H25   H     H_    0.324509 0.413853 0.745259 0.154625
H26   H     H_    0.267081 0.027087 0.850847 0.257718
H27   H     H_    0.340716 0.213111 0.830193 0.148870
H28   H     H_    0.260495 0.162771 0.772833 0.174003
H29   H     H_    0.391824 0.149146 0.782747 0.155242
H30   H     H_    0.904743 0.800407 0.778173 0.264104
H31   H     H_    0.984067 0.010558 0.790976 0.181282
H32   H     H_    0.010633 0.950183 0.842487 0.176621
H33   H     H_    0.893918 0.985141 0.843477 0.176984
H34   H     H_    0.488762 0.711013 0.367624 0.152346
H35   H     H_    0.420290 0.825147 0.799382 0.264034
H36   H     H_    0.329782 0.614766 0.780288 0.150420
H37   H     H_    0.311873 0.657779 0.841748 0.165149
H38   H     H_    0.422925 0.616374 0.829441 0.146328
H39   H     H_    0.148356 0.601625 0.100475 0.283879
H40   H     H_    0.343245 0.681405 0.070541 0.145921
H41   H     H_    0.388415 0.811031 0.110194 0.156587
H42   H     H_    0.289148 0.778547 0.058065 0.147530
H43   H     H_    0.210164 0.632078 0.380056 0.287931
H44   H     H_    0.023592 0.521811 0.415040 0.148106
H45   H     H_    0.814547 0.324074 0.881496 0.139029
H46   H     H_    0.966251 0.602110 0.386486 0.146767
H47   H     H_    0.071579 0.668692 0.437437 0.162909
H48   H     H_    0.727582 0.157352 0.639298 0.158805
H49   H     H_    0.573353 0.453611 0.865339 0.137156
H50   H     H_    0.490634 0.447861 0.791118 0.105184
H51   H     H_    0.246718 0.019151 0.717707 0.133570
N1    N     N_2   0.818771 0.267089 0.298820 -0.489675
N2    N     N_1   0.952543 0.217701 0.836205 -0.321236
N3    N     N_1   0.900631 0.118866 0.694529 -0.271082
N4    N     N_2   0.433256 0.387169 0.695207 -0.501484
N5    N     N_1   0.290761 0.147588 0.629151 -0.259156
N6    N     N_1   0.022976 0.541632 0.659135 -0.266242
N7    N     N_1   0.447378 0.412755 0.189120 -0.275435
N8    N     N_1   0.003737 0.519767 0.803189 -0.288749
N9    N     N_2   0.240941 0.033425 0.816663 -0.532639
N10   N     N_1   0.935537 0.871346 0.673057 -0.281921
N11   N     N_2   0.862002 0.836580 0.798147 -0.525713
N12   N     N_1   0.188386 0.197567 0.190278 -0.279357
N13   N     N_2   0.460947 0.779419 0.808977 -0.517145
N14   N     N_1   0.360414 0.769395 0.686717 -0.312235
N15   N     N_1   0.496346 0.455191 0.339018 -0.252373
N16   N     N_2   0.214194 0.678813 0.116691 -0.499056
N17   N     N_2   0.140796 0.644667 0.370829 -0.526730
N18   N     N_1   0.193943 0.485911 0.174864 -0.310108
N19   N     N_1   0.272882 0.238101 0.329485 -0.204658
N20   N     N_2   0.190933 0.031233 0.387541 -0.501208
N21   N     N_2   0.809942 0.021414 0.122911 -0.512761
N22   N     N_1   0.933809 0.108323 0.407569 -0.279524
N23   N     N_1   0.039149 0.204672 0.315326 -0.243471
N24   N     N_1   0.298950 0.499262 0.309732 -0.258886
N25   N     N_2   0.806643 0.262835 0.197658 -0.503447
O1    O     O_R   0.296680 0.802170 0.437540 -0.513438
O2    O     O_R   0.637200 0.461990 0.052510 -0.496673
O3    O     O_R   0.664790 0.681920 0.057970 -0.509257
O4    O     O_R   0.525380 0.838530 0.443500 -0.499909
O5    O     O_R   0.815840 0.852920 0.961840 -0.505985
O6    O     O_R   0.012100 0.822630 0.963670 -0.497194
O7    O     O_R   0.037010 0.668460 0.953040 -0.500876
O8    O     O_R   0.813390 0.478970 0.949660 -0.493550
O9    O     O_R   0.632250 0.456930 0.945520 -0.524241
O10   O     O_R   0.660200 0.677230 0.958780 -0.503251
O11   O     O_3   0.830870 0.661990 0.006950 -0.248402
O12   O     O_R   0.662610 0.183990 0.557860 -0.489949
O13   O     O_R   0.702130 0.995190 0.446810 -0.494408
O14   O     O_R   0.661770 0.181390 0.458760 -0.488131
O15   O     O_R   0.499820 0.198480 0.455280 -0.502985
O16   O     O_R   0.311660 0.976250 0.449080 -0.506441
O17   O     O_R   0.297580 0.804960 0.544440 -0.496401
O18   O     O_R   0.526220 0.841130 0.542590 -0.490502
O19   O     O_R   0.703030 0.997990 0.553710 -0.509715
O20   O     O_R   0.500730 0.201280 0.562180 -0.493539
O21   O     O_R   0.312500 0.978850 0.548170 -0.505615
O22   O     O_3   0.499990 0.999990 0.500010 -0.282970
O23   O     O_R   0.820790 0.857990 0.068830 -0.490828
O24   O     O_R   0.016700 0.827330 0.062850 -0.509624
O25   O     O_R   0.041970 0.673520 0.060040 -0.517698
O26   O     O_R   0.817980 0.483660 0.048840 -0.499559

loop_
_geom_bond_atom_site_label_1
_geom_bond_atom_site_label_2
_ccdc_geom_bond_type
C58   C62   A    
H8    N20   S    
C18   N17   S    
C42   N21   S    
C44   O18   A    
C104  N25   S    
C12   H31   S    
C95   C96   S    
C101  O23   A    
C103  O9    A    
C57   C66   A    
C1    C54   S    
C1    O4    A    
C115  H20   S    
Cr1   O4    S    
C101  O3    A    
C90   C95   A    
C45   C46   A    
C27   C33   A    
C68   C75   S    
C13   C33   A    
C115  N25   S    
C26   C27   A    
C29   C30   A    
C114  N24   T    
C14   H37   S    
Cr5   O8    S    
C89   N11   S    
C29   C109  S    
C36   C37   A    
C19   C21   S    
C84   C86   T    
C107  H7    S    
C38   C42   A    
C100  O2    A    
C80   C83   T    
C10   H28   S    
C30   C31   A    
C58   C71   A    
C5    H22   S    
C12   N11   S    
C91   C93   A    
C17   N16   S    
C24   C99   S    
C49   H23   S    
Cr4   O24   S    
C13   C23   A    
Cr3   O15   S    
C69   H50   S    
C20   O14   A    
C6    C64   S    
C102  O7    A    
Cr6   O2    S    
C32   O1    A    
C17   H42   S    
C88   C93   A    
C55   C74   A    
C63   C73   A    
C43   C53   A    
H13   N21   S    
C65   C67   A    
C4    N3    T    
C96   C98   T    
C36   C112  S    
Cr5   O25   S    
C23   C24   A    
C31   C33   A    
C110  H11   S    
C2    C27   A    
C45   H34   S    
C37   C47   A    
C44   C87   S    
C68   O17   A    
C12   H32   S    
C7    C76   S    
C72   C94   T    
C28   C61   A    
H26   N9    S    
C99   O25   A    
H4    N1    S    
C59   C60   A    
C21   C22   A    
C37   C41   A    
C113  N23   T    
Cr4   O5    S    
Cr6   O9    S    
C70   C73   A    
Cr1   O18   S    
C56   O20   A    
C18   H44   S    
C75   C85   T    
C50   C83   S    
C100  O26   A    
C15   N14   T    
C46   C48   A    
C5    H24   S    
C108  N12   T    
C14   H36   S    
C13   C21   A    
C51   C52   A    
Cr5   O11   S    
C32   C35   S    
C105  N17   S    
Cr2   O14   S    
C61   C104  A    
C56   C74   S    
C76   C77   A    
Cr1   O17   S    
C12   H33   S    
C106  O10   A    
C79   C81   A    
C14   N13   S    
C20   C80   S    
C78   C79   A    
C57   C60   A    
H21   N4    S    
C107  N1    S    
C28   C39   A    
C49   C51   A    
C58   C59   A    
H35   N13   S    
C16   N15   T    
C24   C34   A    
C7    N6    T    
C51   C53   A    
C79   H51   S    
C89   C95   A    
Cr2   O19   S    
C68   O21   A    
C102  O6    A    
C43   C101  S    
Cr6   O3    S    
C2    C22   A    
C62   C63   A    
C35   C105  A    
C106  O5    A    
Cr1   O1    S    
C78   C82   A    
C3    N2    T    
C66   C71   A    
C94   C100  S    
C67   N4    S    
C4    C60   S    
Cr3   O20   S    
C31   C34   A    
C53   H12   S    
C110  H10   S    
C9    C77   S    
C115  H19   S    
Cr1   O22   S    
C112  N22   T    
C70   C71   A    
C9    N8    T    
C17   H40   S    
C111  N21   S    
C32   O16   A    
C61   C72   S    
C63   C103  S    
C48   C49   A    
C62   H45   S    
Cr6   O10   S    
C115  H18   S    
C45   C54   A    
Cr5   O26   S    
C82   C84   S    
C55   C57   A    
C6    N5    T    
Cr4   O23   S    
C8    C28   S    
C5    N4    S    
C18   H47   S    
C42   C43   A    
H39   N16   S    
H43   N17   S    
C86   C102  S    
Cr4   O6    S    
C93   C97   S    
C111  H16   S    
C48   C114  S    
C19   N18   T    
C50   C92   A    
C46   C47   A    
C40   C41   A    
C34   H3    S    
C5    H25   S    
C30   C108  S    
C1    O13   A    
C44   O19   A    
Cr2   O22   S    
C103  O8    A    
C107  H5    S    
C41   C113  S    
C99   O24   A    
C25   N20   S    
C76   C81   A    
C18   H46   S    
H30   N11   S    
C47   C52   A    
C90   N13   S    
C92   N1    S    
C40   H1    S    
C2    C105  A    
C98   C106  S    
C14   H38   S    
C78   N9    S    
C64   C65   A    
Cr2   O12   S    
C11   C88   S    
C25   C26   A    
C107  H6    S    
C56   O12   A    
C22   H2    S    
C10   H29   S    
C38   C40   A    
C8    N7    T    
C111  H14   S    
C90   C91   A    
C23   N16   S    
C77   C82   A    
C109  N19   T    
Cr5   O7    S    
C110  N20   S    
C110  H9    S    
Cr3   O16   S    
C20   O15   A    
C11   N10   T    
C69   C70   A    
C111  H15   S    
Cr2   O13   S    
C25   C35   A    
C36   C54   A    
C17   H41   S    
C92   C104  A    
C16   C39   S    
C15   C91   S    
Cr3   O21   S    
H17   N25   S    
C39   C50   A    
C38   C52   A    
C88   C89   A    
C26   C29   A    
C65   C66   A    
Cr3   O22   S    
C10   N9    S    
C64   C74   A    
Cr4   O11   S    
Cr6   O11   S    
C67   C69   A    
C73   H49   S    
C55   H48   S    
C81   C85   S    
C10   H27   S    
C87   C97   T    
C3    C59   S    
