data_mof_unit_58115.cif
_audit_creation_date              2012-12-10T17:48:52-0500
_audit_creation_method            fapswitch 2.2
_symmetry_space_group_name_H-M    P1
_symmetry_Int_Tables_number       1
_space_group_crystal_system       triclinic
_cell_length_a                    10.731803
_cell_length_b                    14.695671
_cell_length_c                    14.706602
_cell_angle_alpha                 65.070807
_cell_angle_beta                  103.452905
_cell_angle_gamma                 102.963628
_cell_volume                      2024.50814509

loop_
_atom_site_label
_atom_site_type_symbol
_atom_type_description
_atom_site_fract_x
_atom_site_fract_y
_atom_site_fract_z
_atom_type_partial_charge
C1    C     C_R   0.477370 0.119683 0.312157 0.791355
C2    C     C_3   0.878436 0.997764 0.502643 0.099949
C3    C     C_3   0.931547 0.905508 0.596356 -0.048345
C4    C     C_3   0.961563 0.096134 0.511734 -0.415356
C5    C     C_R   0.460335 0.186862 0.204158 -0.052862
C6    C     C_R   0.521158 0.812617 0.794907 -0.051567
C7    C     C_R   0.421816 0.214014 0.026656 -0.181027
C8    C     C_R   0.434191 0.148381 0.128410 -0.219859
C9    C     C_R   0.470486 0.291130 0.177131 -0.244516
C10   C     C_R   0.453585 0.358913 0.074991 0.044965
C11   C     C_R   0.432946 0.319432 0.998652 0.146939
C12   C     C_R   0.260131 0.000939 0.499159 0.817587
C13   C     C_R   0.461656 0.464971 0.047488 0.060226
C14   C     C_R   0.465765 0.531764 0.944616 0.032599
C15   C     C_R   0.442839 0.490144 0.870233 -0.260747
C16   C     C_R   0.425067 0.385597 0.896010 0.131995
C17   C     C_R   0.463154 0.506291 0.119220 -0.210152
C18   C     C_R   0.477249 0.610182 0.092196 -0.224572
C19   C     C_R   0.492216 0.676794 0.993391 0.160928
C20   C     C_R   0.488729 0.638389 0.918956 0.105719
C21   C     C_R   0.509542 0.781772 0.967898 -0.199989
C22   C     C_R   0.522273 0.849385 0.868790 -0.188439
C23   C     C_R   0.520579 0.880310 0.687755 0.812320
C24   C     C_R   0.509765 0.708309 0.821374 -0.248262
C25   C     C_R   0.716019 0.285416 0.668182 -0.311802
C26   C     C_R   0.682761 0.203664 0.638607 0.072003
C27   C     C_R   0.518236 0.284912 0.509209 0.006396
C28   C     C_R   0.547922 0.371238 0.535024 -0.023054
C29   C     C_R   0.648706 0.369101 0.617124 0.166366
C30   C     C_R   0.481414 0.458373 0.483483 0.083952
C31   C     C_R   0.516340 0.541294 0.516111 0.081843
C32   C     C_R   0.616451 0.534016 0.599482 -0.248620
C33   C     C_R   0.681260 0.449966 0.648304 -0.182557
C34   C     C_R   0.740219 0.998959 0.501271 0.764579
C35   C     C_R   0.381749 0.465559 0.400200 -0.260987
C36   C     C_R   0.316931 0.549464 0.351184 -0.190743
C37   C     C_R   0.348435 0.630916 0.382113 0.144477
C38   C     C_R   0.449767 0.628523 0.464373 -0.061458
C39   C     C_R   0.280750 0.715491 0.331083 0.044584
C40   C     C_R   0.316630 0.797160 0.361687 0.026573
C41   C     C_R   0.480596 0.714670 0.490359 -0.015693
C42   C     C_3   0.039747 0.998710 0.400025 -0.457784
C43   C     C_3   0.895993 0.996779 0.401080 -0.376526
C44   C     C_3   0.073497 0.902989 0.590099 0.016570
C45   C     C_3   0.104599 0.097018 0.511890 -0.391700
C46   C     C_3   0.122835 0.000156 0.501189 0.112437
Cu1   Cu    Cu3+1 0.465900 0.918260 0.475680 0.925773
Cu2   Cu    Cu3+1 0.534100 0.081740 0.524320 0.929702
H1    H     H_    0.050271 0.930944 0.388254 0.172092
H2    H     H_    0.951885 0.101562 0.583005 0.166400
H3    H     H_    0.930410 0.917849 0.665923 0.135420
H4    H     H_    0.518937 0.683655 0.764220 0.142753
H5    H     H_    0.530872 0.929984 0.849704 0.155241
H6    H     H_    0.477178 0.638521 0.149375 0.155160
H7    H     H_    0.404800 0.181604 0.970239 0.161670
H8    H     H_    0.425682 0.067740 0.147709 0.156172
H9    H     H_    0.496079 0.318163 0.237538 0.150486
H10   H     H_    0.073235 0.066803 0.334842 0.166883
H11   H     H_    0.432710 0.537094 0.790345 0.143025
H12   H     H_    0.448863 0.460206 0.196546 0.139688
H13   H     H_    0.510970 0.811477 0.024289 0.136812
H14   H     H_    0.757668 0.448128 0.711714 0.147207
H15   H     H_    0.557590 0.720423 0.550049 0.125967
H16   H     H_    0.266866 0.862993 0.323273 0.121334
H17   H     H_    0.241483 0.550071 0.287651 0.171435
H18   H     H_    0.793482 0.282987 0.731029 0.135866
H19   H     H_    0.733900 0.138681 0.678467 0.118683
H20   H     H_    0.441299 0.278700 0.449570 0.118422
H21   H     H_    0.860547 0.064317 0.336398 0.163694
H22   H     H_    0.647383 0.592095 0.629621 0.139999
H23   H     H_    0.351139 0.407303 0.370268 0.126602
H24   H     H_    0.837680 0.929314 0.388341 0.172883
H25   H     H_    0.075772 0.836460 0.572811 0.174884
H26   H     H_    0.163089 0.102882 0.582808 0.181808
H27   H     H_    0.138872 0.165845 0.447618 0.168278
H28   H     H_    0.927432 0.164367 0.447226 0.187321
N1    N     N_R   0.585360 0.204570 0.560800 -0.175796
N2    N     N_R   0.414550 0.795430 0.439160 -0.187461
O1    O     O_R   0.455060 0.022100 0.338110 -0.586967
O2    O     O_R   0.512640 0.160150 0.379180 -0.590600
O3    O     O_R   0.288900 0.930980 0.479450 -0.592497
O4    O     O_R   0.346480 0.069030 0.520520 -0.586421
O5    O     O_R   0.487360 0.839850 0.620820 -0.586952
O6    O     O_R   0.544940 0.977900 0.661890 -0.585577
O7    O     O_R   0.653520 0.930970 0.479480 -0.588984
O8    O     O_R   0.711100 0.069020 0.520550 -0.591241
N3    N     N_3   0.159121 0.890592 0.687119 -0.611841
H29   H     H_    0.128885 0.819893 0.741557 0.235503
H30   H     H_    0.150637 0.945454 0.712130 0.213663
N4    N     N_3   0.401432 0.346443 0.817842 -0.600497
H31   H     H_    0.414242 0.404856 0.747354 0.231088
H32   H     H_    0.304149 0.314222 0.811501 0.207810
N5    N     N_3   0.176941 0.718498 0.248372 -0.611621
H33   H     H_    0.145940 0.789724 0.213747 0.208179
H34   H     H_    0.098578 0.666545 0.279192 0.217597
N6    N     N_3   0.853181 0.806774 0.606974 -0.618090
H35   H     H_    0.829426 0.798499 0.537639 0.231918
H36   H     H_    0.767712 0.800525 0.633038 0.219379

loop_
_geom_bond_atom_site_label_1
_geom_bond_atom_site_label_2
_ccdc_geom_bond_type
C24   H4    S    
N3    H29   S    
C16   N4    S    
C43   H24   S    
C19   C20   A    
Cu1   O1    S    
C8    H8    S    
C7    C8    A    
C45   C46   S    
C7    C11   A    
N5    H33   S    
C23   O5    A    
C30   C35   A    
C1    C5    S    
C26   H19   S    
Cu1   O7    S    
C36   C37   A    
C19   C21   A    
C34   O8    A    
C30   C31   A    
C15   C16   A    
C6    C22   A    
C29   C33   A    
C18   C19   A    
C42   C46   S    
C20   C24   A    
C39   N5    S    
C27   H20   S    
Cu1   Cu2   S    
C33   H14   S    
N6    H36   S    
C3    N6    S    
C7    H7    S    
C44   N3    S    
C9    C10   A    
C21   H13   S    
C2    C34   S    
C35   H23   S    
N5    H34   S    
C21   C22   A    
C42   H10   S    
C44   C46   S    
C22   H5    S    
C4    C45   S    
C25   C29   A    
C3    C44   S    
C26   N1    A    
C23   O6    A    
C14   C20   A    
C38   C41   A    
C12   C46   S    
C41   N2    A    
C3    H3    S    
C36   H17   S    
Cu2   O8    S    
C32   H22   S    
C17   H12   S    
C25   C26   A    
Cu2   O6    S    
C4    H2    S    
C45   H26   S    
C34   O7    A    
Cu2   N1    S    
C2    C4    S    
C5    C9    A    
C37   C38   A    
C11   C16   A    
N4    H32   S    
C31   C32   A    
C2    C43   S    
C6    C24   A    
N6    H35   S    
C17   C18   A    
C12   O4    A    
Cu1   O5    S    
N3    H30   S    
C1    O1    A    
C40   N2    A    
C42   C43   S    
C41   H15   S    
C39   C40   A    
C28   C29   A    
C15   H11   S    
C25   H18   S    
C27   N1    A    
C10   C13   A    
C5    C8    A    
C40   H16   S    
C31   C38   A    
C13   C17   A    
C45   H27   S    
C32   C33   A    
Cu2   O2    S    
C28   C30   A    
C2    C3    S    
C37   C39   A    
N4    H31   S    
C6    C23   S    
Cu2   O4    S    
C12   O3    A    
C9    H9    S    
Cu1   O3    S    
C44   H25   S    
C4    H28   S    
C10   C11   A    
C18   H6    S    
C42   H1    S    
C43   H21   S    
C27   C28   A    
C1    O2    A    
C14   C15   A    
C35   C36   A    
Cu1   N2    S    
C13   C14   A    
