data_mof_unit_33067.cif
_audit_creation_date              2012-12-10T17:25:21-0500
_audit_creation_method            fapswitch 2.2
_symmetry_space_group_name_H-M    P1
_symmetry_Int_Tables_number       1
_space_group_crystal_system       triclinic
_cell_length_a                    27.791089
_cell_length_b                    10.853363
_cell_length_c                    9.59508
_cell_angle_alpha                 91.026757
_cell_angle_beta                  90.70025
_cell_angle_gamma                 93.461158
_cell_volume                      2888.13356656

loop_
_atom_site_label
_atom_site_type_symbol
_atom_type_description
_atom_site_fract_x
_atom_site_fract_y
_atom_site_fract_z
_atom_type_partial_charge
C1    C     C_R   0.503584 0.262961 0.498593 0.876485
C2    C     C_R   0.278950 0.494355 0.366286 -0.095880
C3    C     C_R   0.253327 0.494588 0.490841 0.302558
C4    C     C_R   0.101636 0.492247 0.473965 -0.102304
C5    C     C_R   0.124368 0.378912 0.468257 -0.115348
C6    C     C_R   0.095387 0.267503 0.449290 0.380267
C7    C     C_R   0.129959 0.604716 0.481145 -0.012395
C8    C     C_R   0.354420 0.498000 0.496771 -0.043021
C9    C     C_R   0.645552 0.499388 0.502393 -0.072789
C10   C     C_R   0.971844 0.386405 0.501277 0.004662
C11   C     C_R   0.977305 0.609016 0.462899 -0.005288
C12   C     C_R   0.407485 0.499291 0.499153 0.792098
C13   C     C_R   0.949145 0.498592 0.485588 0.089049
C14   C     C_R   0.944318 0.284363 0.551906 -0.222529
C15   C     C_R   0.894571 0.284901 0.564759 0.439909
C16   C     C_R   0.870418 0.391594 0.529957 -0.113313
C17   C     C_R   0.898126 0.500387 0.494331 -0.143548
C18   C     C_R   0.875021 0.610913 0.467911 -0.104495
C19   C     C_R   0.824241 0.608433 0.474641 0.631121
C20   C     C_R   0.819763 0.394788 0.531298 0.654680
C21   C     C_R   0.721032 0.494606 0.378372 -0.135999
C22   C     C_R   0.670881 0.493467 0.376849 -0.155717
C23   C     C_R   0.497094 0.737298 0.502352 0.868326
C24   C     C_R   0.671381 0.505338 0.629423 -0.201767
C25   C     C_R   0.721638 0.506852 0.631214 0.441684
C26   C     C_R   0.746610 0.501333 0.505096 0.246227
C27   C     C_R   0.022080 0.381644 0.475384 -0.038352
C28   C     C_R   0.050613 0.493966 0.473419 0.078084
C29   C     C_R   0.028346 0.608458 0.470931 0.078232
C30   C     C_R   0.044765 0.269780 0.447760 -0.139938
C31   C     C_R   0.107704 0.716785 0.484093 -0.095652
C32   C     C_R   0.953578 0.716737 0.433781 -0.234240
C33   C     C_R   0.903594 0.718794 0.435061 0.438301
C34   C     C_R   0.592505 0.499519 0.500776 0.906686
C35   C     C_R   0.057902 0.718885 0.478726 -0.179982
C36   C     C_R   0.548111 0.125191 0.732886 0.400534
C37   C     C_R   0.547140 0.071707 0.864143 -0.089137
C38   C     C_R   0.521201 0.960181 0.883481 -0.165883
C39   C     C_R   0.500836 0.895092 0.768855 -0.179606
C40   C     C_R   0.505173 0.942895 0.632674 0.049859
C41   C     C_R   0.521083 0.067888 0.619882 -0.024443
C42   C     C_R   0.509003 0.129125 0.495480 -0.172267
C43   C     C_R   0.494850 0.058163 0.374811 0.372305
C44   C     C_R   0.490442 0.931237 0.381687 -0.171530
C45   C     C_R   0.175445 0.382842 0.477153 0.604899
C46   C     C_R   0.495350 0.871889 0.508342 -0.145456
C47   C     C_R   0.579837 0.633745 0.138458 0.358218
C48   C     C_R   0.619850 0.666687 0.057465 -0.154716
C49   C     C_R   0.614298 0.678211 0.916499 -0.241000
C50   C     C_R   0.570861 0.640962 0.854511 -0.151439
C51   C     C_R   0.535523 0.569258 0.925936 0.169603
C52   C     C_R   0.537214 0.568316 0.075930 0.116921
C53   C     C_R   0.465667 0.435350 0.071428 -0.002608
C54   C     C_R   0.465988 0.434381 0.923696 -0.032211
C55   C     C_R   0.180223 0.603011 0.486288 0.557002
C56   C     C_R   0.278230 0.496455 0.619407 0.020507
C57   C     C_R   0.328599 0.498122 0.621909 -0.239261
C58   C     C_R   0.329101 0.496064 0.368991 -0.194652
Cu1   Cu    Cu3+1 0.500000 0.499990 0.640660 0.973198
Cu2   Cu    Cu3+1 0.500000 0.500010 0.359340 1.020052
H1    H     H_    0.347985 0.495769 0.270928 0.161276
H2    H     H_    0.128760 0.804064 0.491228 0.224591
H3    H     H_    0.973211 0.800881 0.404585 0.188283
H4    H     H_    0.652675 0.508505 0.727455 0.207304
H5    H     H_    0.043482 0.808783 0.486295 0.171814
H6    H     H_    0.566964 0.116016 0.951064 0.201739
H7    H     H_    0.259850 0.492954 0.267157 0.156964
H8    H     H_    0.518788 0.921076 0.986390 0.196164
H9    H     H_    0.480446 0.810149 0.790640 0.180444
H10   H     H_    0.482064 0.878583 0.286468 0.195908
H11   H     H_    0.437570 0.382006 0.124499 0.161579
H12   H     H_    0.653059 0.706463 0.104699 0.215908
H13   H     H_    0.642722 0.723451 0.856279 0.203033
H14   H     H_    0.566943 0.669098 0.749806 0.214534
H15   H     H_    0.438164 0.379989 0.866561 0.142005
H16   H     H_    0.652033 0.487478 0.277381 0.179385
H17   H     H_    0.740145 0.489916 0.280920 0.183929
H18   H     H_    0.961481 0.203985 0.588281 0.185403
H19   H     H_    0.347533 0.499460 0.721442 0.158003
N1    N     N_R   0.201694 0.493425 0.485335 -0.483067
N2    N     N_R   0.798247 0.501700 0.504464 -0.473744
N3    N     N_R   0.500460 0.501210 0.147910 -0.192621
N4    N     N_R   0.500480 0.501290 0.852040 -0.190929
O1    O     O_R   0.500000 0.319640 0.618810 -0.561344
O2    O     O_2   0.791715 0.292221 0.556828 -0.407550
O3    O     O_2   0.207614 0.710068 0.492787 -0.503404
O4    O     O_2   0.800499 0.711035 0.452138 -0.417195
O5    O     O_R   0.500000 0.319660 0.381240 -0.524524
O6    O     O_R   0.430260 0.500010 0.618770 -0.596579
O7    O     O_R   0.430270 0.500030 0.381200 -0.595051
O8    O     O_R   0.500000 0.680340 0.618760 -0.633216
O9    O     O_R   0.500000 0.680360 0.381190 -0.534171
O10   O     O_R   0.569730 0.499970 0.618800 -0.574833
O11   O     O_R   0.569740 0.499990 0.381230 -0.560337
O12   O     O_2   0.199141 0.278200 0.479383 -0.441170
C59   C     C_1   0.252488 0.496550 0.749030 0.280626
N5    N     N_1   0.231799 0.496624 0.852967 -0.249002
Cl1   Cl    Cl    0.880181 0.861669 0.393550 -0.415426
Cl2   Cl    Cl    0.752636 0.517023 0.792302 -0.524385
Cl3   Cl    Cl    0.482292 0.119274 0.209604 -0.642295
Cl4   Cl    Cl    0.592328 0.245468 0.708746 -0.591853
Cl5   Cl    Cl    0.585466 0.732337 0.285957 -0.616165
Cl6   Cl    Cl    0.120639 0.122638 0.420137 -0.522073
Cl7   Cl    Cl    0.865848 0.148682 0.630296 -0.395754
C60   C     C_1   0.017105 0.159911 0.397198 0.351595
N6    N     N_1   0.995182 0.072240 0.356457 -0.208494

loop_
_geom_bond_atom_site_label_1
_geom_bond_atom_site_label_2
_ccdc_geom_bond_type
C10   C27   A    
C21   C26   A    
C41   C42   A    
C57   H19   S    
C34   O10   A    
C22   H16   S    
C49   H13   S    
Cu2   O5    S    
C53   C54   A    
C1    O1    A    
C40   C46   A    
C28   C29   A    
C43   Cl3   S    
C12   O7    A    
C36   C37   A    
Cu1   N4    S    
C18   C19   A    
C19   O4    S    
C50   H14   S    
C5    C6    A    
C9    C22   A    
C35   H5    S    
C15   C16   A    
C56   C57   A    
C33   Cl1   S    
Cu1   O6    S    
C20   N2    A    
C8    C58   A    
Cu2   N3    S    
C25   Cl2   S    
C16   C17   A    
C44   H10   S    
C7    C55   A    
C15   Cl7   S    
C8    C12   S    
C58   H1    S    
Cu1   Cu2   S    
C24   H4    S    
C23   C46   S    
C21   C22   A    
C20   O2    S    
C27   C30   A    
C31   H2    S    
C36   C41   A    
C48   H12   S    
C4    C7    A    
C3    N1    S    
C54   N4    A    
C4    C28   A    
C44   C46   A    
C50   C51   A    
Cu2   O9    S    
C7    C31   A    
C51   C52   A    
C12   O6    A    
Cu1   O1    S    
C2    H7    S    
C10   C14   A    
C39   C40   A    
C25   C26   A    
C5    C45   A    
C53   N3    A    
C43   C44   A    
C37   C38   A    
C8    C57   A    
C3    C56   A    
C47   C48   A    
C16   C20   A    
C59   N5    T    
C17   C18   A    
C39   H9    S    
Cu1   O8    S    
C6    Cl6   S    
C24   C25   A    
C52   N3    A    
C40   C41   A    
C6    C30   A    
C38   H8    S    
C11   C32   A    
C26   N2    S    
C30   C60   S    
C9    C34   S    
C31   C35   A    
C42   C43   A    
C53   H11   S    
C51   N4    A    
C56   C59   S    
C48   C49   A    
C23   O9    A    
C34   O11   A    
C32   H3    S    
C4    C5    A    
C10   C13   A    
C2    C58   A    
C9    C24   A    
C47   C52   A    
Cu2   O7    S    
C60   N6    T    
C29   C35   A    
C13   C17   A    
C32   C33   A    
C55   O3    S    
C2    C3    A    
C55   N1    A    
C11   C13   A    
C38   C39   A    
C1    O5    A    
C45   N1    A    
C23   O8    A    
C14   H18   S    
C37   H6    S    
C18   C33   A    
C54   H15   S    
C1    C42   S    
C11   C29   A    
C49   C50   A    
C21   H17   S    
C27   C28   A    
C47   Cl5   S    
C14   C15   A    
C36   Cl4   S    
Cu1   O10   S    
C19   N2    A    
Cu2   O11   S    
C45   O12   S    
