data_mof_unit_35304.cif
_audit_creation_date              2013-03-05T15:57:47-0500
_audit_creation_method            fapswitch 2.2
_symmetry_space_group_name_H-M    P1
_symmetry_Int_Tables_number       1
_space_group_crystal_system       triclinic
_cell_length_a                    15.62355
_cell_length_b                    14.81558
_cell_length_c                    15.13315
_cell_angle_alpha                 109.396122
_cell_angle_beta                  121.73244
_cell_angle_gamma                 59.663613
_cell_volume                      2560.77012861

loop_
_atom_site_label
_atom_site_type_symbol
_atom_site_description
_atom_site_fract_x
_atom_site_fract_y
_atom_site_fract_z
_atom_type_partial_charge
C1    C     C_R   0.802022 0.938311 0.773603 -0.052015
C2    C     C_R   0.241790 0.008651 0.209246 -0.013881
H1    H     H_    0.828733 0.881376 0.822415 0.081602
H2    H     H_    0.227450 0.043143 0.147619 0.095388
N1    N     N_R   0.705410 0.966550 0.689210 -0.049137
N2    N     N_R   0.294590 0.033450 0.310790 -0.048871
C3    C     C_R   0.197904 0.271968 0.437063 0.326602
C4    C     C_R   0.752168 0.710176 0.506255 0.346279
N3    N     N_R   0.294590 0.188320 0.465660 -0.090907
N4    N     N_R   0.705410 0.811680 0.534340 -0.100665
C5    C     C_R   0.594783 0.230360 0.558073 -0.118870
C6    C     C_R   0.405932 0.781334 0.507187 -0.143914
H3    H     H_    0.680942 0.214772 0.598971 0.122128
H4    H     H_    0.319722 0.803954 0.480703 0.121322
N5    N     N_R   0.556610 0.157790 0.497330 -0.053596
N6    N     N_R   0.443390 0.842210 0.502670 -0.049220
C7    C     C_R   0.409875 0.043225 0.732442 -0.114907
C8    C     C_R   0.591307 0.012899 0.284695 -0.072662
H5    H     H_    0.325537 0.078344 0.721371 0.105457
H6    H     H_    0.676281 0.992302 0.305473 0.142764
N7    N     N_R   0.443390 0.997080 0.657540 -0.052258
N8    N     N_R   0.556610 0.002920 0.342460 -0.051250
C9    C     C_R   0.411316 0.304683 0.487508 -0.086778
C10   C     C_R   0.587209 0.714102 0.592533 -0.012452
H7    H     H_    0.327452 0.360371 0.466718 0.151839
H8    H     H_    0.666989 0.680842 0.656182 0.143536
N9    N     N_R   0.443390 0.203250 0.451380 -0.038877
N10   N     N_R   0.556610 0.796750 0.548620 -0.059236
C11   C     C_R   0.595121 0.974984 0.805342 -0.089953
C12   C     C_R   0.407509 0.082426 0.207240 -0.056682
H9    H     H_    0.680921 0.950787 0.860509 0.105209
H10   H     H_    0.322360 0.126700 0.156552 0.107271
N11   N     N_R   0.556610 0.951620 0.703500 -0.062659
N12   N     N_R   0.443390 0.048380 0.296500 -0.044614
C13   C     C_R   0.199839 0.182276 0.531107 -0.140622
C14   C     C_R   0.749320 0.801005 0.412138 -0.102731
H11   H     H_    0.172354 0.150936 0.561794 0.120099
H12   H     H_    0.758920 0.822235 0.357263 0.204254
N13   N     N_R   0.294590 0.131500 0.522480 -0.062459
N14   N     N_R   0.705410 0.868500 0.477520 -0.081187
C15   C     C_R   0.803922 0.029256 0.684245 -0.162193
C16   C     C_R   0.240685 0.916292 0.299534 -0.128602
H13   H     H_    0.835044 0.055008 0.652400 0.105441
H14   H     H_    0.226092 0.863518 0.319549 0.110479
N15   N     N_R   0.705410 0.023370 0.632390 -0.043541
N16   N     N_R   0.294590 0.976630 0.367610 -0.054486
C17   C     C_R   0.866235 0.975926 0.772516 0.152474
C18   C     C_R   0.209370 0.932913 0.199690 0.121104
C19   C     C_R   0.136584 0.270110 0.477043 -0.008313
C20   C     C_R   0.779312 0.700330 0.428407 -0.042129
C21   C     C_R   0.504965 0.323888 0.557522 0.039400
C22   C     C_R   0.495133 0.700244 0.566406 0.032716
C23   C     C_R   0.505028 0.029452 0.825582 0.188439
C24   C     C_R   0.499260 0.060115 0.198944 0.091233
Ni1   Ni    Ni4+2 0.629830 0.882720 0.617850 0.245809
Ni2   Ni    Ni4+2 0.370170 0.117280 0.382150 0.299854
Ni3   Ni    Ni4+2 0.629830 0.013030 0.487540 0.222242
Ni4   Ni    Ni4+2 0.370170 0.986970 0.512460 0.216850
H15   H     H_    0.781271 0.543513 0.876257 0.133649
H16   H     H_    0.278952 0.508306 0.266418 0.124931
C25   C     C_R   0.624132 0.665829 0.866806 -0.088944
C26   C     C_R   0.427486 0.388629 0.254299 -0.119830
H17   H     H_    0.583672 0.613099 0.834892 0.137720
H18   H     H_    0.480935 0.421834 0.322218 0.141163
C27   C     C_R   0.565262 0.772853 0.886237 -0.110352
C28   C     C_R   0.472531 0.296414 0.198732 -0.117304
H19   H     H_    0.480434 0.801588 0.871579 0.115769
H20   H     H_    0.561092 0.258182 0.224852 0.133520
C29   C     C_R   0.618282 0.841209 0.932868 0.161356
C30   C     C_R   0.403656 0.252430 0.111237 0.200740
C31   C     C_R   0.731324 0.800574 0.960055 -0.084938
C32   C     C_R   0.289364 0.301495 0.080376 -0.097713
H21   H     H_    0.775454 0.850668 0.002176 0.126566
H22   H     H_    0.235492 0.267118 0.014618 0.119540
C33   C     C_R   0.789010 0.694067 0.936928 -0.062609
C34   C     C_R   0.244581 0.393878 0.135941 -0.041542
C35   C     C_R   0.735664 0.626541 0.891115 -0.089817
C36   C     C_R   0.313604 0.437298 0.222961 -0.069690
C37   C     C_R   0.553631 0.956982 0.063396 0.350689
C38   C     C_R   0.457950 0.140962 0.967501 0.329946
C39   C     C_R   0.500873 0.056512 0.105237 -0.151862
C40   C     C_R   0.511761 0.040626 0.925880 -0.157810
C41   C     C_R   0.452836 0.148997 0.059326 -0.180452
C42   C     C_R   0.562538 0.948651 0.974946 -0.176972
H23   H     H_    0.938142 0.538183 0.522539 0.168762
H24   H     H_    0.960173 0.399315 0.324125 0.184938
C43   C     C_2   0.028954 0.346200 0.470688 -0.186446
C44   C     C_2   0.834971 0.601625 0.378908 -0.074026
C45   C     C_2   0.961137 0.415739 0.399941 -0.027489
C46   C     C_2   0.909668 0.522651 0.438527 -0.042646
H25   H     H_    0.812560 0.592693 0.296290 0.182630
H26   H     H_    0.018937 0.360971 0.540852 0.169611
C47   C     C_2   0.982677 0.952799 0.843969 -0.169624
C48   C     C_2   0.147474 0.884186 0.101978 -0.150978
H27   H     H_    0.008338 0.944973 0.505514 0.157717
H28   H     H_    0.995285 0.181172 0.922905 0.154750
C49   C     C_R   0.180893 0.881066 0.608929 -0.176845
C50   C     C_R   0.911799 0.272742 0.795265 -0.168816
C51   C     C_R   0.282618 0.794919 0.629042 -0.127275
C52   C     C_R   0.810824 0.339218 0.725197 -0.152204
H29   H     H_    0.355138 0.799386 0.698149 0.111701
H30   H     H_    0.809731 0.369682 0.668562 0.156609
C53   C     C_R   0.290991 0.704128 0.559129 0.068168
C54   C     C_R   0.712274 0.365649 0.728105 0.034106
C55   C     C_R   0.195420 0.700198 0.469408 -0.288953
C56   C     C_R   0.716770 0.322763 0.801402 -0.267653
H31   H     H_    0.201821 0.630200 0.415301 0.176718
H32   H     H_    0.641102 0.343284 0.804199 0.183863
C57   C     C_R   0.092481 0.786692 0.448582 0.408705
C58   C     C_R   0.818281 0.255331 0.871995 0.417121
C59   C     C_R   0.086315 0.877215 0.519338 -0.219512
C60   C     C_R   0.915835 0.231702 0.868786 -0.233783
C61   C     C_R   0.405445 0.515758 0.582622 -0.228754
C62   C     C_R   0.598555 0.533999 0.646890 -0.236665
C63   C     C_R   0.506275 0.427164 0.607621 0.061994
C64   C     C_R   0.496103 0.617454 0.600901 0.045919
C65   C     C_R   0.604746 0.441417 0.658292 0.056875
C66   C     C_R   0.399108 0.612546 0.581194 0.049452
C67   C     C_2   0.039747 0.885096 0.915991 -0.071868
C68   C     C_2   0.133929 0.895965 0.010918 -0.067098
H33   H     H_    0.102384 0.848587 0.103916 0.136509
H34   H     H_    0.017791 0.000819 0.845367 0.123858
H35   H     H_    0.875930 0.663278 0.957703 0.129514
H36   H     H_    0.156511 0.431179 0.112223 0.144757
N17   N     N_R   0.594027 0.863403 0.108656 0.228814
O1    O     O_R   0.525697 0.839842 0.111281 -0.414593
O2    O     O_R   0.698671 0.801257 0.146033 -0.360735
N18   N     N_R   0.412598 0.233386 0.918336 0.238621
O3    O     O_R   0.311361 0.301682 0.896736 -0.409678
O4    O     O_R   0.470902 0.247105 0.890585 -0.347297
N19   N     N_R   0.156991 0.332559 0.355804 0.207184
O5    O     O_R   0.182218 0.286400 0.277952 -0.435584
O6    O     O_R   0.118686 0.434505 0.371510 -0.423456
N20   N     N_R   0.777776 0.627195 0.555970 0.199301
O7    O     O_R   0.748504 0.550435 0.500609 -0.427014
O8    O     O_R   0.843351 0.621119 0.655269 -0.462301
H37   H     H_    0.175365 0.951120 0.662873 0.130300
H38   H     H_    0.987350 0.253222 0.792846 0.145186
N21   N     N_R   0.995047 0.782763 0.356124 0.234440
O9    O     O_R   0.901473 0.865218 0.332969 -0.428672
O10   O     O_R   0.999096 0.696986 0.293783 -0.363296
N22   N     N_R   0.822281 0.211579 0.946691 0.234896
O11   O     O_R   0.916532 0.153504 0.015453 -0.407076
O12   O     O_R   0.731696 0.228655 0.946165 -0.359576
H39   H     H_    0.330294 0.509042 0.559053 0.153212
H40   H     H_    0.674896 0.539868 0.674626 0.147835
H41   H     H_    0.178063 0.931920 0.008058 0.123954
H42   H     H_    0.006093 0.836276 0.915462 0.126018

loop_
_geom_bond_atom_site_label_1
_geom_bond_atom_site_label_2
_geom_bond_distance
_ccdc_geom_bond_type
C10   C22   1.383490 A    
C51   C53   1.403007 A    
N12   Ni2   1.879357 S    
C4    C20   1.392072 A    
N5    Ni3   1.849113 S    
C19   C43   1.447318 S    
C28   H20   1.083158 S    
C52   C54   1.405975 A    
C32   C34   1.398941 A    
N18   O3    1.300594 A    
H15   C35   1.082058 S    
N8    Ni3   1.861207 S    
C54   C56   1.407137 A    
H28   C60   1.082206 S    
N15   Ni3   1.860044 S    
C16   C18   1.389540 A    
C18   C48   1.461119 S    
C50   H38   1.082520 S    
C1    N1    1.331782 A    
C13   H11   1.081689 S    
C34   C36   1.398287 A    
C54   C65   1.488046 S    
C57   C59   1.406650 A    
C37   C42   1.376630 A    
C49   C59   1.396891 A    
C5    H3    1.073753 S    
N7    N11   1.371085 A    
C11   N11   1.318220 A    
N3    N13   1.388814 A    
C8    H6    1.081605 S    
N4    N14   1.388817 A    
C16   N16   1.343834 A    
C61   H39   1.081482 S    
C29   C31   1.406051 A    
C26   H18   1.082624 S    
C49   C51   1.395585 A    
C5    N5    1.330896 A    
C58   N22   1.439894 S    
C9    C21   1.390648 A    
C6    N6    1.332964 A    
C25   C35   1.397808 A    
C63   C65   1.406815 A    
C13   C19   1.377309 A    
C9    N9    1.337977 A    
C12   H10   1.080606 S    
C3    N19   1.432937 S    
N6    N10   1.371085 A    
C20   C44   1.459071 S    
C55   H31   1.083189 S    
C37   N17   1.442825 S    
C43   H26   1.088892 S    
N16   Ni4   1.860044 S    
C15   H13   1.081780 S    
C2    N2    1.332139 A    
C16   H14   1.079377 S    
C38   C41   1.396009 A    
C49   H37   1.082562 S    
C39   C41   1.403026 A    
N10   Ni1   1.831225 S    
N1    Ni1   1.830940 S    
C58   C60   1.405511 A    
C22   C64   1.474923 S    
C17   C47   1.464028 S    
N8    N12   1.371084 A    
H23   C46   1.086915 S    
C50   C60   1.395842 A    
C26   C28   1.398982 A    
C4    N20   1.427728 S    
C34   H36   1.082426 S    
C14   N14   1.346643 A    
C47   H34   1.086122 S    
C62   H40   1.077142 S    
C38   C40   1.409253 A    
N2    Ni2   1.830941 S    
C37   C39   1.398507 A    
C12   N12   1.328040 A    
N9    Ni2   1.831224 S    
C1    C17   1.380418 A    
N20   O8    1.301195 A    
C38   N18   1.439686 S    
C2    C18   1.387761 A    
C67   H42   1.084246 S    
N13   Ni4   1.849598 S    
N1    N15   1.388815 A    
C7    N7    1.332077 A    
C23   C40   1.423024 S    
C1    H1    1.079502 S    
C2    H2    1.078063 S    
N4    Ni1   1.878849 S    
C12   C24   1.364904 A    
N5    N9    1.371085 A    
C44   H25   1.086149 S    
C67   C68   1.454977 S    
H16   C36   1.082595 S    
C25   H17   1.081783 S    
C15   C17   1.382933 A    
N11   Ni1   1.879357 S    
C53   C55   1.406819 A    
N3    Ni2   1.878853 S    
N6    Ni4   1.849114 S    
C30   C41   1.483847 S    
C33   C35   1.396424 A    
C3    C19   1.390009 A    
C32   H22   1.083253 S    
C51   H29   1.079425 S    
C44   C46   1.326351 D    
C40   C42   1.413486 A    
C43   C45   1.329275 D    
N17   O1    1.301288 A    
C33   H35   1.082344 S    
C53   C66   1.482638 S    
N19   O5    1.300805 A    
C7    C23   1.385222 A    
C14   C20   1.386188 A    
C56   H32   1.082986 S    
C31   H21   1.082994 S    
C52   H30   1.082731 S    
C56   C58   1.407391 A    
C3    N3    1.335097 A    
C55   C57   1.407561 A    
N14   Ni3   1.849598 S    
N2    N16   1.388816 A    
C8    N8    1.321060 A    
C26   C36   1.397889 A    
C10   N10   1.335840 A    
C10   H8    1.075230 S    
N19   O6    1.301548 A    
H24   C45   1.084392 S    
N18   O4    1.301372 A    
C62   C64   1.405620 A    
N21   O9    1.301462 A    
N20   O7    1.301497 A    
C6    C22   1.377947 A    
C48   C68   1.337843 D    
C27   H19   1.081863 S    
C57   N21   1.439905 S    
C14   H12   1.078524 S    
C6    H4    1.073558 S    
N7    Ni4   1.861207 S    
C11   H9    1.076378 S    
C29   C42   1.485790 S    
H27   C59   1.082453 S    
C31   C33   1.397539 A    
N21   O10   1.301666 A    
C28   C30   1.404365 A    
C11   C23   1.366824 A    
C27   C29   1.402726 A    
C13   N13   1.336976 A    
C7    H5    1.080800 S    
C64   C66   1.418524 A    
N22   O12   1.301856 A    
C9    H7    1.069220 S    
C50   C52   1.395571 A    
C21   C63   1.470111 S    
C62   C65   1.387863 A    
C5    C21   1.385819 A    
C8    C24   1.365690 A    
C61   C66   1.393374 A    
C48   H33   1.087488 S    
C25   C27   1.395793 A    
C68   H41   1.085754 S    
C4    N4    1.329731 A    
N17   O2    1.301217 A    
C15   N15   1.346073 A    
N22   O11   1.301722 A    
C30   C32   1.404330 A    
C47   C67   1.337718 D    
C45   C46   1.445505 S    
C24   C39   1.414365 S    
C61   C63   1.400644 A    
