data_mof_unit_19784.cif
_audit_creation_date              2013-03-05T16:00:37-0500
_audit_creation_method            fapswitch 2.2
_symmetry_space_group_name_H-M    P1
_symmetry_Int_Tables_number       1
_space_group_crystal_system       triclinic
_cell_length_a                    8.259722
_cell_length_b                    12.7343
_cell_length_c                    19.117837
_cell_angle_alpha                 100.450026
_cell_angle_beta                  91.97435
_cell_angle_gamma                 98.61979
_cell_volume                      1951.22625341

loop_
_atom_site_label
_atom_site_type_symbol
_atom_site_description
_atom_site_fract_x
_atom_site_fract_y
_atom_site_fract_z
_atom_type_partial_charge
P1    P     P_3+3 0.042930 0.392230 0.337410 0.465076
O1    O     O_2   0.875110 0.423180 0.326290 -0.364195
O2    O     O_3   0.123410 0.433040 0.414950 -0.408120
O3    O     O_3   0.661010 0.625070 0.369680 -0.364450
O4    O     O_2   0.720737 0.534829 0.242799 -0.408193
O5    O     O_3   0.009784 0.250797 0.317690 -0.561956
O6    O     O_3   0.709547 0.743704 0.257809 -0.510812
H1    H     H_    0.753983 0.858946 0.350028 0.144420
C1    C     C_3   0.637004 0.920793 0.266268 -1.002428
H2    H     H_    0.632741 0.996833 0.305853 0.249518
H3    H     H_    0.741402 0.934789 0.232076 0.278280
P2    P     P_3+3 0.672230 0.754900 0.555730 0.411477
P3    P     P_3+3 0.126772 0.822599 0.406903 0.450066
O7    O     O_2   0.847800 0.768730 0.534310 -0.393274
O8    O     O_3   0.082250 0.684470 0.405440 -0.377346
O9    O     O_2   0.012196 0.877942 0.458509 -0.378960
O10   O     O_3   0.687114 0.814203 0.647332 -0.611964
O11   O     O_3   0.068367 0.849752 0.324074 -0.520019
C2    C     C_3   0.138515 0.782962 0.270940 0.464108
H4    H     H_    0.083968 0.696773 0.267988 0.124871
H5    H     H_    0.273676 0.793618 0.281204 0.010507
C3    C     C_3   0.103682 0.814102 0.199372 -0.940917
H6    H     H_    0.969438 0.796825 0.184630 0.287694
H7    H     H_    0.148423 0.901895 0.202333 0.258711
C4    C     C_3   0.256792 0.786575 0.621461 0.366481
H8    H     H_    0.388458 0.782230 0.624147 0.126709
H9    H     H_    0.199137 0.740384 0.569522 0.125804
C5    C     C_3   0.234715 0.903649 0.624806 -0.926921
H10   H     H_    0.257881 0.949265 0.680181 0.284215
H11   H     H_    0.319299 0.942410 0.589685 0.227686
H12   H     H_    0.107789 0.907125 0.606163 0.263044
Ba1   Ba    Ba6+2 0.853180 0.547790 0.465300 1.531961
C6    C     C_3   0.952849 0.208096 0.376361 0.367653
H13   H     H_    0.819449 0.209020 0.377507 0.091119
H14   H     H_    0.016538 0.252047 0.427850 0.135556
C7    C     C_3   0.983955 0.091863 0.366558 -0.867385
H15   H     H_    0.939518 0.047621 0.312362 0.264992
H16   H     H_    0.920895 0.050133 0.406486 0.230919
H17   H     H_    0.117685 0.091109 0.372534 0.268461
C8    C     C_3   0.828298 0.798343 0.685215 0.616617
H18   H     H_    0.921733 0.770392 0.650201 0.117551
C9    C     C_3   0.903763 0.904570 0.734316 -0.963231
H19   H     H_    0.947136 0.968522 0.702511 0.250459
H20   H     H_    0.011049 0.891735 0.768360 0.245888
H21   H     H_    0.809741 0.932011 0.771069 0.280756
P4    P     P_3+3 0.146790 0.607860 0.662600 0.455131
O12   O     O_2   0.314600 0.576860 0.673750 -0.371608
O13   O     O_3   0.066300 0.567050 0.585060 -0.409049
O14   O     O_3   0.528700 0.375020 0.630330 -0.356954
O15   O     O_3   0.188659 0.749322 0.680428 -0.571909
P5    P     P_3+3 0.068890 0.175267 0.591639 0.448530
O16   O     O_3   0.611760 0.365720 0.463870 -0.398631
O17   O     O_3   0.107460 0.315620 0.594570 -0.386943
O18   O     O_2   0.193219 0.124277 0.543313 -0.364126
O19   O     O_3   0.124211 0.146792 0.674608 -0.521277
Ba2   Ba    Ba6+2 0.336650 0.452300 0.534710 1.551112
P6    P     P_3+3 0.623379 0.621025 0.279771 0.446697
C10   C     C_3   0.658540 0.828965 0.305421 0.471305
H22   H     H_    0.539987 0.805547 0.328709 0.011758
H23   H     H_    0.519857 0.899874 0.231732 0.255735
O20   O     O_3   0.577950 0.634370 0.536140 -0.400370
C11   C     C_3   0.461714 0.281140 0.318142 0.446540
H24   H     H_    0.347599 0.307588 0.338796 0.095988
H25   H     H_    0.565390 0.349375 0.331498 0.131070
C12   C     C_3   0.439388 0.249391 0.237353 -0.995434
H26   H     H_    0.333953 0.182776 0.221820 0.271761
H27   H     H_    0.415438 0.320000 0.214256 0.218933
H28   H     H_    0.552656 0.222380 0.215587 0.268600
P7    P     P_3+3 0.519957 0.229286 0.439300 0.409475
O21   O     O_2   0.341900 0.231310 0.465740 -0.357579
O22   O     O_3   0.494411 0.191591 0.346366 -0.585273
H29   H     H_    0.167667 0.766824 0.157236 0.219905
C13   C     C_3   0.069245 0.221667 0.728463 0.474897
H30   H     H_    0.126670 0.306458 0.726418 0.136709
H31   H     H_    0.932750 0.213560 0.722880 0.003270
C14   C     C_3   0.118336 0.198206 0.801158 -0.922614
H32   H     H_    0.245110 0.241359 0.819665 0.276721
H33   H     H_    0.030756 0.226401 0.841298 0.211693
H34   H     H_    0.115462 0.109422 0.798083 0.269919
P8    P     P_3+3 0.573195 0.357790 0.717148 0.440794
C15   C     C_3   0.560109 0.153938 0.674121 0.469828
H35   H     H_    0.680108 0.188660 0.656181 0.006400
O23   O     O_2   0.464868 0.427226 0.764413 -0.415260
O24   O     O_3   0.495837 0.226304 0.725925 -0.492524
H36   H     H_    0.470389 0.128094 0.626859 0.134070
H37   H     H_    0.711665 0.073812 0.734995 0.246374
C16   C     C_3   0.588178 0.056560 0.706045 -0.985439
H38   H     H_    0.581427 0.984535 0.662639 0.260931
H39   H     H_    0.494333 0.039406 0.744373 0.288827
C17   C     C_R   0.056291 0.560883 0.800715 -0.280632
H40   H     H_    0.137433 0.635065 0.823162 0.162735
C18   C     C_R   0.024243 0.535803 0.725652 0.289422
C19   C     C_R   0.861754 0.403720 0.811422 -0.333620
H41   H     H_    0.806629 0.341196 0.838456 0.147316
C20   C     C_R   0.795462 0.403374 0.743226 0.202972
C21   C     C_R   0.332222 0.589804 0.190904 -0.364390
H42   H     H_    0.386131 0.656416 0.167128 0.158435
C22   C     C_R   0.404020 0.579715 0.256103 0.237160
C23   C     C_R   0.129459 0.436125 0.198597 -0.318565
H43   H     H_    0.038910 0.366657 0.176034 0.145053
C24   C     C_R   0.169350 0.455142 0.273176 0.321289
C25   C     C_R   0.988565 0.487771 0.845041 0.139895
C26   C     C_R   0.893718 0.454164 0.697610 -0.423984
H44   H     H_    0.858575 0.437626 0.641190 0.164070
C27   C     C_R   0.202255 0.509998 0.155526 0.113350
C28   C     C_R   0.314081 0.521745 0.299938 -0.440088
H45   H     H_    0.361162 0.523995 0.353811 0.159583
C29   C     C_R   0.757614 0.443755 0.956816 -0.163164
C30   C     C_R   0.649390 0.395991 0.000133 -0.122323
C31   C     C_R   0.697534 0.401630 0.070682 -0.106548
C32   C     C_R   0.855342 0.450434 0.095757 -0.145096
C33   C     C_R   0.979377 0.474436 0.049419 0.059933
C34   C     C_R   0.928234 0.471315 0.976098 0.098262
C35   C     C_R   0.147671 0.505098 0.075732 -0.055694
C36   C     C_R   0.262389 0.535104 0.024954 0.103870
C37   C     C_R   0.211378 0.532462 0.951616 0.037089
C38   C     C_R   0.043455 0.498513 0.925078 -0.025376
C39   C     C_R   0.432104 0.566222 0.044525 -0.253812
C40   C     C_R   0.537638 0.619820 0.002975 -0.215587
C41   C     C_R   0.488408 0.619805 0.933041 0.403761
C42   C     C_R   0.334677 0.563145 0.906217 -0.284477
H46   H     H_    0.702137 0.461719 0.909518 0.157778
H47   H     H_    0.522421 0.367117 0.981460 0.141145
H48   H     H_    0.608503 0.377278 0.107334 0.137975
H49   H     H_    0.876093 0.471434 0.151952 0.185731
H50   H     H_    0.489672 0.547314 0.090802 0.175195
H51   H     H_    0.662146 0.652960 0.023663 0.184528
H52   H     H_    0.317547 0.543167 0.849525 0.198442
C43   C     C_R   0.770226 0.179784 0.521487 -0.515436
C44   C     C_R   0.430598 0.805211 0.467928 -0.516371
C45   C     C_R   0.405528 0.980622 0.441739 -0.209686
C46   C     C_R   0.340156 0.873037 0.439265 0.211620
C47   C     C_R   0.581504 0.846105 0.505429 0.302284
C48   C     C_R   0.647111 0.958235 0.511450 -0.075579
C49   C     C_R   0.558126 0.025330 0.477766 -0.076419
C50   C     C_R   0.621054 0.136564 0.483522 0.240953
C51   C     C_R   0.861066 0.115055 0.552743 0.209349
C52   C     C_R   0.797785 0.005986 0.549905 -0.188713
H53   H     H_    0.332919 0.029054 0.417282 0.181423
H54   H     H_    0.868062 0.960197 0.577672 0.174347
H55   H     H_    0.818908 0.264416 0.524772 0.168521
H56   H     H_    0.377690 0.721484 0.465413 0.175271
N1    N     N_2   0.780570 0.719620 0.729223 -0.109332
H57   H     H_    0.874621 0.704287 0.760931 0.154923
C53   C     C_3   0.674800 0.624794 0.691823 -0.568527
H58   H     H_    0.629925 0.574959 0.730221 0.264110
H59   H     H_    0.737389 0.582508 0.647706 0.174248
H60   H     H_    0.568863 0.648788 0.666977 0.285916
N2    N     N_R   0.594681 0.673669 0.888184 0.227817
O25   O     O_R   0.748435 0.708843 0.908039 -0.429181
O26   O     O_R   0.532213 0.701608 0.832226 -0.401582

loop_
_geom_bond_atom_site_label_1
_geom_bond_atom_site_label_2
_geom_bond_distance
_ccdc_geom_bond_type
C16   H38   1.112807 S    
C19   H41   1.079444 S    
Ba1   O13   2.791072 S    
C13   H30   1.120466 S    
C2    H4    1.112818 S    
C14   H34   1.118048 S    
P8    O24   1.740276 S    
C15   O24   1.401324 S    
C33   C35   1.433749 A    
C35   C36   1.440694 A    
C49   C50   1.416862 A    
C37   C38   1.435367 A    
C4    C5    1.519111 S    
C41   N2    1.435679 S    
P3    O11   1.748081 S    
C5    H10   1.106545 S    
C2    H5    1.110446 S    
C14   H33   1.121264 S    
Ba1   O20   2.939306 S    
C1    C10   1.526441 S    
C45   C49   1.403569 A    
N2    O26   1.300898 A    
C43   H55   1.082095 S    
C28   H45   1.082205 S    
C36   C37   1.443046 A    
N1    C53   1.435325 S    
C6    C7    1.519425 S    
O11   C2    1.402084 S    
C29   C30   1.387644 A    
O1    Ba1   2.864098 S    
P1    O1    1.515183 D    
P7    O22   1.751000 S    
C39   C40   1.386612 A    
Ba1   O16   2.817806 S    
C11   H25   1.111278 S    
O16   P7    1.760298 S    
C18   C26   1.397330 A    
C31   H48   1.083476 S    
C4    O15   1.403656 S    
C17   C25   1.435477 A    
C32   C33   1.412344 A    
C12   H27   1.110808 S    
C21   C22   1.397090 A    
P2    O10   1.769130 S    
C32   H49   1.060394 S    
C1    H2    1.121522 S    
O6    C10   1.410641 S    
H1    C10   1.113482 S    
C12   H28   1.112704 S    
C8    C9    1.531620 S    
C19   C20   1.395572 A    
P2    Ba1   3.447338 S    
Ba1   Ba2   4.567489 S    
C13   H31   1.116213 S    
P7    O21   1.573845 D    
C9    H20   1.130428 S    
P8    O23   1.549825 D    
C3    H29   1.113309 S    
C33   C34   1.441824 A    
C53   H59   1.103318 S    
C20   C26   1.390500 A    
C53   H58   1.093726 S    
C7    H17   1.108193 S    
C23   C27   1.438788 A    
P4    O13   1.568002 S    
C37   C42   1.416961 A    
P1    O5    1.749183 S    
C27   C35   1.563304 S    
O8    Ba1   2.793481 S    
C2    C3    1.521831 S    
C14   H32   1.120297 S    
C42   H52   1.066794 S    
O7    Ba1   2.890232 S    
H37   C16   1.115681 S    
C30   H47   1.083268 S    
C4    H8    1.097101 S    
P1    Ba1   3.434558 S    
C15   H35   1.114721 S    
C31   C32   1.386031 A    
P1    O2    1.567977 S    
C9    H21   1.117498 S    
C29   C34   1.419204 A    
O3    P6    1.726278 S    
C44   C46   1.393276 A    
C11   H24   1.109203 S    
C43   C50   1.392133 A    
O2    Ba2   2.791655 S    
C17   C18   1.419037 A    
C23   H43   1.081211 S    
C36   C39   1.416201 A    
C21   H42   1.079356 S    
C6    H13   1.104600 S    
O3    Ba1   2.783981 S    
P8    C20   1.862371 S    
C1    H3    1.112503 S    
C15   C16   1.521476 S    
C25   C38   1.556682 S    
C52   H54   1.072950 S    
C34   C38   1.436921 A    
P5    C51   1.843409 S    
C8    H18   1.096306 S    
C23   C24   1.420751 A    
P2    O7    1.514001 D    
P7    C50   1.848042 S    
Ba2   O21   2.890398 S    
P2    C47   1.857858 S    
P3    O8    1.737114 S    
C47   C48   1.431749 A    
C13   C14   1.527485 S    
C3    H7    1.114188 S    
C8    N1    1.441735 S    
C44   C47   1.395437 A    
C9    H19   1.126247 S    
C45   C46   1.386989 A    
P1    C24   1.853284 S    
C53   H60   1.090314 S    
C41   C42   1.393627 A    
C21   C27   1.419954 A    
O17   Ba2   2.794076 S    
C24   C28   1.380833 A    
O13   Ba2   2.943496 S    
P4    O12   1.515464 D    
C7    H15   1.107129 S    
P4    C18   1.877892 S    
C11   C12   1.521348 S    
C3    H6    1.113624 S    
C5    H12   1.105426 S    
C29   H46   1.076043 S    
C19   C25   1.422608 A    
C48   C52   1.416706 A    
C40   C41   1.383956 A    
O14   P8    1.747093 S    
C48   C49   1.428340 A    
C4    H9    1.109211 S    
O14   Ba2   2.783384 S    
C51   C52   1.399405 A    
P4    O15   1.750230 S    
C22   C28   1.379153 A    
O5    C6    1.398526 S    
O4    P6    1.540585 D    
C1    H23   1.121638 S    
P5    O18   1.541874 D    
C7    H16   1.108119 S    
C10   H22   1.112057 S    
C30   C31   1.379024 A    
P2    O20   1.586063 S    
C17   H40   1.081234 S    
P6    C22   1.826391 S    
C5    H11   1.109833 S    
C6    H14   1.111373 S    
P3    C46   1.828398 S    
O6    P6    1.746034 S    
C11   O22   1.403549 S    
P5    O19   1.750612 S    
O2    Ba1   2.942660 S    
C44   H56   1.081839 S    
C45   H53   1.074628 S    
O19   C13   1.407539 S    
O16   Ba2   2.938470 S    
C43   C51   1.390187 A    
C12   H26   1.111552 S    
P3    O9    1.541970 D    
P4    Ba2   3.435071 S    
C26   H44   1.081543 S    
C16   H39   1.109915 S    
Ba2   O20   2.817226 S    
C39   H50   1.072104 S    
P5    O17   1.758073 S    
N2    O25   1.300813 A    
O10   C8    1.410907 S    
C15   H36   1.116587 S    
N1    H57   1.031992 S    
O12   Ba2   2.864497 S    
C40   H51   1.083268 S    
