data_mof_unit_21879.cif
_audit_creation_date              2012-12-11T14:21:02-0500
_audit_creation_method            fapswitch 2.2
_symmetry_space_group_name_H-M    P1
_symmetry_Int_Tables_number       1
_space_group_crystal_system       triclinic
_cell_length_a                    21.985035
_cell_length_b                    7.198959
_cell_length_c                    14.84224
_cell_angle_alpha                 89.999962
_cell_angle_beta                  106.729563
_cell_angle_gamma                 89.999807
_cell_volume                      2249.64531989

loop_
_atom_site_label
_atom_site_type_symbol
_atom_type_description
_atom_site_fract_x
_atom_site_fract_y
_atom_site_fract_z
_atom_type_partial_charge
O1    O     O_R   0.584770 0.505770 0.002090 -0.542424
O2    O     O_R   0.415230 0.005770 0.997910 -0.542422
O3    O     O_R   0.467060 0.173340 0.861950 -0.535660
O4    O     O_R   0.532940 0.673340 0.138050 -0.535664
C1    C     C_R   0.455213 0.344314 0.825615 0.690517
C2    C     C_R   0.544786 0.844314 0.174385 0.690503
O5    O     O_R   0.587510 0.175890 0.993210 -0.510244
O6    O     O_R   0.412490 0.675890 0.006790 -0.510238
O7    O     O_R   0.536540 0.008150 0.130100 -0.542065
O8    O     O_R   0.463460 0.508150 0.869900 -0.542064
C3    C     C_R   0.612726 0.344641 0.996389 0.796950
C4    C     C_R   0.387274 0.844642 0.003611 0.796943
O9    O     O_3   0.483140 0.340040 0.044760 -0.371384
O10   O     O_3   0.516860 0.840040 0.955240 -0.371388
V1    V     V_3+5 0.503130 0.064190 0.991700 1.534747
V2    V     V_3+5 0.496870 0.564190 0.008300 1.534748
C5    C     C_2   0.220692 0.731142 0.030089 0.361073
C6    C     C_2   0.779303 0.231155 0.969884 0.361073
C7    C     C_2   0.183226 0.885436 0.009745 -0.391587
C8    C     C_2   0.816773 0.385441 0.990257 -0.391590
H1    H     H_    0.205508 0.018657 0.005969 0.153680
H2    H     H_    0.794496 0.518662 0.994058 0.153675
C9    C     C_2   0.291103 0.738250 0.046829 0.375168
C10   C     C_2   0.708892 0.238272 0.953152 0.375178
C11   C     C_2   0.319112 0.854540 0.999216 -0.392253
C12   C     C_2   0.680887 0.354537 0.000785 -0.392256
H3    H     H_    0.290708 0.956867 0.951611 0.116533
H4    H     H_    0.709295 0.456837 0.048404 0.116512
C13   C     C_R   0.926756 0.889789 0.722243 -0.130980
C14   C     C_R   0.073244 0.389788 0.277757 -0.130979
C15   C     C_R   0.573324 0.853010 0.276434 -0.067796
C16   C     C_R   0.426675 0.353011 0.723566 -0.067803
C17   C     C_R   0.933825 0.971043 0.567206 -0.176478
C18   C     C_R   0.066173 0.471033 0.432793 -0.176478
C19   C     C_R   0.961695 0.960083 0.663955 0.337312
C20   C     C_R   0.038305 0.460090 0.336044 0.337314
C21   C     C_R   0.863256 0.830825 0.682237 0.028269
C22   C     C_R   0.136742 0.330811 0.317765 0.028262
C23   C     C_R   0.831400 0.879978 0.587107 0.077394
C24   C     C_R   0.168597 0.379961 0.412895 0.077395
C25   C     C_R   0.869082 0.933538 0.528505 0.029286
C26   C     C_R   0.130915 0.433518 0.471496 0.029282
C27   C     C_R   0.763876 0.882216 0.548200 0.062585
C28   C     C_R   0.236120 0.382203 0.451803 0.062590
C29   C     C_R   0.736284 0.891612 0.448847 0.060680
C30   C     C_R   0.263713 0.391598 0.551156 0.060677
C31   C     C_R   0.776900 0.924796 0.392047 -0.164747
C32   C     C_R   0.223096 0.424765 0.607956 -0.164744
C33   C     C_R   0.841655 0.952204 0.431776 -0.111291
C34   C     C_R   0.158341 0.452171 0.568225 -0.111284
C35   C     C_R   0.723458 0.896360 0.606054 -0.185295
C36   C     C_R   0.276537 0.396353 0.393948 -0.185308
C37   C     C_R   0.658024 0.890067 0.569071 -0.179494
C38   C     C_R   0.341970 0.390061 0.430930 -0.179500
C39   C     C_R   0.629561 0.874650 0.471833 0.116358
C40   C     C_R   0.370435 0.374642 0.528168 0.116362
C41   C     C_R   0.668821 0.877241 0.410329 0.053497
C42   C     C_R   0.331176 0.377238 0.589673 0.053498
C43   C     C_R   0.562509 0.860648 0.434681 0.158319
C44   C     C_R   0.437487 0.360637 0.565317 0.158316
C45   C     C_R   0.535220 0.850309 0.337007 -0.152218
C46   C     C_R   0.464778 0.350293 0.662991 -0.152217
C47   C     C_R   0.639193 0.864526 0.312493 -0.217699
C48   C     C_R   0.360806 0.364538 0.687509 -0.217696
H5    H     H_    0.870546 0.988569 0.386244 0.160660
H6    H     H_    0.129449 0.488526 0.613758 0.160668
H7    H     H_    0.666005 0.858811 0.262118 0.111836
H8    H     H_    0.333996 0.358840 0.737886 0.111837
H9    H     H_    0.484111 0.840229 0.307741 0.135230
H10   H     H_    0.515886 0.340205 0.692256 0.135247
H11   H     H_    0.630136 0.898116 0.618243 0.173695
H12   H     H_    0.369858 0.398114 0.381757 0.173687
H13   H     H_    0.962259 0.016763 0.522593 0.170817
H14   H     H_    0.037738 0.516752 0.477406 0.170818
H15   H     H_    0.759656 0.943296 0.316976 0.134587
H16   H     H_    0.240339 0.443251 0.683026 0.134596
H17   H     H_    0.741894 0.919550 0.680881 0.188567
H18   H     H_    0.258098 0.419545 0.319122 0.188545
O11   O     O_R   0.036450 0.233070 0.130130 -0.549758
O12   O     O_R   0.963550 0.733070 0.869870 -0.549756
O13   O     O_R   0.912470 0.560570 0.006790 -0.527355
O14   O     O_R   0.087530 0.060570 0.993210 -0.527350
C49   C     C_R   0.886234 0.391572 0.999499 0.811438
C50   C     C_R   0.113766 0.891570 0.000500 0.811443
O15   O     O_R   0.032920 0.562940 0.138050 -0.528169
O16   O     O_R   0.967080 0.062940 0.861950 -0.528165
O17   O     O_R   0.084790 0.730500 0.002090 -0.508701
O18   O     O_R   0.915210 0.230500 0.997910 -0.508701
C51   C     C_R   0.045379 0.394523 0.174877 0.787436
C52   C     C_R   0.954621 0.894523 0.825123 0.787458
O19   O     O_3   0.016820 0.396170 0.955260 -0.369596
O20   O     O_3   0.983180 0.896170 0.044740 -0.369605
V3    V     V_3+5 0.996880 0.672090 0.008300 1.605309
V4    V     V_3+5 0.003120 0.172090 0.991700 1.605318
Cl1   Cl    Cl    0.189948 0.508090 0.042673 -0.609212
Cl2   Cl    Cl    0.810040 0.008108 0.957248 -0.609260
Cl3   Cl    Cl    0.041946 0.025993 0.709485 -0.655240
Cl4   Cl    Cl    0.958056 0.526021 0.290512 -0.655254
C53   C     C_3   0.834730 0.695490 0.737198 -0.725550
H19   H     H_    0.824590 0.766360 0.797678 0.241653
H20   H     H_    0.791240 0.626979 0.692903 0.214068
H21   H     H_    0.868344 0.579520 0.763809 0.213188
C54   C     C_3   0.165268 0.195471 0.262807 -0.725574
H22   H     H_    0.175408 0.266336 0.202326 0.241619
H23   H     H_    0.208758 0.126961 0.307104 0.214071
H24   H     H_    0.131653 0.079503 0.236198 0.213194
C55   C     C_3   0.519489 0.855046 0.497718 -0.805424
H25   H     H_    0.468645 0.842896 0.456909 0.219705
H26   H     H_    0.532027 0.734529 0.546108 0.223400
H27   H     H_    0.525296 0.983389 0.540541 0.223827
C56   C     C_3   0.480506 0.355034 0.502279 -0.805427
H28   H     H_    0.531350 0.342869 0.543086 0.219709
H29   H     H_    0.467964 0.234527 0.453884 0.223401
H30   H     H_    0.474702 0.483384 0.459462 0.223824
Cl5   Cl    Cl    0.337635 0.583126 0.131904 -0.617099
Cl6   Cl    Cl    0.662352 0.083188 0.868060 -0.617107

loop_
_geom_bond_atom_site_label_1
_geom_bond_atom_site_label_2
_ccdc_geom_bond_type
O14   V4    S    
C39   C43   A    
C6    Cl2   S    
C15   C45   A    
C56   H28   S    
C18   C26   A    
C50   O17   A    
O2    C4    A    
C2    O7    A    
C23   C25   A    
O5    C3    A    
C29   C41   A    
C5    C9    S    
C33   H5    S    
C6    C10   S    
C48   H8    S    
C7    H1    S    
C10   C12   D    
C46   H10   S    
C44   C46   A    
C29   C31   A    
C32   H16   S    
O16   V4    S    
C17   C19   A    
O15   V3    S    
C56   H29   S    
C36   C38   A    
O1    C3    A    
C55   H25   S    
C5    Cl1   S    
C56   H30   S    
C18   C20   A    
C1    C16   S    
C28   C36   A    
C32   C34   A    
C49   O18   A    
O6    V2    S    
C30   C42   A    
C55   H26   S    
C14   C51   S    
C36   H18   S    
C25   C33   A    
C13   C52   S    
O13   C49   A    
C28   C30   A    
C41   C47   A    
C38   C40   A    
C37   C39   A    
C42   C48   A    
C47   H7    S    
C43   C45   A    
C15   C47   A    
C16   C48   A    
O11   V4    S    
O4    C2    A    
O16   C52   A    
O15   C51   A    
C23   C27   A    
O5    V1    S    
C3    C12   S    
C43   C55   S    
C40   C44   A    
C35   C37   A    
O4    V2    S    
C35   H17   S    
C22   C54   S    
O13   V3    S    
C53   H19   S    
O6    C4    A    
C54   H23   S    
O1    V2    S    
O2    V1    S    
C27   C29   A    
C26   C34   A    
C17   H13   S    
C53   H20   S    
C18   H14   S    
C10   Cl6   S    
O14   C50   A    
C39   C41   A    
C55   H27   S    
C8    C49   S    
C7    C50   S    
C37   H11   S    
C21   C53   S    
O3    V1    S    
C45   H9    S    
C8    H2    S    
O3    C1    A    
C34   H6    S    
C11   H3    S    
C13   C19   A    
C12   H4    S    
C14   C20   A    
C4    C11   S    
C17   C25   A    
O7    V1    S    
C31   H15   S    
C1    O8    A    
C21   C23   A    
C44   C56   S    
O8    V2    S    
C31   C33   A    
O19   V4    S    
C22   C24   A    
C27   C35   A    
O17   V3    S    
C24   C26   A    
O20   V3    S    
C5    C7    D    
C40   C42   A    
C2    C15   S    
C54   H24   S    
C6    C8    D    
C9    C11   D    
O12   C52   A    
O11   C51   A    
C9    Cl5   S    
C30   C32   A    
C24   C28   A    
C53   H21   S    
C38   H12   S    
O9    V2    S    
C13   C21   A    
C54   H22   S    
O18   V4    S    
O10   V1    S    
C20   Cl4   S    
C16   C46   A    
C14   C22   A    
O12   V3    S    
C19   Cl3   S    
