data_mof_unit_24458.cif
_audit_creation_date              2012-12-11T15:41:22-0500
_audit_creation_method            fapswitch 2.2
_symmetry_space_group_name_H-M    P1
_symmetry_Int_Tables_number       1
_space_group_crystal_system       triclinic
_cell_length_a                    19.126976
_cell_length_b                    10.93782
_cell_length_c                    18.782407
_cell_angle_alpha                 90.223152
_cell_angle_beta                  90.418577
_cell_angle_gamma                 89.872474
_cell_volume                      3929.27477571

loop_
_atom_site_label
_atom_site_type_symbol
_atom_type_description
_atom_site_fract_x
_atom_site_fract_y
_atom_site_fract_z
_atom_type_partial_charge
C1    C     C_R   0.725142 0.960515 0.855326 0.531118
C2    C     C_R   0.312750 0.423380 0.031706 0.020792
C3    C     C_R   0.762539 0.855965 0.356111 0.546027
C4    C     C_2   0.501603 0.171184 0.922976 -0.145589
C5    C     C_2   0.504708 0.160798 0.079668 -0.156548
C6    C     C_2   0.001603 0.671184 0.922976 -0.145588
C7    C     C_2   0.004708 0.660798 0.079668 -0.156548
C8    C     C_2   0.496705 0.057827 0.038415 0.197766
C9    C     C_2   0.490150 0.065136 0.957917 0.210154
C10   C     C_2   0.996705 0.557827 0.038415 0.197764
C11   C     C_2   0.990150 0.565137 0.957917 0.210154
C12   C     C_R   0.749170 0.405806 0.078981 0.013234
C13   C     C_R   0.203452 0.953260 0.961814 0.045733
C14   C     C_R   0.236332 0.442638 0.930616 0.013014
C15   C     C_R   0.249170 0.905805 0.078981 0.013234
C16   C     C_R   0.736332 0.942638 0.930616 0.013013
C17   C     C_R   0.812750 0.923379 0.031706 0.020792
C18   C     C_R   0.767628 0.265873 0.980426 -0.110479
C19   C     C_R   0.189945 0.452083 0.050725 -0.140282
C20   C     C_R   0.267628 0.765873 0.980426 -0.110479
C21   C     C_R   0.689945 0.952084 0.050725 -0.140282
C22   C     C_R   0.777332 0.296568 0.052021 -0.097139
C23   C     C_R   0.180155 0.463099 0.977274 -0.121068
C24   C     C_R   0.277332 0.796568 0.052021 -0.097139
C25   C     C_R   0.272264 0.953995 0.147311 0.541545
C26   C     C_R   0.680155 0.963100 0.977274 -0.121069
C27   C     C_3   0.641460 0.535233 0.038950 -0.274374
C28   C     C_3   0.360975 0.349577 0.942055 -0.278572
C29   C     C_3   0.141459 0.035231 0.038950 -0.274372
C30   C     C_3   0.860975 0.849575 0.942055 -0.278571
C31   C     C_3   0.630397 0.501699 0.961268 -0.271583
C32   C     C_3   0.371753 0.335768 0.021768 -0.251248
C33   C     C_3   0.130397 0.001697 0.961268 -0.271580
C34   C     C_3   0.871753 0.835767 0.021768 -0.251248
C35   C     C_R   0.729344 0.343113 0.934983 0.022109
C36   C     C_R   0.225142 0.460515 0.855326 0.531120
C37   C     C_R   0.255373 0.419512 0.077649 0.001022
C38   C     C_R   0.229344 0.843113 0.934983 0.022110
C39   C     C_R   0.755373 0.919512 0.077649 0.001022
C40   C     C_R   0.483636 0.170596 0.431599 0.021295
C41   C     C_R   0.490652 0.170455 0.579432 0.023812
C42   C     C_R   0.983637 0.670596 0.431599 0.021295
C43   C     C_R   0.990652 0.670455 0.579432 0.023812
C44   C     C_R   0.474397 0.278222 0.470076 0.042949
C45   C     C_R   0.477114 0.279317 0.542555 0.029065
C46   C     C_R   0.974397 0.778222 0.470076 0.042949
C47   C     C_R   0.772265 0.453995 0.147311 0.541545
C48   C     C_R   0.977114 0.779317 0.542555 0.029065
C49   C     C_R   0.485698 0.058947 0.542647 -0.171250
C50   C     C_R   0.484398 0.059076 0.468320 -0.169382
C51   C     C_R   0.985698 0.558947 0.542647 -0.171249
C52   C     C_R   0.984398 0.559076 0.468320 -0.169381
C53   C     C_R   0.529381 0.177781 0.850534 0.574722
C54   C     C_R   0.471464 0.175697 0.149835 0.561640
C55   C     C_R   0.029381 0.677781 0.850534 0.574723
C56   C     C_R   0.971464 0.675697 0.149835 0.561639
C57   C     C_3   0.510774 0.397594 0.462145 -0.278013
C58   C     C_R   0.713474 0.483994 0.032572 0.023304
C59   C     C_3   0.513742 0.401329 0.542313 -0.268133
C60   C     C_3   0.010774 0.897594 0.462145 -0.278013
C61   C     C_3   0.013742 0.901329 0.542313 -0.268133
C62   C     C_R   0.749636 0.411362 0.421418 0.016147
C63   C     C_R   0.249188 0.400157 0.580583 0.018876
C64   C     C_R   0.249636 0.911362 0.421418 0.016147
C65   C     C_R   0.749188 0.900157 0.580583 0.018876
C66   C     C_R   0.785778 0.316978 0.455573 0.018626
C67   C     C_R   0.201246 0.328894 0.541965 0.023061
C68   C     C_R   0.285778 0.816978 0.455573 0.018626
C69   C     C_R   0.303353 0.436019 0.959172 -0.002785
C70   C     C_R   0.701246 0.828894 0.541965 0.023061
C71   C     C_R   0.783960 0.307358 0.528451 0.040492
C72   C     C_R   0.205738 0.319625 0.469334 0.032120
C73   C     C_R   0.283960 0.807358 0.528451 0.040492
C74   C     C_R   0.705738 0.819625 0.469334 0.032119
C75   C     C_R   0.700525 0.471387 0.535970 -0.171788
C76   C     C_R   0.313440 0.431802 0.471221 -0.152072
C77   C     C_R   0.200525 0.971387 0.535970 -0.171788
C78   C     C_R   0.813440 0.931802 0.471221 -0.152072
C79   C     C_R   0.702341 0.482255 0.461732 -0.163811
C80   C     C_R   0.213473 0.983993 0.032572 0.023304
C81   C     C_R   0.309516 0.440369 0.545692 -0.152827
C82   C     C_R   0.202341 0.982255 0.461732 -0.163811
C83   C     C_R   0.809516 0.940368 0.545692 -0.152826
C84   C     C_3   0.861107 0.279553 0.453483 -0.269242
C85   C     C_3   0.123018 0.334588 0.538105 -0.270471
C86   C     C_3   0.361108 0.779553 0.453483 -0.269242
C87   C     C_3   0.623018 0.834588 0.538105 -0.270470
C88   C     C_3   0.859357 0.273540 0.533823 -0.265853
C89   C     C_3   0.128603 0.323931 0.458197 -0.276497
C90   C     C_3   0.359357 0.773540 0.533823 -0.265853
C91   C     C_R   0.803353 0.936019 0.959172 -0.002784
C92   C     C_3   0.628603 0.823931 0.458197 -0.276497
C93   C     C_R   0.745292 0.388407 0.570293 0.020177
C94   C     C_R   0.257855 0.379908 0.432010 0.018190
C95   C     C_R   0.245292 0.888407 0.570293 0.020177
C96   C     C_R   0.757855 0.879908 0.432010 0.018190
C97   C     C_R   0.724263 0.313232 0.859788 0.552571
C98   C     C_R   0.262543 0.363837 0.147237 0.549354
C99   C     C_R   0.224263 0.813232 0.859788 0.552571
C100  C     C_R   0.762543 0.863837 0.147237 0.549354
C101  C     C_R   0.728024 0.953131 0.648297 0.545712
C102  C     C_R   0.703452 0.453261 0.961814 0.045735
C103  C     C_R   0.272116 0.955371 0.352386 0.540111
C104  C     C_R   0.228023 0.453131 0.648297 0.545713
C105  C     C_R   0.772116 0.455371 0.352386 0.540111
C106  C     C_R   0.528036 0.176594 0.646067 0.556332
C107  C     C_R   0.468143 0.176428 0.356795 0.543565
C108  C     C_R   0.028036 0.676594 0.646067 0.556333
C109  C     C_R   0.968143 0.676428 0.356795 0.543565
C110  C     C_R   0.738654 0.359532 0.645237 0.561504
C111  C     C_R   0.262539 0.355965 0.356111 0.546027
C112  C     C_R   0.238654 0.859532 0.645237 0.561504
Cr1   Cr    Cr6+3 0.769260 0.163750 0.750730 1.038075
Cr2   Cr    Cr6+3 0.385810 0.322400 0.252290 1.021168
Cr3   Cr    Cr6+3 0.114190 0.822400 0.747710 1.008898
Cr4   Cr    Cr6+3 0.885810 0.822400 0.252290 1.021168
Cr5   Cr    Cr6+3 0.230740 0.163750 0.249270 1.038840
Cr6   Cr    Cr6+3 0.269260 0.663750 0.750730 1.038076
Cr7   Cr    Cr6+3 0.730740 0.663750 0.249270 1.038839
Cr8   Cr    Cr6+3 0.612640 0.009910 0.748780 1.067138
Cr9   Cr    Cr6+3 0.387360 0.009910 0.251220 1.099021
Cr10  Cr    Cr6+3 0.112640 0.509910 0.748780 1.067124
Cr11  Cr    Cr6+3 0.887360 0.509910 0.251220 1.099021
Cr12  Cr    Cr6+3 0.614190 0.322400 0.747710 1.008898
H1    H     H_    0.977144 0.970035 0.438795 0.134464
H2    H     H_    0.358272 0.468822 0.444381 0.125763
H3    H     H_    0.166329 0.030431 0.566423 0.122794
H4    H     H_    0.858272 0.968822 0.444381 0.125763
H5    H     H_    0.671461 0.553357 0.436941 0.138343
H6    H     H_    0.350613 0.485711 0.575199 0.118402
H7    H     H_    0.171461 0.053357 0.436941 0.138343
H8    H     H_    0.850613 0.985711 0.575199 0.118402
H9    H     H_    0.896263 0.351703 0.434062 0.163226
H10   H     H_    0.103116 0.425010 0.555050 0.167750
H11   H     H_    0.396263 0.851703 0.434062 0.163226
H12   H     H_    0.068279 0.897694 0.562268 0.174146
H13   H     H_    0.603116 0.925010 0.555050 0.167750
H14   H     H_    0.868384 0.188903 0.427719 0.128383
H15   H     H_    0.097847 0.254192 0.563228 0.130601
H16   H     H_    0.368384 0.688903 0.427719 0.128383
H17   H     H_    0.597847 0.754192 0.563228 0.130602
H18   H     H_    0.867950 0.180680 0.554916 0.136376
H19   H     H_    0.107088 0.236918 0.436829 0.136241
H20   H     H_    0.367950 0.680680 0.554916 0.136376
H21   H     H_    0.607088 0.736918 0.436829 0.136241
H22   H     H_    0.890919 0.345723 0.560412 0.141112
H23   H     H_    0.477144 0.470035 0.438795 0.134464
H24   H     H_    0.111460 0.407577 0.429449 0.142755
H25   H     H_    0.390919 0.845723 0.560412 0.141113
H26   H     H_    0.611460 0.907577 0.429449 0.142755
H27   H     H_    0.520532 0.246838 0.057304 0.040136
H28   H     H_    0.504641 0.257468 0.950523 0.039286
H29   H     H_    0.020533 0.746838 0.057304 0.040136
H30   H     H_    0.004641 0.757468 0.950523 0.039285
H31   H     H_    0.791223 0.183193 0.960075 0.147482
H32   H     H_    0.146517 0.462225 0.086089 0.206835
H33   H     H_    0.291224 0.683194 0.960075 0.147482
H34   H     H_    0.568279 0.397694 0.562268 0.174146
H35   H     H_    0.646517 0.962226 0.086089 0.206835
H36   H     H_    0.808075 0.236578 0.085726 0.161727
H37   H     H_    0.128676 0.484828 0.956831 0.188987
H38   H     H_    0.308076 0.736579 0.085726 0.161727
H39   H     H_    0.628676 0.984830 0.956831 0.188986
H40   H     H_    0.142645 0.135391 0.048808 0.198794
H41   H     H_    0.905062 0.896239 0.915239 0.151276
H42   H     H_    0.642646 0.635393 0.048807 0.198792
H43   H     H_    0.405062 0.396241 0.915239 0.151274
H44   H     H_    0.608106 0.482119 0.075902 0.138160
H45   H     H_    0.562925 0.387593 0.437008 0.142122
H46   H     H_    0.342208 0.264585 0.915477 0.164978
H47   H     H_    0.108106 0.982117 0.075902 0.138160
H48   H     H_    0.842207 0.764583 0.915477 0.164978
H49   H     H_    0.590650 0.428962 0.952963 0.136828
H50   H     H_    0.359700 0.242444 0.041479 0.146466
H51   H     H_    0.090650 0.928959 0.952963 0.136828
H52   H     H_    0.859699 0.742443 0.041479 0.146465
H53   H     H_    0.624506 0.582790 0.926206 0.177187
H54   H     H_    0.421863 0.375649 0.040783 0.150628
H55   H     H_    0.124505 0.082788 0.926207 0.177191
H56   H     H_    0.481249 0.475534 0.565600 0.122921
H57   H     H_    0.921863 0.875647 0.040783 0.150628
H58   H     H_    0.490734 0.973093 0.570547 0.119903
H59   H     H_    0.487089 0.973445 0.439739 0.120114
H60   H     H_    0.990734 0.473093 0.570547 0.119902
H61   H     H_    0.987089 0.473445 0.439739 0.120114
H62   H     H_    0.526150 0.733832 0.029307 0.366998
H63   H     H_    0.504373 0.780356 0.855023 0.345398
H64   H     H_    0.026148 0.233834 0.029304 0.367004
H65   H     H_    0.004374 0.280379 0.855002 0.345397
H66   H     H_    0.062925 0.887593 0.437008 0.142122
H67   H     H_    0.981249 0.975534 0.565600 0.122921
H68   H     H_    0.666329 0.530431 0.566423 0.122795
O1    O     O_R   0.784290 0.290360 0.830540 -0.446701
O2    O     O_R   0.456020 0.282110 0.333230 -0.520853
O3    O     O_R   0.043980 0.782110 0.666770 -0.527295
O4    O     O_R   0.956020 0.782110 0.333230 -0.520853
O5    O     O_R   0.679070 0.374030 0.674430 -0.505837
O6    O     O_R   0.320930 0.374030 0.325570 -0.509150
O7    O     O_R   0.179070 0.874030 0.674430 -0.505838
O8    O     O_R   0.820930 0.874030 0.325570 -0.509150
O9    O     O_3   0.665360 0.165350 0.749070 -0.292062
O10   O     O_3   0.334640 0.165350 0.250930 -0.269754
O11   O     O_3   0.165360 0.665350 0.749070 -0.292061
O12   O     O_R   0.215710 0.290360 0.169460 -0.484786
O13   O     O_3   0.834640 0.665350 0.250930 -0.269754
O14   O     O_R   0.762610 0.041070 0.825230 -0.526557
O15   O     O_R   0.237390 0.041070 0.174770 -0.508558
O16   O     O_R   0.262610 0.541070 0.825230 -0.526557
O17   O     O_R   0.737390 0.541070 0.174770 -0.508558
O18   O     O_R   0.667390 0.924160 0.829970 -0.477124
O19   O     O_R   0.332610 0.924160 0.170030 -0.458185
O20   O     O_R   0.167390 0.424160 0.829970 -0.477129
O21   O     O_R   0.832610 0.424160 0.170030 -0.458184
O22   O     O_R   0.553980 0.081420 0.821780 -0.425893
O23   O     O_R   0.284290 0.790360 0.830540 -0.446701
O24   O     O_R   0.446020 0.081420 0.178220 -0.412979
O25   O     O_R   0.053980 0.581420 0.821780 -0.425900
O26   O     O_R   0.946020 0.581420 0.178220 -0.412979
O27   O     O_R   0.543210 0.283170 0.826740 -0.542648
O28   O     O_R   0.456790 0.283170 0.173260 -0.530665
O29   O     O_R   0.043210 0.783170 0.826740 -0.542647
O30   O     O_R   0.956790 0.783170 0.173260 -0.530664
O31   O     O_R   0.678350 0.375000 0.822720 -0.498297
O32   O     O_R   0.321650 0.375000 0.177280 -0.501782
O33   O     O_R   0.178350 0.875000 0.822720 -0.498297
O34   O     O_R   0.715710 0.790360 0.169460 -0.484786
O35   O     O_R   0.821650 0.875000 0.177280 -0.501782
O36   O     O_R   0.785060 0.289300 0.670580 -0.504138
O37   O     O_R   0.214940 0.289300 0.329420 -0.510988
O38   O     O_R   0.285060 0.789300 0.670580 -0.504136
O39   O     O_R   0.714940 0.789300 0.329420 -0.510988
O40   O     O_R   0.763330 0.040090 0.676940 -0.506387
O41   O     O_R   0.236670 0.040090 0.323060 -0.512939
O42   O     O_R   0.263330 0.540090 0.676940 -0.506387
O43   O     O_R   0.736670 0.540090 0.323060 -0.512939
O44   O     O_R   0.668160 0.923110 0.670000 -0.521296
O45   O     O_R   0.554690 0.080440 0.673480 -0.502225
O46   O     O_R   0.331840 0.923110 0.330000 -0.526188
O47   O     O_R   0.168160 0.423110 0.670000 -0.521298
O48   O     O_R   0.831840 0.423110 0.330000 -0.526188
O49   O     O_2   0.539980 0.914892 0.149568 -0.301826
O50   O     O_2   0.432412 0.856283 0.088348 -0.244390
O51   O     O_3   0.549417 0.814323 0.025459 -0.514875
O52   O     O_2   0.408742 0.861897 0.949611 -0.242125
O53   O     O_2   0.420366 0.982220 0.841842 -0.284419
O54   O     O_3   0.525937 0.849182 0.881578 -0.482476
O55   O     O_2   0.039979 0.414892 0.149568 -0.301825
O56   O     O_R   0.445310 0.080440 0.326520 -0.505111
O57   O     O_2   0.932411 0.356283 0.088348 -0.244391
O58   O     O_3   0.049417 0.314323 0.025459 -0.514869
O59   O     O_2   0.908742 0.361897 0.949610 -0.242113
O60   O     O_2   0.920365 0.482221 0.841842 -0.284433
O61   O     O_3   0.025936 0.349182 0.881578 -0.482478
O62   O     O_R   0.054690 0.580440 0.673480 -0.502227
O63   O     O_R   0.945310 0.580440 0.326520 -0.505111
O64   O     O_R   0.543980 0.282110 0.666770 -0.527296
S1    S     S_3+6 0.503746 0.909187 0.078311 0.038558
S2    S     S_3+6 0.458453 0.937446 0.907092 0.063101
S3    S     S_3+6 0.003746 0.409187 0.078310 0.038559
S4    S     S_3+6 0.958453 0.437446 0.907092 0.063099

loop_
_geom_bond_atom_site_label_1
_geom_bond_atom_site_label_2
_ccdc_geom_bond_type
C53   O27   A    
C7    C10   D    
C56   O30   A    
C21   C26   A    
C71   C88   S    
C53   O22   A    
Cr8   O9    S    
Cr10  O25   S    
C29   C33   S    
C4    C53   S    
C64   C103  S    
C68   C86   S    
Cr10  O62   S    
C94   C111  S    
C19   C23   A    
C50   H59   S    
C17   C91   A    
C65   C101  S    
C6    C55   S    
Cr12  O64   S    
C35   C102  A    
C78   H4    S    
C56   O26   A    
C48   C61   S    
C55   O25   A    
C62   C105  S    
C54   O24   A    
O60   S4    D    
O49   S1    D    
C31   H53   S    
C60   H66   S    
C64   C68   A    
C98   O12   A    
C59   H56   S    
C42   C109  S    
O57   S3    D    
Cr9   O10   S    
Cr3   O33   S    
H63   O54   S    
C35   C97   S    
C95   C112  S    
C90   H25   S    
C111  O6    A    
C36   O16   A    
H62   O51   S    
Cr4   O8    S    
C59   H34   S    
C40   C50   A    
C109  O4    A    
C57   C59   S    
C33   H55   S    
Cr8   O44   S    
C74   C92   S    
C65   C70   A    
C79   H5    S    
C12   C22   A    
C26   H39   S    
C112  O38   A    
Cr11  O13   S    
C34   H57   S    
C2    C32   S    
C67   C72   A    
O51   S1    S    
C108  O62   A    
C97   O1    A    
C8    S1    S    
C25   O19   A    
C17   C39   A    
C19   C37   A    
C28   H43   S    
C76   C94   A    
C104  O47   A    
C78   C83   A    
Cr9   O56   S    
C45   C59   S    
C66   C71   A    
C78   C96   A    
C8    C9    S    
C106  O45   A    
C98   O32   A    
C70   C74   A    
Cr2   O10   S    
Cr6   O23   S    
C58   C102  A    
Cr1   O9    S    
Cr5   O12   S    
C18   C35   A    
C85   H15   S    
C112  O7    A    
Cr11  O63   S    
Cr4   O13   S    
C77   H3    S    
Cr7   O39   S    
C85   H10   S    
C55   O29   A    
C12   C58   A    
C104  O42   A    
C92   H21   S    
Cr12  O27   S    
C84   H14   S    
C103  O41   A    
C87   C92   S    
C110  O5    A    
Cr8   O18   S    
C19   H32   S    
C105  O43   A    
C29   H40   S    
C32   H54   S    
C7    C56   S    
C87   H13   S    
C12   C47   S    
C70   C87   S    
C41   C49   A    
C37   C98   S    
C99   O23   A    
H65   O61   S    
C92   H26   S    
C57   H45   S    
C16   C26   A    
C4    H28   S    
H64   O58   S    
C46   C48   A    
C84   H9    S    
C67   C85   S    
Cr7   O17   S    
C41   C106  S    
C30   C34   S    
Cr4   O35   S    
C27   C31   S    
C51   C52   A    
C31   C102  S    
C74   C96   A    
C5    C54   S    
C28   C32   S    
O52   S2    D    
C61   H12   S    
C51   H60   S    
C86   C90   S    
C3    O39   A    
C6    C11   D    
C62   C66   A    
C76   H2    S    
C38   C99   S    
Cr1   O36   S    
C68   C73   A    
C89   H19   S    
Cr3   O7    S    
Cr12  O5    S    
C109  O63   A    
C87   H17   S    
C97   O31   A    
Cr3   O11   S    
C60   C61   S    
C14   C23   A    
C100  O35   A    
Cr6   O16   S    
Cr9   O24   S    
C63   C67   A    
C13   C33   S    
C21   H35   S    
O54   S2    S    
C106  O64   A    
O59   S4    D    
C34   H52   S    
C20   C38   A    
C62   C79   A    
C15   C80   A    
C7    H29   S    
Cr12  O31   S    
Cr5   O41   S    
C44   C57   S    
C63   C104  S    
C93   C110  S    
C30   H48   S    
C22   H36   S    
C101  O44   A    
C3    O8    A    
C1    C16   S    
C99   O33   A    
C41   C45   A    
C29   H47   S    
C108  O3    A    
C100  O34   A    
C1    O14   A    
C64   C82   A    
C13   C38   A    
C3    C96   S    
C36   O20   A    
C40   C107  S    
Cr7   O13   S    
Cr7   O43   S    
C15   C24   A    
Cr11  O26   S    
C63   C81   A    
Cr10  O47   S    
C20   H33   S    
C57   H23   S    
C42   C46   A    
C111  O37   A    
C14   C69   A    
Cr10  O20   S    
Cr10  O11   S    
C75   C79   A    
C17   C34   S    
C73   C95   A    
Cr5   O10   S    
C2    C69   A    
O58   S3    S    
C44   C45   A    
C75   C93   A    
Cr1   O40   S    
Cr6   O42   S    
C43   C48   A    
C28   H46   S    
C88   H18   S    
Cr3   O3    S    
C60   H1    S    
C85   C89   S    
C15   C25   S    
Cr2   O2    S    
C46   C60   S    
C1    O18   A    
C18   C22   A    
Cr1   O1    S    
C21   C39   A    
Cr3   O29   S    
C47   O17   A    
C24   H38   S    
C84   C88   S    
C30   H41   S    
Cr2   O28   S    
C30   C91   S    
Cr5   O15   S    
Cr6   O11   S    
C76   C81   A    
C73   C90   S    
C5    C8    D    
O55   S3    D    
C54   O28   A    
C71   C93   A    
C28   C69   S    
C86   H16   S    
C27   H44   S    
C5    H27   S    
Cr12  O9    S    
Cr8   O45   S    
C89   H24   S    
Cr1   O14   S    
Cr11  O21   S    
C75   H68   S    
C82   H7    S    
C72   C94   A    
C83   H8    S    
C25   O15   A    
C11   S4    S    
C14   C36   S    
C72   C89   S    
C6    H30   S    
C2    C37   A    
C43   C51   A    
C81   H6    S    
C29   C80   S    
C32   H50   S    
C77   C82   A    
C27   C58   S    
C103  O46   A    
O61   S4    S    
Cr2   O6    S    
C47   O21   A    
Cr5   O37   S    
O50   S1    D    
C105  O48   A    
C77   C95   A    
Cr9   O46   S    
Cr11  O48   S    
C101  O40   A    
C43   C108  S    
Cr9   O19   S    
Cr4   O30   S    
C33   H51   S    
C90   H20   S    
C13   C80   A    
C65   C83   A    
C10   C11   S    
C27   H42   S    
C66   C84   S    
C49   H58   S    
Cr4   O4    S    
C107  O56   A    
C86   H11   S    
C40   C44   A    
C39   C100  S    
C16   C91   A    
C31   H49   S    
C49   C50   A    
C52   H61   S    
C61   H67   S    
C88   H22   S    
C10   S3    S    
C110  O36   A    
Cr2   O32   S    
C4    C9    D    
C9    S2    S    
Cr8   O22   S    
C20   C24   A    
C107  O2    A    
O53   S2    D    
C18   H31   S    
Cr6   O38   S    
Cr7   O34   S    
C42   C52   A    
C23   H37   S    
