data_mof_unit_14572.cif
_audit_creation_date              2012-12-10T16:51:47-0500
_audit_creation_method            fapswitch 2.2
_symmetry_space_group_name_H-M    P1
_symmetry_Int_Tables_number       1
_space_group_crystal_system       triclinic
_cell_length_a                    15.243427
_cell_length_b                    15.65905
_cell_length_c                    9.776319
_cell_angle_alpha                 90.406581
_cell_angle_beta                  88.903247
_cell_angle_gamma                 89.8982
_cell_volume                      2333.09321228

loop_
_atom_site_label
_atom_site_type_symbol
_atom_type_description
_atom_site_fract_x
_atom_site_fract_y
_atom_site_fract_z
_atom_type_partial_charge
C1    C     C_R   0.382757 0.882821 0.500728 0.819475
C2    C     C_R   0.381183 0.115796 0.501197 0.869667
C3    C     C_R   0.882750 0.382826 0.500729 0.819449
C4    C     C_R   0.881194 0.615808 0.501196 0.869691
C5    C     C_R   0.615983 0.118474 0.499171 0.872525
C6    C     C_R   0.615527 0.881118 0.498610 0.805156
C7    C     C_R   0.115993 0.618466 0.499169 0.872250
C8    C     C_R   0.115523 0.381114 0.498611 0.805051
C9    C     C_2   0.693463 0.758072 0.392751 -0.003295
C10   C     C_2   0.707157 0.229969 0.387945 0.026706
C11   C     C_2   0.193379 0.258002 0.392805 -0.003341
C12   C     C_2   0.207329 0.729820 0.387868 0.026799
C13   C     C_2   0.683229 0.815974 0.495121 -0.385674
C14   C     C_2   0.685605 0.181518 0.497436 -0.329107
C15   C     C_2   0.183207 0.315951 0.495124 -0.385636
C16   C     C_2   0.185636 0.681492 0.497438 -0.329108
C17   C     C_2   0.270877 0.201938 0.390506 -0.122326
C18   C     C_2   0.287534 0.780708 0.390684 -0.256494
C19   C     C_2   0.770981 0.702041 0.390478 -0.122771
C20   C     C_2   0.787367 0.280856 0.390664 -0.256538
C21   C     C_2   0.308195 0.175195 0.505578 -0.363476
C22   C     C_2   0.311570 0.821897 0.504068 -0.309824
C23   C     C_2   0.808217 0.675218 0.505565 -0.363162
C24   C     C_2   0.811542 0.321921 0.504085 -0.309846
C25   C     C_2   0.428586 0.009305 0.923965 -0.029209
C26   C     C_2   0.928566 0.509120 0.923952 -0.028868
C27   C     C_2   0.428863 0.012401 0.080563 0.612846
C28   C     C_2   0.928863 0.512421 0.080540 0.612129
Cu1   Cu    Cu3+1 0.500020 0.000000 0.638630 0.956324
Cu2   Cu    Cu3+1 0.000020 0.500000 0.638630 0.956811
Cu3   Cu    Cu3+1 0.499980 1.000000 0.361370 1.017966
Cu4   Cu    Cu3+1 0.999980 0.500000 0.361370 1.018009
H1    H     H_    0.729988 0.820217 0.577119 0.167239
H2    H     H_    0.726139 0.182341 0.587576 0.137150
H3    H     H_    0.229998 0.320215 0.577075 0.167220
H4    H     H_    0.226072 0.682399 0.587687 0.137213
H5    H     H_    0.295110 0.179143 0.291636 0.251218
H6    H     H_    0.323763 0.789048 0.295216 0.155492
H7    H     H_    0.795289 0.679328 0.291606 0.251229
H8    H     H_    0.823486 0.289289 0.295124 0.155566
H9    H     H_    0.281693 0.192545 0.605778 0.188417
H10   H     H_    0.274827 0.815581 0.599709 0.150252
H11   H     H_    0.781650 0.692507 0.605751 0.188762
H12   H     H_    0.774894 0.315520 0.599795 0.150258
H13   H     H_    0.558889 0.008484 0.888086 0.239962
H14   H     H_    0.058847 0.508749 0.888116 0.239668
N1    N     N_2   0.498660 1.000000 0.846910 -0.321053
N2    N     N_2   0.998660 0.500000 0.846910 -0.320654
N3    N     N_2   0.498630 1.000000 0.153040 -0.054182
N4    N     N_2   0.998630 0.500000 0.153040 -0.053960
O1    O     O_R   0.410990 0.910970 0.617040 -0.606496
O2    O     O_R   0.410990 0.089030 0.617040 -0.580598
O3    O     O_R   0.910990 0.410970 0.617040 -0.606393
O4    O     O_R   0.910990 0.589030 0.617040 -0.579556
O5    O     O_R   0.410950 0.910970 0.382900 -0.578258
O6    O     O_R   0.410950 0.089030 0.382900 -0.519182
O7    O     O_R   0.910950 0.410970 0.382900 -0.578286
O8    O     O_R   0.910950 0.589030 0.382900 -0.519389
O9    O     O_R   0.589050 0.089030 0.617100 -0.589848
O10   O     O_R   0.589050 0.910970 0.617100 -0.560443
O11   O     O_R   0.089050 0.589030 0.617100 -0.589939
O12   O     O_R   0.089050 0.410970 0.617100 -0.560463
O13   O     O_R   0.589010 0.089030 0.382960 -0.570797
O14   O     O_R   0.589010 0.910970 0.382960 -0.587931
O15   O     O_R   0.089010 0.589030 0.382960 -0.570715
O16   O     O_R   0.089010 0.410970 0.382960 -0.587911
C29   C     C_2   0.628676 0.746942 0.281824 0.411574
H15   H     H_    0.561801 0.769773 0.294390 0.100084
O17   O     O_2   0.649014 0.710010 0.175434 -0.531747
C30   C     C_2   0.654057 0.237784 0.262731 0.381929
H16   H     H_    0.686695 0.249272 0.164953 0.030546
O18   O     O_2   0.573968 0.238053 0.268687 -0.519843
C31   C     C_2   0.128543 0.246859 0.281952 0.411703
H17   H     H_    0.061678 0.269706 0.294585 0.099917
O19   O     O_2   0.148837 0.209898 0.175541 -0.531510
C32   C     C_2   0.154392 0.737504 0.262461 0.381761
H18   H     H_    0.187168 0.748782 0.164724 0.030518
O20   O     O_2   0.074297 0.737912 0.268189 -0.519818
C33   C     C_2   0.344074 0.024911 0.857014 0.415277
H19   H     H_    0.319931 0.981672 0.780093 0.080009
O21   O     O_2   0.300124 0.087672 0.887794 -0.511989
C34   C     C_2   0.844023 0.524350 0.856962 0.416717
H20   H     H_    0.819606 0.480426 0.781220 0.078272
O22   O     O_2   0.800332 0.587496 0.886484 -0.512159
O23   O     O_3   0.352439 0.038047 0.148761 -0.555151
C35   C     C_3   0.291339 0.969978 0.152395 0.080037
H21   H     H_    0.323298 0.907193 0.168201 0.114976
H22   H     H_    0.254570 0.965849 0.055977 0.144592
C36   C     C_3   0.223990 0.985827 0.266823 -0.701785
H23   H     H_    0.186614 0.045112 0.246564 0.269952
H24   H     H_    0.177323 0.931565 0.272466 0.200361
H25   H     H_    0.256624 0.992539 0.366644 0.232940
O24   O     O_3   0.852467 0.538237 0.148666 -0.555396
C37   C     C_3   0.791250 0.470265 0.152473 0.079526
H26   H     H_    0.823117 0.407407 0.168049 0.114757
H27   H     H_    0.754296 0.466289 0.056220 0.144664
C38   C     C_3   0.724109 0.486141 0.267185 -0.701771
H28   H     H_    0.686796 0.545493 0.247181 0.269817
H29   H     H_    0.677361 0.431950 0.272916 0.200217
H30   H     H_    0.756899 0.492726 0.366886 0.233051
O25   O     O_3   0.560723 0.949027 0.095647 -0.533668
C39   C     C_3   0.642485 0.990183 0.110979 0.150517
H31   H     H_    0.662272 0.993607 0.218761 0.195733
H32   H     H_    0.640669 0.056437 0.070250 0.106667
C40   C     C_3   0.713102 0.940015 0.032820 -0.802178
H33   H     H_    0.697297 0.935900 0.922580 0.249150
H34   H     H_    0.777464 0.972266 0.043408 0.202344
H35   H     H_    0.717987 0.874452 0.074597 0.287461
O26   O     O_3   0.060715 0.449026 0.095625 -0.533568
C41   C     C_3   0.142482 0.490172 0.110954 0.150681
H36   H     H_    0.162288 0.493562 0.218730 0.195672
H37   H     H_    0.140667 0.556439 0.070282 0.106664
C42   C     C_3   0.213076 0.440024 0.032713 -0.802251
H38   H     H_    0.197248 0.435977 0.922484 0.249177
H39   H     H_    0.277450 0.472247 0.043317 0.202323
H40   H     H_    0.217948 0.374441 0.074395 0.287478

loop_
_geom_bond_atom_site_label_1
_geom_bond_atom_site_label_2
_ccdc_geom_bond_type
C8    O16   A    
O24   C37   S    
C31   H17   S    
Cu4   O8    S    
C38   H28   S    
O23   C35   S    
Cu2   O4    S    
O25   C39   S    
Cu1   N1    S    
C19   H7    S    
Cu2   N2    S    
C32   O20   D    
N3    O25   S    
C20   H8    S    
C35   H22   S    
C23   H11   S    
C5    O13   A    
C39   C40   S    
C6    O14   A    
C27   O23   S    
C9    C13   D    
C41   H36   S    
C7    O11   A    
C28   N4    D    
C9    C19   S    
C12   C16   D    
C10   C20   S    
C30   H16   S    
Cu3   O6    S    
C36   H24   S    
C25   N1    D    
C26   N2    D    
C42   H40   S    
C1    C22   S    
C26   C34   S    
C18   C22   D    
C31   O19   D    
C3    C24   S    
C39   H31   S    
C11   C15   D    
Cu4   O7    S    
Cu3   N3    S    
C15   H3    S    
C38   H29   S    
H13   N1    S    
Cu2   O3    S    
H14   N2    S    
C5    O9    A    
C29   H15   S    
Cu3   O13   S    
C32   H18   S    
C11   C31   S    
C33   O21   D    
C4    C23   S    
C35   H21   S    
C37   C38   S    
N4    O26   S    
C17   C21   D    
C28   O24   S    
C29   O17   D    
C19   C23   D    
C9    C29   S    
C13   H1    S    
C6    O10   A    
C7    O15   A    
C40   H34   S    
Cu1   O10   S    
C2    C21   S    
C17   H5    S    
C40   H35   S    
C36   H25   S    
C37   H27   S    
C1    O1    A    
C41   C42   S    
Cu4   N4    S    
C5    C14   S    
C2    O2    A    
C21   H9    S    
C10   C30   S    
C7    C16   S    
C8    C15   S    
C34   O22   D    
C12   C32   S    
C10   C14   D    
C24   H12   S    
C4    O8    A    
C3    O7    A    
C38   H30   S    
Cu4   O16   S    
C42   H38   S    
Cu1   O1    S    
C11   C17   S    
C4    O4    A    
C25   C33   S    
Cu3   O14   S    
C35   C36   S    
C14   H2    S    
C25   C27   S    
C40   H33   S    
C26   C28   S    
C39   H32   S    
Cu2   O12   S    
C1    O5    A    
Cu1   Cu3   S    
C2    O6    A    
O26   C41   S    
C16   H4    S    
C6    C13   S    
Cu2   Cu4   S    
C3    O3    A    
C22   H10   S    
C18   H6    S    
C37   H26   S    
C41   H37   S    
C33   H19   S    
C34   H20   S    
Cu2   O11   S    
C12   C18   S    
Cu1   O9    S    
C30   O18   D    
Cu3   O5    S    
C36   H23   S    
C20   C24   D    
C27   N3    D    
C8    O12   A    
Cu4   O15   S    
C42   H39   S    
Cu1   O2    S    
