data_mof_unit_7268.cif
_audit_creation_date              2012-12-11T15:08:58-0500
_audit_creation_method            fapswitch 2.2
_symmetry_space_group_name_H-M    P1
_symmetry_Int_Tables_number       1
_space_group_crystal_system       triclinic
_cell_length_a                    19.597762
_cell_length_b                    11.352016
_cell_length_c                    18.70514
_cell_angle_alpha                 89.999972
_cell_angle_beta                  90.565367
_cell_angle_gamma                 90.0
_cell_volume                      4161.20674043

loop_
_atom_site_label
_atom_site_type_symbol
_atom_type_description
_atom_site_fract_x
_atom_site_fract_y
_atom_site_fract_z
_atom_type_partial_charge
C1    C     C_R   0.272381 0.044758 0.853676 0.528292
C2    C     C_R   0.727619 0.044758 0.146324 0.528292
C3    C     C_R   0.772381 0.544758 0.853676 0.528292
C4    C     C_R   0.227619 0.544758 0.146324 0.528292
C5    C     C_3   0.519954 0.719686 0.964795 -0.113232
C6    C     C_3   0.480046 0.719686 0.035205 -0.113232
C7    C     C_3   0.019954 0.219686 0.964795 -0.113232
C8    C     C_3   0.980046 0.219686 0.035205 -0.113232
C9    C     C_3   0.309783 0.525083 0.043833 -0.249264
C10   C     C_3   0.690217 0.525084 0.956167 -0.249264
C11   C     C_3   0.809783 0.025084 0.043833 -0.249264
C12   C     C_3   0.190217 0.025084 0.956167 -0.249264
C13   C     C_3   0.320190 0.547991 0.963382 -0.239520
C14   C     C_3   0.679810 0.547991 0.036618 -0.239519
C15   C     C_3   0.820190 0.047991 0.963382 -0.239519
C16   C     C_3   0.179810 0.047991 0.036618 -0.239519
C17   C     C_3   0.177283 0.539714 0.025539 -0.016776
C18   C     C_3   0.822717 0.539714 0.974461 -0.016776
C19   C     C_3   0.677283 0.039714 0.025539 -0.016776
C20   C     C_3   0.322717 0.039714 0.974461 -0.016776
C21   C     C_3   0.250373 0.711708 0.057932 -0.238599
C22   C     C_3   0.749627 0.711708 0.942068 -0.238599
C23   C     C_3   0.750373 0.211708 0.057932 -0.238599
C24   C     C_3   0.249627 0.211708 0.942068 -0.238599
C25   C     C_3   0.241629 0.579567 0.070837 0.062056
C26   C     C_3   0.758370 0.579567 0.929163 0.062056
C27   C     C_3   0.741629 0.079567 0.070837 0.062056
C28   C     C_3   0.258370 0.079567 0.929163 0.062056
C29   C     C_3   0.256993 0.612505 0.932582 0.036621
C30   C     C_3   0.743007 0.612505 0.067417 0.036621
C31   C     C_3   0.756992 0.112505 0.932582 0.036621
C32   C     C_3   0.243007 0.112505 0.067417 0.036621
C33   C     C_3   0.194039 0.534708 0.945501 -0.231098
C34   C     C_3   0.805961 0.534708 0.054499 -0.231098
C35   C     C_3   0.694039 0.034708 0.945501 -0.231098
C36   C     C_3   0.305961 0.034708 0.054499 -0.231098
C37   C     C_3   0.247747 0.729637 0.975338 -0.218961
C38   C     C_3   0.752253 0.729637 0.024662 -0.218961
C39   C     C_3   0.747747 0.229637 0.975338 -0.218961
C40   C     C_3   0.252253 0.229637 0.024662 -0.218961
C41   C     C_3   0.505366 0.699412 0.460455 -0.254891
C42   C     C_3   0.494634 0.699412 0.539545 -0.254891
C43   C     C_3   0.005366 0.199412 0.460455 -0.254891
C44   C     C_3   0.994634 0.199413 0.539545 -0.254891
C45   C     C_R   0.444790 0.816710 0.862175 0.534083
C46   C     C_R   0.555210 0.816710 0.137825 0.534083
C47   C     C_R   0.944790 0.316710 0.862175 0.534083
C48   C     C_R   0.055210 0.316710 0.137825 0.534083
C49   C     C_3   0.564576 0.902427 0.477056 -0.253896
C50   C     C_3   0.435424 0.902427 0.522943 -0.253896
C51   C     C_3   0.064576 0.402427 0.477056 -0.253896
C52   C     C_3   0.935424 0.402427 0.522943 -0.253896
C53   C     C_3   0.441783 0.882243 0.441074 -0.093541
C54   C     C_3   0.558217 0.882243 0.558926 -0.093540
C55   C     C_3   0.941783 0.382243 0.441074 -0.093541
C56   C     C_3   0.058217 0.382243 0.558926 -0.093541
C57   C     C_3   0.512235 0.827351 0.431280 0.024067
C58   C     C_3   0.487765 0.827352 0.568720 0.024067
C59   C     C_3   0.012235 0.327351 0.431280 0.024067
C60   C     C_3   0.987765 0.327352 0.568720 0.024067
C61   C     C_3   0.175704 0.645168 0.459535 -0.020674
C62   C     C_3   0.824296 0.645168 0.540465 -0.020674
C63   C     C_3   0.675704 0.145168 0.459535 -0.020674
C64   C     C_3   0.324296 0.145168 0.540465 -0.020674
C65   C     C_3   0.188767 0.676739 0.535776 -0.211110
C66   C     C_3   0.811233 0.676739 0.464223 -0.211109
C67   C     C_3   0.688767 0.176739 0.535776 -0.211109
C68   C     C_3   0.311233 0.176739 0.464223 -0.211109
C69   C     C_3   0.253046 0.466484 0.469790 -0.260060
C70   C     C_3   0.746954 0.466484 0.530210 -0.260060
C71   C     C_3   0.753046 0.966484 0.469790 -0.260060
C72   C     C_3   0.246954 0.966484 0.530210 -0.260060
C73   C     C_3   0.301523 0.661924 0.441252 -0.267289
C74   C     C_3   0.698477 0.661924 0.558748 -0.267289
C75   C     C_3   0.801523 0.161924 0.441252 -0.267289
C76   C     C_3   0.198477 0.161924 0.558748 -0.267289
C77   C     C_3   0.239821 0.582596 0.427343 0.051602
C78   C     C_3   0.760179 0.582596 0.572658 0.051603
C79   C     C_3   0.739821 0.082596 0.427343 0.051603
C80   C     C_3   0.260179 0.082596 0.572658 0.051603
C81   C     C_3   0.252908 0.614226 0.565657 0.029502
C82   C     C_3   0.747092 0.614226 0.434343 0.029502
C83   C     C_3   0.752908 0.114226 0.565657 0.029502
C84   C     C_3   0.247092 0.114226 0.434343 0.029502
C85   C     C_3   0.243500 0.483657 0.550683 -0.275152
C86   C     C_3   0.756500 0.483657 0.449317 -0.275152
C87   C     C_3   0.743500 0.983657 0.550683 -0.275152
C88   C     C_3   0.256500 0.983657 0.449317 -0.275152
C89   C     C_R   0.262918 0.643380 0.855260 0.537989
C90   C     C_R   0.737081 0.643380 0.144740 0.537989
C91   C     C_R   0.762918 0.143379 0.855260 0.537989
C92   C     C_R   0.237081 0.143380 0.144740 0.537989
C93   C     C_3   0.316444 0.656063 0.523022 -0.243947
C94   C     C_3   0.683556 0.656062 0.476978 -0.243947
C95   C     C_3   0.816444 0.156062 0.523022 -0.243946
C96   C     C_3   0.183556 0.156063 0.476978 -0.243947
C97   C     C_R   0.272306 0.047545 0.647764 0.544543
C98   C     C_R   0.727694 0.047545 0.352236 0.544543
C99   C     C_R   0.772306 0.547545 0.647764 0.544543
C100  C     C_R   0.227694 0.547545 0.352236 0.544544
C101  C     C_R   0.465709 0.822233 0.644283 0.569623
C102  C     C_R   0.534291 0.822233 0.355717 0.569623
C103  C     C_R   0.965709 0.322233 0.644283 0.569623
C104  C     C_R   0.034291 0.322233 0.355717 0.569623
C105  C     C_R   0.261423 0.643249 0.642673 0.563550
C106  C     C_R   0.738577 0.643249 0.357327 0.563550
C107  C     C_R   0.761423 0.143249 0.642673 0.563550
C108  C     C_R   0.238577 0.143249 0.357327 0.563550
C109  C     C_3   0.479638 0.912094 0.035428 -0.064629
C110  C     C_3   0.520362 0.912094 0.964572 -0.064629
C111  C     C_3   0.979638 0.412094 0.035428 -0.064629
C112  C     C_3   0.020362 0.412094 0.964572 -0.064629
C113  C     C_3   0.432286 0.815286 0.005438 -0.164432
C114  C     C_3   0.567714 0.815286 0.994561 -0.164433
C115  C     C_3   0.932286 0.315286 0.005438 -0.164432
C116  C     C_3   0.067714 0.315286 0.994561 -0.164433
C117  C     C_3   0.472865 0.817065 0.935660 0.052222
C118  C     C_3   0.527135 0.817065 0.064340 0.052222
C119  C     C_3   0.972865 0.317065 0.935660 0.052222
C120  C     C_3   0.027135 0.317065 0.064340 0.052222
Cr1   Cr    Cr6+3 0.229620 0.836040 0.749110 1.020663
Cr2   Cr    Cr6+3 0.770380 0.836040 0.250890 1.020663
Cr3   Cr    Cr6+3 0.729620 0.336040 0.749110 1.020663
Cr4   Cr    Cr6+3 0.270380 0.336040 0.250890 1.020663
Cr5   Cr    Cr6+3 0.387630 0.990680 0.750730 1.099306
Cr6   Cr    Cr6+3 0.612370 0.990680 0.249270 1.099306
Cr7   Cr    Cr6+3 0.887630 0.490680 0.750730 1.099306
Cr8   Cr    Cr6+3 0.112370 0.490680 0.249270 1.099306
Cr9   Cr    Cr6+3 0.386020 0.676590 0.749210 1.038837
Cr10  Cr    Cr6+3 0.613980 0.676590 0.250790 1.038837
Cr11  Cr    Cr6+3 0.886020 0.176590 0.749210 1.038837
Cr12  Cr    Cr6+3 0.113980 0.176590 0.250790 1.038837
H1    H     H_    0.377857 0.808425 0.014522 0.090174
H2    H     H_    0.622143 0.808425 0.985478 0.090174
H3    H     H_    0.877857 0.308425 0.014522 0.090174
H4    H     H_    0.122143 0.308425 0.985478 0.090174
H5    H     H_    0.210625 0.764874 0.084653 0.161410
H6    H     H_    0.789375 0.764873 0.915347 0.161410
H7    H     H_    0.710625 0.264874 0.084653 0.161410
H8    H     H_    0.289375 0.264873 0.915347 0.161410
H9    H     H_    0.299108 0.741942 0.081995 0.102829
H10   H     H_    0.700893 0.741942 0.918005 0.102829
H11   H     H_    0.799107 0.241942 0.081995 0.102829
H12   H     H_    0.200892 0.241942 0.918005 0.102829
H13   H     H_    0.283520 0.796898 0.957149 0.085447
H14   H     H_    0.804090 0.759321 0.038176 0.174140
H15   H     H_    0.783520 0.296898 0.957149 0.085448
H16   H     H_    0.304090 0.259321 0.038176 0.174140
H17   H     H_    0.195910 0.759321 0.961824 0.174140
H18   H     H_    0.716480 0.796898 0.042850 0.085447
H19   H     H_    0.695910 0.259321 0.961824 0.174140
H20   H     H_    0.216480 0.296898 0.042850 0.085447
H21   H     H_    0.149619 0.564887 0.913053 0.164394
H22   H     H_    0.850381 0.564886 0.086947 0.164394
H23   H     H_    0.649619 0.064886 0.913053 0.164394
H24   H     H_    0.350381 0.064886 0.086947 0.164394
H25   H     H_    0.549233 0.644740 0.448207 0.156464
H26   H     H_    0.450767 0.644740 0.551793 0.156464
H27   H     H_    0.049233 0.144740 0.448207 0.156464
H28   H     H_    0.950767 0.144740 0.551793 0.156464
H29   H     H_    0.462260 0.652673 0.433717 0.135799
H30   H     H_    0.537740 0.652673 0.566283 0.135799
H31   H     H_    0.962260 0.152673 0.433717 0.135799
H32   H     H_    0.037740 0.152673 0.566283 0.135799
H33   H     H_    0.616239 0.893689 0.458494 0.068503
H34   H     H_    0.383761 0.893689 0.541506 0.068503
H35   H     H_    0.116239 0.393689 0.458494 0.068502
H36   H     H_    0.883761 0.393689 0.541506 0.068503
H37   H     H_    0.597970 0.818909 0.575993 0.111501
H38   H     H_    0.402030 0.818909 0.424007 0.111501
H39   H     H_    0.097970 0.318909 0.575993 0.111501
H40   H     H_    0.902030 0.318909 0.424007 0.111501
H41   H     H_    0.463513 0.988502 0.067956 0.177407
H42   H     H_    0.536487 0.988502 0.932044 0.177407
H43   H     H_    0.963513 0.488502 0.067956 0.177407
H44   H     H_    0.036487 0.488503 0.932044 0.177407
H45   H     H_    0.449526 0.994232 0.532180 0.207657
H46   H     H_    0.550474 0.994232 0.467820 0.207657
H47   H     H_    0.949526 0.494232 0.532180 0.207657
H48   H     H_    0.050474 0.494232 0.467820 0.207657
H49   H     H_    0.137881 0.578559 0.460450 0.150942
H50   H     H_    0.862119 0.578559 0.539550 0.150942
H51   H     H_    0.637881 0.078559 0.460450 0.150942
H52   H     H_    0.362119 0.078559 0.539550 0.150942
H53   H     H_    0.195484 0.769349 0.539252 0.143761
H54   H     H_    0.804516 0.769349 0.460748 0.143761
H55   H     H_    0.695484 0.269349 0.539252 0.143761
H56   H     H_    0.304517 0.269349 0.460748 0.143761
H57   H     H_    0.143276 0.659207 0.567502 0.202368
H58   H     H_    0.856724 0.659207 0.432498 0.202367
H59   H     H_    0.643276 0.159207 0.567502 0.202367
H60   H     H_    0.356724 0.159207 0.432498 0.202367
H61   H     H_    0.721881 0.893701 0.449717 0.110872
H62   H     H_    0.278120 0.893701 0.550283 0.110872
H63   H     H_    0.221881 0.393701 0.449717 0.110872
H64   H     H_    0.778119 0.393701 0.550283 0.110872
H65   H     H_    0.692467 0.953676 0.565919 0.151288
H66   H     H_    0.307533 0.953676 0.434081 0.151288
H67   H     H_    0.192467 0.453676 0.565919 0.151288
H68   H     H_    0.807533 0.453676 0.434081 0.151288
H69   H     H_    0.346265 0.630391 0.410696 0.120655
H70   H     H_    0.653735 0.630391 0.589304 0.120655
H71   H     H_    0.846265 0.130391 0.410696 0.120655
H72   H     H_    0.153735 0.130391 0.589304 0.120655
H73   H     H_    0.289700 0.752864 0.424091 0.141177
H74   H     H_    0.710300 0.752865 0.575909 0.141177
H75   H     H_    0.789700 0.252864 0.424091 0.141177
H76   H     H_    0.210300 0.252864 0.575909 0.141177
H77   H     H_    0.535837 0.639309 0.935687 0.138514
H78   H     H_    0.464163 0.639309 0.064313 0.138514
H79   H     H_    0.035837 0.139309 0.935687 0.138514
H80   H     H_    0.964163 0.139309 0.064313 0.138514
H81   H     H_    0.336789 0.737037 0.544374 0.109944
H82   H     H_    0.663211 0.737037 0.455625 0.109944
H83   H     H_    0.836789 0.237037 0.544374 0.109944
H84   H     H_    0.163211 0.237037 0.455625 0.109944
H85   H     H_    0.355595 0.587552 0.531350 0.148553
H86   H     H_    0.644405 0.587552 0.468650 0.148553
H87   H     H_    0.855595 0.087552 0.531350 0.148553
H88   H     H_    0.144405 0.087552 0.468650 0.148553
H89   H     H_    0.307454 0.444811 0.460627 0.159432
H90   H     H_    0.692546 0.444811 0.539373 0.159432
H91   H     H_    0.807454 0.944811 0.460627 0.159432
H92   H     H_    0.192546 0.944811 0.539373 0.159432
H93   H     H_    0.279932 0.432349 0.582347 0.172056
H94   H     H_    0.720068 0.432349 0.417653 0.172056
H95   H     H_    0.779932 0.932349 0.582347 0.172056
H96   H     H_    0.220068 0.932349 0.417653 0.172056
H97   H     H_    0.312202 0.432008 0.055175 0.142341
H98   H     H_    0.687798 0.432008 0.944824 0.142341
H99   H     H_    0.812202 0.932008 0.055176 0.142342
H100  H     H_    0.187798 0.932008 0.944824 0.142342
H101  H     H_    0.353491 0.562624 0.074517 0.124760
H102  H     H_    0.646509 0.562625 0.925483 0.124759
H103  H     H_    0.853491 0.062624 0.074517 0.124759
H104  H     H_    0.146509 0.062625 0.925483 0.124759
H105  H     H_    0.366648 0.602509 0.955825 0.146335
H106  H     H_    0.633352 0.602509 0.044175 0.146335
H107  H     H_    0.866648 0.102509 0.955824 0.146335
H108  H     H_    0.133352 0.102509 0.044175 0.146335
H109  H     H_    0.328457 0.463289 0.934969 0.143470
H110  H     H_    0.671543 0.463289 0.065031 0.143470
H111  H     H_    0.828457 0.963289 0.934969 0.143469
H112  H     H_    0.171543 0.963289 0.065031 0.143469
H113  H     H_    0.659743 0.954308 0.044921 0.109781
H114  H     H_    0.340257 0.954308 0.955079 0.109781
H115  H     H_    0.159743 0.454308 0.044921 0.109781
H116  H     H_    0.840257 0.454308 0.955079 0.109781
H117  H     H_    0.704617 0.943093 0.928867 0.092663
H118  H     H_    0.295383 0.943093 0.071133 0.092663
H119  H     H_    0.204617 0.443093 0.928867 0.092663
H120  H     H_    0.795383 0.443093 0.071133 0.092663
O1    O     O_R   0.214130 0.708570 0.829890 -0.518459
O2    O     O_R   0.785870 0.708570 0.170110 -0.518459
O3    O     O_R   0.714130 0.208570 0.829890 -0.518459
O4    O     O_R   0.285870 0.208570 0.170110 -0.518459
O5    O     O_R   0.446360 0.919990 0.675230 -0.459472
O6    O     O_R   0.553640 0.919990 0.324770 -0.459471
O7    O     O_R   0.946360 0.419990 0.675230 -0.459472
O8    O     O_R   0.053640 0.419990 0.324770 -0.459471
O9    O     O_R   0.457170 0.717300 0.668380 -0.527912
O10   O     O_R   0.542830 0.717300 0.331620 -0.527913
O11   O     O_R   0.957170 0.217300 0.668380 -0.527912
O12   O     O_R   0.042830 0.217300 0.331620 -0.527913
O13   O     O_R   0.320870 0.624890 0.673130 -0.494275
O14   O     O_R   0.679130 0.624890 0.326870 -0.494274
O15   O     O_R   0.820870 0.124890 0.673130 -0.494275
O16   O     O_R   0.179130 0.124890 0.326870 -0.494274
O17   O     O_3   0.334430 0.834430 0.749680 -0.319628
O18   O     O_3   0.665570 0.834430 0.250320 -0.319628
O19   O     O_3   0.834430 0.334430 0.749680 -0.319628
O20   O     O_3   0.165570 0.334430 0.250320 -0.319628
O21   O     O_R   0.236050 0.959150 0.825270 -0.521153
O22   O     O_R   0.763950 0.959150 0.174730 -0.521153
O23   O     O_R   0.736050 0.459150 0.825270 -0.521153
O24   O     O_R   0.263950 0.459150 0.174730 -0.521153
O25   O     O_R   0.332100 0.076650 0.832310 -0.479505
O26   O     O_R   0.667900 0.076650 0.167690 -0.479505
O27   O     O_R   0.832100 0.576650 0.832310 -0.479505
O28   O     O_R   0.167900 0.576650 0.167690 -0.479505
O29   O     O_R   0.446500 0.918620 0.826240 -0.477351
O30   O     O_R   0.553500 0.918620 0.173760 -0.477351
O31   O     O_R   0.946500 0.418620 0.826240 -0.477351
O32   O     O_R   0.053500 0.418620 0.173760 -0.477351
O33   O     O_R   0.457310 0.715830 0.831280 -0.517706
O34   O     O_R   0.542690 0.715830 0.168720 -0.517706
O35   O     O_R   0.957310 0.215830 0.831280 -0.517706
O36   O     O_R   0.042690 0.215830 0.168720 -0.517706
O37   O     O_R   0.321000 0.623520 0.824130 -0.511030
O38   O     O_R   0.679000 0.623520 0.175870 -0.511030
O39   O     O_R   0.821000 0.123520 0.824130 -0.511030
O40   O     O_R   0.179000 0.123520 0.175870 -0.511030
O41   O     O_R   0.213990 0.710040 0.667000 -0.527336
O42   O     O_R   0.786010 0.710040 0.333000 -0.527336
O43   O     O_R   0.713990 0.210040 0.667000 -0.527336
O44   O     O_R   0.286010 0.210040 0.333000 -0.527336
O45   O     O_R   0.235920 0.960520 0.674260 -0.514555
O46   O     O_R   0.764080 0.960520 0.325740 -0.514555
O47   O     O_R   0.735920 0.460520 0.674260 -0.514555
O48   O     O_R   0.264080 0.460520 0.325740 -0.514555
O49   O     O_R   0.331960 0.078120 0.669410 -0.480512
O50   O     O_R   0.668040 0.078120 0.330590 -0.480511
O51   O     O_R   0.831960 0.578120 0.669410 -0.480512
O52   O     O_R   0.168040 0.578120 0.330590 -0.480512
I1    I     I_    0.588224 0.155421 0.040328 -0.410254
I2    I     I_    0.411776 0.155421 0.959672 -0.410255
I3    I     I_    0.088224 0.655421 0.040328 -0.410255
I4    I     I_    0.911776 0.655421 0.959672 -0.410255
C121  C     C_2   0.431437 0.990194 0.393946 0.525950
O53   O     O_2   0.463439 0.081113 0.404628 -0.500532
O54   O     O_R   0.388507 0.981511 0.333980 -0.710982
H121  H     H_    0.388083 0.056028 0.304134 0.361316
C122  C     C_2   0.568563 0.990194 0.606054 0.525949
O55   O     O_2   0.536561 0.081113 0.595372 -0.500532
O56   O     O_R   0.611493 0.981512 0.666020 -0.710982
H122  H     H_    0.611917 0.056028 0.695866 0.361316
C123  C     C_2   0.931437 0.490194 0.393946 0.525950
O57   O     O_2   0.963439 0.581113 0.404628 -0.500532
O58   O     O_R   0.888507 0.481511 0.333980 -0.710982
H123  H     H_    0.888083 0.556028 0.304134 0.361316
C124  C     C_2   0.068563 0.490194 0.606054 0.525950
O59   O     O_2   0.036561 0.581113 0.595372 -0.500533
O60   O     O_R   0.111493 0.481512 0.666020 -0.710982
H124  H     H_    0.111917 0.556028 0.695866 0.361316
I5    I     I_    0.115241 0.781679 0.407344 -0.337130
I6    I     I_    0.884759 0.781679 0.592656 -0.337130
I7    I     I_    0.615241 0.281679 0.407344 -0.337130
I8    I     I_    0.384759 0.281679 0.592656 -0.337130

loop_
_geom_bond_atom_site_label_1
_geom_bond_atom_site_label_2
_ccdc_geom_bond_type
C90   O38   A    
C82   C94   S    
C55   C59   S    
C21   H5    S    
C42   C58   S    
C29   C89   S    
C48   O32   A    
C75   C95   S    
C48   C120  S    
C24   H8    S    
C57   C102  S    
Cr6   O26   S    
C91   O39   A    
C59   C104  S    
Cr8   O8    S    
Cr2   O22   S    
C72   H62   S    
C5    C6    S    
Cr10  O18   S    
C109  H41   S    
Cr11  O15   S    
C22   C38   S    
C29   C33   S    
C30   C38   S    
C77   C100  S    
C9    C13   S    
C75   H75   S    
C12   C16   S    
C101  O5    A    
C95   H87   S    
C102  O10   A    
C73   C93   S    
C60   C103  S    
C121  O54   S    
C113  H1    S    
C54   H37   S    
C23   H11   S    
C55   C123  S    
C67   H55   S    
C109  C118  S    
C15   H111  S    
C11   H103  S    
C94   H82   S    
C50   C53   S    
C63   H51   S    
Cr6   O6    S    
C9    H101  S    
O60   H124  S    
C46   O34   A    
C7    C119  S    
C71   H91   S    
C62   C66   S    
C13   H105  S    
C20   C28   S    
C96   H88   S    
C73   H69   S    
C54   C122  S    
C100  O52   A    
C43   C44   S    
C1    O25   A    
C2    O22   A    
C3    O27   A    
C11   C27   S    
C58   C101  S    
C53   H38   S    
C65   H57   S    
C66   H54   S    
C56   H39   S    
C4    O28   A    
C55   H40   S    
C11   H99   S    
Cr6   O18   S    
C3    C26   S    
Cr3   O47   S    
C84   C88   S    
Cr12  O20   S    
Cr1   O1    S    
C96   H84   S    
C62   I6    S    
Cr11  O39   S    
C17   C25   S    
Cr9   O33   S    
C19   C35   S    
C76   C96   S    
C32   C92   S    
C91   O3    A    
C69   H89   S    
C98   O50   A    
C99   O47   A    
C21   H9    S    
C61   C65   S    
C124  O59   D    
C5    C117  S    
C78   C99   S    
C73   C77   S    
C104  O12   A    
C75   C79   S    
C76   H76   S    
C72   H92   S    
C65   H53   S    
C67   C83   S    
C15   H107  S    
C80   C97   S    
Cr1   O41   S    
C69   C77   S    
C111  C112  S    
Cr10  O34   S    
Cr3   O43   S    
C71   C79   S    
C4    C25   S    
C7    C8    S    
C32   C36   S    
C35   H23   S    
C43   H27   S    
C33   H21   S    
C122  O56   S    
C105  O13   A    
C39   H19   S    
C10   H98   S    
C49   C57   S    
C40   H20   S    
C93   H85   S    
C61   I5    S    
C108  O16   A    
C38   H14   S    
C52   C60   S    
C84   C108  S    
C14   H110  S    
C61   C77   S    
C110  C114  S    
C43   C59   S    
Cr5   O49   S    
C90   O2    A    
Cr7   O19   S    
Cr8   O20   S    
C22   H10   S    
C11   C15   S    
Cr3   O23   S    
Cr11  O11   S    
C110  H42   S    
C81   C105  S    
C30   C34   S    
C10   C14   S    
C75   H71   S    
C102  O6    A    
C20   C36   S    
C7    C116  S    
C36   H118  S    
C92   O40   A    
C114  H2    S    
C21   C37   S    
C44   C60   S    
C47   O31   A    
C113  C117  S    
C16   H112  S    
C89   O37   A    
C112  H44   S    
Cr5   O29   S    
C115  C119  S    
C74   C78   S    
C46   O30   A    
Cr7   O7    S    
C85   H93   S    
Cr8   O32   S    
C56   C124  S    
Cr1   O17   S    
C112  C116  S    
C69   C85   S    
Cr3   O19   S    
C21   C25   S    
Cr4   O20   S    
C20   I2    S    
C62   C78   S    
C76   C80   S    
C2    O26   A    
C7    H79   S    
C42   H30   S    
C3    O23   A    
C16   C32   S    
C5    H77   S    
C31   C91   S    
C52   H47   S    
C72   C80   S    
C88   H96   S    
C115  H3    S    
C66   H58   S    
C82   C106  S    
C64   H52   S    
C97   O49   A    
C68   H56   S    
C70   H64   S    
Cr7   O27   S    
Cr4   O44   S    
C53   C121  S    
Cr8   O28   S    
C81   C85   S    
C98   O46   A    
C83   C87   S    
C41   H29   S    
C41   C42   S    
C19   I1    S    
C18   C26   S    
C30   C90   S    
C9    C25   S    
C8    C120  S    
C12   C28   S    
C13   C29   S    
C105  O41   A    
C54   C58   S    
C107  O43   A    
C71   H61   S    
C17   H115  S    
C45   C117  S    
C45   O33   A    
C46   C118  S    
C104  O8    A    
C88   H66   S    
C123  O58   S    
C73   H73   S    
C51   H35   S    
C50   H34   S    
C1    C28   S    
Cr1   O45   S    
C2    C27   S    
Cr2   O42   S    
C116  C120  S    
Cr3   O3    S    
Cr4   O48   S    
C52   C55   S    
Cr12  O12   S    
C34   H22   S    
O56   H122  S    
C64   C80   S    
C42   H26   S    
C17   C33   S    
Cr9   O9    S    
C110  C117  S    
C38   H18   S    
C64   I8    S    
C106  O14   A    
C10   H102  S    
C40   H16   S    
C93   H81   S    
C68   C84   S    
C24   C28   S    
C50   H45   S    
C97   O45   A    
C14   H106  S    
C53   C57   S    
C74   H70   S    
C82   C86   S    
C56   C60   S    
C50   C58   S    
C49   H33   S    
C62   H50   S    
C65   C81   S    
Cr6   O50   S    
C15   C31   S    
Cr10  O10   S    
C41   H25   S    
C92   O4    A    
C87   H95   S    
C44   H28   S    
C31   C35   S    
C87   H65   S    
C64   C68   S    
Cr9   O13   S    
C36   H24   S    
C49   H46   S    
C103  O7    A    
C37   H17   S    
Cr2   O2    S    
C112  C119  S    
C116  H4    S    
C22   H6    S    
C61   H49   S    
C35   H117  S    
C41   C57   S    
C47   O35   A    
C109  C110  S    
C48   O36   A    
C122  O55   D    
Cr5   O25   S    
C24   H12   S    
Cr6   O30   S    
C70   H90   S    
Cr1   O21   S    
Cr2   O18   S    
O58   H123  S    
Cr10  O14   S    
C18   H116  S    
Cr11  O19   S    
C22   C26   S    
C29   C37   S    
C74   C94   S    
C44   H32   S    
C43   H31   S    
O54   H121  S    
C101  O9    A    
C5    C114  S    
C70   C78   S    
C95   H83   S    
C79   C98   S    
C69   H63   S    
Cr4   O4    S    
C108  O44   A    
C63   C79   S    
C121  O53   D    
C111  H43   S    
C23   H7    S    
C63   I7    S    
Cr7   O51   S    
C67   H59   S    
Cr8   O52   S    
C66   C82   S    
C68   H60   S    
C49   C54   S    
Cr5   O5    S    
C94   H86   S    
C9    H97   S    
C51   C56   S    
C84   C96   S    
Cr7   O31   S    
C33   H119  S    
C8    C115  S    
C85   H67   S    
C13   H109  S    
C83   C107  S    
C124  O60   S    
Cr12  O40   S    
C23   C27   S    
C100  O48   A    
C19   C27   S    
C1    O21   A    
C109  C113  S    
C10   C26   S    
C47   C119  S    
Cr9   O37   S    
C89   O1    A    
C14   C30   S    
C106  O42   A    
C72   C88   S    
C12   H100  S    
C63   C67   S    
C45   O29   A    
C4    O24   A    
Cr5   O17   S    
C111  C120  S    
Cr2   O46   S    
C6    C113  S    
Cr12  O16   S    
C81   C93   S    
C83   C95   S    
C17   I3    S    
C18   I4    S    
C18   C34   S    
C16   H108  S    
C114  C118  S    
C107  O15   A    
C86   H94   S    
C71   C87   S    
C51   C59   S    
C51   H48   S    
C70   C86   S    
C99   O51   A    
C19   H113  S    
C74   H74   S    
C12   H104  S    
C111  C115  S    
C76   H72   S    
C6    H78   S    
C8    H80   S    
C52   H36   S    
Cr11  O35   S    
Cr4   O24   S    
Cr12  O36   S    
C23   C39   S    
C20   H114  S    
C24   C40   S    
C31   C39   S    
C32   C40   S    
C123  O57   D    
Cr9   O17   S    
C39   H15   S    
Cr10  O38   S    
C103  O11   A    
C34   H120  S    
C37   H13   S    
C6    C118  S    
C86   H68   S    
