data_mof_unit_37583.cif
_audit_creation_date              2012-12-10T17:28:32-0500
_audit_creation_method            fapswitch 2.2
_symmetry_space_group_name_H-M    P1
_symmetry_Int_Tables_number       1
_space_group_crystal_system       triclinic
_cell_length_a                    10.466988
_cell_length_b                    11.900342
_cell_length_c                    12.930668
_cell_angle_alpha                 94.611637
_cell_angle_beta                  89.941992
_cell_angle_gamma                 86.007726
_cell_volume                      1601.50808456

loop_
_atom_site_label
_atom_site_type_symbol
_atom_type_description
_atom_site_fract_x
_atom_site_fract_y
_atom_site_fract_z
_atom_type_partial_charge
C1    C     C_R   0.498093 0.524051 0.701204 0.873638
C2    C     C_R   0.507432 0.556887 0.134265 -0.296318
C3    C     C_R   0.496887 0.447661 0.971849 0.127908
C4    C     C_R   0.503211 0.552338 0.028152 0.127904
C5    C     C_R   0.371211 0.953397 0.407979 0.070006
C6    C     C_R   0.628784 0.046604 0.592026 0.070008
C7    C     C_R   0.386333 0.836227 0.417688 -0.008020
C8    C     C_R   0.613664 0.163773 0.582314 -0.008015
C9    C     C_R   0.556669 0.857718 0.536786 -0.096714
C10   C     C_R   0.443331 0.142282 0.463215 -0.096706
C11   C     C_R   0.547215 0.975889 0.532681 -0.004731
C12   C     C_R   0.501916 0.475948 0.298796 0.873649
C13   C     C_R   0.452783 0.024112 0.467322 -0.004727
C14   C     C_R   0.740190 0.497201 0.482701 0.891406
C15   C     C_R   0.259812 0.502799 0.517303 0.891401
C16   C     C_R   0.914685 0.282389 0.441719 0.231631
C17   C     C_R   0.085319 0.717614 0.558303 0.231684
C18   C     C_R   0.973380 0.187888 0.485774 -0.181973
C19   C     C_R   0.026625 0.812113 0.514247 -0.182047
C20   C     C_R   0.073418 0.200360 0.555532 -0.245503
C21   C     C_R   0.926589 0.799644 0.444489 -0.245484
C22   C     C_R   0.121392 0.305875 0.576765 -0.119944
C23   C     C_R   0.503648 0.458507 0.186294 -0.130805
C24   C     C_R   0.878615 0.694129 0.423254 -0.119940
C25   C     C_R   0.065289 0.401788 0.532117 0.071071
C26   C     C_R   0.934715 0.598216 0.467904 0.071073
C27   C     C_R   0.951461 0.392548 0.476456 0.043290
C28   C     C_R   0.048543 0.607455 0.523566 0.043306
C29   C     C_R   0.122358 0.506157 0.538815 -0.267599
C30   C     C_R   0.877648 0.493846 0.461203 -0.267586
C31   C     C_3   0.270426 0.003820 0.336426 -0.437169
C32   C     C_3   0.194639 0.919487 0.270399 -0.900263
C33   C     C_3   0.729561 0.996184 0.663587 -0.437165
C34   C     C_R   0.496401 0.541492 0.813706 -0.130798
C35   C     C_3   0.805333 0.080520 0.729625 -0.900284
C36   C     C_3   0.823243 0.261804 0.352185 -0.385065
C37   C     C_3   0.890407 0.193974 0.259808 -0.915281
C38   C     C_3   0.176780 0.738200 0.647822 -0.384949
C39   C     C_3   0.109597 0.805956 0.740241 -0.915364
C40   C     C_3   0.497715 0.241183 0.184319 -0.368204
C41   C     C_3   0.498303 0.130880 0.114463 -0.944106
C42   C     C_3   0.502313 0.758816 0.815680 -0.368202
C43   C     C_3   0.501730 0.869120 0.885535 -0.944121
C44   C     C_R   0.504437 0.652032 0.978390 -0.195495
C45   C     C_R   0.495654 0.347967 0.021610 -0.195501
C46   C     C_R   0.500618 0.649430 0.870048 0.154990
C47   C     C_R   0.499440 0.350569 0.129951 0.154961
C48   C     C_R   0.492654 0.443112 0.865735 -0.296325
H1    H     H_    0.508969 0.730914 0.025516 0.152146
H2    H     H_    0.862518 0.129840 0.679636 0.266686
H3    H     H_    0.739718 0.138318 0.780260 0.260116
H4    H     H_    0.872570 0.033824 0.780007 0.257429
H5    H     H_    0.681531 0.944976 0.718085 0.217779
H6    H     H_    0.798925 0.939033 0.615959 0.223398
H7    H     H_    0.975148 0.236947 0.235598 0.270769
H8    H     H_    0.921540 0.107247 0.279599 0.258537
H9    H     H_    0.823314 0.187051 0.193474 0.258139
H10   H     H_    0.742432 0.215094 0.378344 0.217236
H11   H     H_    0.783138 0.342225 0.323611 0.200932
H12   H     H_    0.491130 0.269085 0.974485 0.152148
H13   H     H_    0.025096 0.762774 0.764615 0.270741
H14   H     H_    0.078113 0.892591 0.720430 0.258603
H15   H     H_    0.176793 0.813120 0.806469 0.258138
H16   H     H_    0.216944 0.657771 0.676364 0.200925
H17   H     H_    0.257560 0.784960 0.621661 0.217181
H18   H     H_    0.942887 0.103979 0.464792 0.146207
H19   H     H_    0.057126 0.896020 0.535226 0.146191
H20   H     H_    0.201854 0.312584 0.628972 0.154808
H21   H     H_    0.798156 0.687421 0.371044 0.154803
H22   H     H_    0.512678 0.639076 0.176315 0.169861
H23   H     H_    0.882455 0.872801 0.410352 0.151882
H24   H     H_    0.487414 0.360923 0.823685 0.169867
H25   H     H_    0.409729 0.128620 0.067322 0.267055
H26   H     H_    0.584325 0.120793 0.063275 0.266505
H27   H     H_    0.501861 0.058173 0.163343 0.257841
H28   H     H_    0.583954 0.233542 0.233673 0.228436
H29   H     H_    0.410831 0.245931 0.234318 0.214069
H30   H     H_    0.415722 0.879197 0.936742 0.266503
H31   H     H_    0.590319 0.871389 0.932659 0.267060
H32   H     H_    0.498143 0.941827 0.836655 0.257839
H33   H     H_    0.589183 0.754076 0.765665 0.214072
H34   H     H_    0.117555 0.127202 0.589666 0.151902
H35   H     H_    0.416060 0.766450 0.766341 0.228422
H36   H     H_    0.373083 0.183966 0.415550 0.142877
H37   H     H_    0.626918 0.816035 0.584448 0.142882
H38   H     H_    0.673620 0.221762 0.624214 0.164613
H39   H     H_    0.326377 0.778239 0.375789 0.164616
H40   H     H_    0.260241 0.861689 0.219753 0.260116
H41   H     H_    0.137466 0.870167 0.320396 0.266686
H42   H     H_    0.127389 0.966186 0.220028 0.257443
H43   H     H_    0.201071 0.060976 0.384060 0.223406
H44   H     H_    0.318451 0.055023 0.281922 0.217766
N1    N     N_R   0.523130 0.207800 0.519340 -0.127888
N2    N     N_R   0.476870 0.792200 0.480660 -0.127884
O1    O     O_R   0.506170 0.421700 0.658830 -0.620636
O2    O     O_R   0.493830 0.578300 0.341170 -0.620629
O3    O     O_R   0.491330 0.609310 0.646410 -0.645712
O4    O     O_R   0.508670 0.390690 0.353590 -0.645708
O5    O     O_R   0.690650 0.406190 0.506220 -0.621952
O6    O     O_R   0.309350 0.593810 0.493780 -0.621953
O7    O     O_R   0.675800 0.593810 0.493800 -0.609556
O8    O     O_R   0.324200 0.406190 0.506200 -0.609551
Zn1   Zn    Zn3+2 0.509910 0.374730 0.508290 0.911656
Zn2   Zn    Zn3+2 0.490090 0.625270 0.491710 0.911659

loop_
_geom_bond_atom_site_label_1
_geom_bond_atom_site_label_2
_ccdc_geom_bond_type
C44   H1    S    
C40   C47   S    
O5    Zn1   S    
C45   H12   S    
C20   H34   S    
C15   O6    A    
C36   H11   S    
N1    Zn1   S    
C14   O5    A    
C43   H30   S    
C12   C23   S    
C21   H23   S    
C36   C37   S    
C19   C21   A    
C24   C26   A    
C36   H10   S    
C38   C39   S    
C43   H31   S    
O4    Zn1   S    
C32   H40   S    
C3    C48   A    
O6    Zn2   S    
C18   C20   A    
C42   C46   S    
C39   H14   S    
C9    H37   S    
C41   H26   S    
C37   H8    S    
C32   H42   S    
C32   H41   S    
O1    Zn1   S    
C22   C25   A    
C1    C34   S    
C19   H19   S    
C34   C46   A    
C5    C13   A    
C16   C27   A    
N2    Zn2   S    
C27   C30   A    
C33   H5    S    
C42   H33   S    
C48   H24   S    
C44   C46   A    
C24   H21   S    
C15   C29   S    
C38   H16   S    
C45   C47   A    
C25   C29   A    
C39   H13   S    
C7    H39   S    
C23   C47   A    
C8    N1    A    
C1    O3    A    
C6    C11   A    
C5    C7    A    
C17   C19   A    
C14   O7    A    
C6    C8    A    
C4    C44   A    
C10   N1    A    
C43   H32   S    
C14   C30   S    
C3    C45   A    
C40   H28   S    
C2    C4    A    
C41   H27   S    
C31   C32   S    
C38   H17   S    
C1    O1    A    
C35   H2    S    
C9    C11   A    
C22   H20   S    
C40   C41   S    
C20   C22   A    
C26   C30   A    
O7    Zn2   S    
C31   H43   S    
O2    Zn2   S    
C35   H3    S    
C34   C48   A    
C42   C43   S    
C3    C4    A    
C35   H4    S    
C33   H6    S    
C7    N2    A    
C18   H18   S    
C28   C29   A    
C17   C28   A    
C12   O4    A    
C42   H35   S    
C10   C13   A    
C25   C27   A    
C39   H15   S    
C26   C28   A    
C6    C33   S    
C16   C36   S    
C11   C13   A    
C10   H36   S    
C33   C35   S    
C8    H38   S    
C17   C38   S    
C15   O8    A    
O8    Zn1   S    
O3    Zn2   S    
C41   H25   S    
C37   H7    S    
C16   C18   A    
C31   H44   S    
C21   C24   A    
C2    C23   A    
C40   H29   S    
C12   O2    A    
C2    H22   S    
C9    N2    A    
C37   H9    S    
C5    C31   S    
