data_mof_unit_50221.cif
_audit_creation_date              2013-03-05T15:42:08-0500
_audit_creation_method            fapswitch 2.2
_symmetry_space_group_name_H-M    P1
_symmetry_Int_Tables_number       1
_space_group_crystal_system       triclinic
_cell_length_a                    22.105462
_cell_length_b                    7.225225
_cell_length_c                    14.891906
_cell_angle_alpha                 89.805698
_cell_angle_beta                  107.34835
_cell_angle_gamma                 89.915906
_cell_volume                      2270.27025068

loop_
_atom_site_label
_atom_site_type_symbol
_atom_site_description
_atom_site_fract_x
_atom_site_fract_y
_atom_site_fract_z
_atom_type_partial_charge
O1    O     O_R   0.584770 0.505770 0.002090 -0.537603
O2    O     O_R   0.415230 0.005770 0.997910 -0.532155
O3    O     O_R   0.467060 0.173340 0.861950 -0.555299
O4    O     O_R   0.532940 0.673340 0.138050 -0.563430
C1    C     C_R   0.455432 0.345406 0.825661 0.880522
C2    C     C_R   0.544102 0.844560 0.174260 0.884570
O5    O     O_R   0.587510 0.175890 0.993210 -0.581243
O6    O     O_R   0.412490 0.675890 0.006790 -0.583627
O7    O     O_R   0.536540 0.008150 0.130100 -0.538823
O8    O     O_R   0.463460 0.508150 0.869900 -0.551033
C3    C     C_R   0.612931 0.343335 0.998994 0.871093
C4    C     C_R   0.387053 0.843558 0.000879 0.872172
O9    O     O_3   0.483140 0.340040 0.044760 -0.283420
O10   O     O_3   0.516860 0.840040 0.955240 -0.284813
V1    V     V_3+5 0.503130 0.064190 0.991700 1.201679
V2    V     V_3+5 0.496870 0.564190 0.008300 1.194697
C5    C     C_2   0.215120 0.732289 0.001985 0.251427
C6    C     C_2   0.785574 0.231530 0.000000 0.250739
C7    C     C_2   0.182095 0.890158 0.005348 0.086547
C8    C     C_2   0.818040 0.389851 0.995347 0.092092
C9    C     C_2   0.285693 0.725837 0.024886 0.113514
C10   C     C_2   0.715033 0.223361 0.977638 0.110567
C11   C     C_2   0.318173 0.850124 0.988254 -0.170617
C12   C     C_2   0.681842 0.349659 0.011754 -0.173093
H1    H     H_    0.292757 0.958008 0.941589 0.099065
H2    H     H_    0.706658 0.459868 0.056552 0.103770
C13   C     C_R   0.925371 0.883534 0.722569 -0.147174
C14   C     C_R   0.074650 0.381669 0.277542 -0.149703
C15   C     C_R   0.570886 0.857743 0.276629 -0.165504
C16   C     C_R   0.428879 0.364811 0.723151 -0.158958
C17   C     C_R   0.929519 0.766719 0.571475 0.427256
C18   C     C_R   0.067448 0.275558 0.428650 0.432614
C19   C     C_R   0.956857 0.787287 0.668668 -0.142466
C20   C     C_R   0.039435 0.309682 0.332816 -0.122797
C21   C     C_R   0.863114 0.947837 0.680348 0.102469
C22   C     C_R   0.139882 0.415650 0.317835 0.077557
C23   C     C_R   0.830933 0.900043 0.585593 -0.006236
C24   C     C_R   0.167769 0.406978 0.417736 -0.000214
C25   C     C_R   0.867549 0.837196 0.528071 -0.033788
C26   C     C_R   0.130411 0.336741 0.473493 -0.036491
C27   C     C_R   0.763736 0.909771 0.545981 0.013798
C28   C     C_R   0.232458 0.455496 0.463493 0.025039
C29   C     C_R   0.736100 0.900097 0.446379 0.038462
C30   C     C_R   0.261555 0.404641 0.559335 0.031852
C31   C     C_R   0.777623 0.903959 0.389602 0.078314
C32   C     C_R   0.221286 0.366307 0.615493 0.071914
C33   C     C_R   0.842271 0.858195 0.429518 0.167830
C34   C     C_R   0.156010 0.334943 0.572761 0.164986
C35   C     C_R   0.723372 0.913411 0.603682 -0.031343
C36   C     C_R   0.268242 0.563813 0.418809 -0.024948
C37   C     C_R   0.658167 0.923931 0.565714 -0.048130
C38   C     C_R   0.332838 0.588326 0.458527 -0.070890
C39   C     C_R   0.630169 0.912997 0.468932 -0.012120
C40   C     C_R   0.364174 0.508888 0.545181 -0.006634
C41   C     C_R   0.668327 0.890949 0.408317 0.075963
C42   C     C_R   0.329345 0.414167 0.596897 0.080041
C43   C     C_R   0.563887 0.916124 0.433051 -0.091233
C44   C     C_R   0.429949 0.529663 0.581684 -0.097974
C45   C     C_R   0.533319 0.895460 0.336561 0.315338
C46   C     C_R   0.462717 0.462176 0.671203 0.322787
C47   C     C_R   0.636963 0.849141 0.313278 -0.142938
C48   C     C_R   0.363922 0.331638 0.683377 -0.148183
H3    H     H_    0.662500 0.804759 0.265839 0.105014
H4    H     H_    0.341321 0.244433 0.722717 0.110414
H5    H     H_    0.629246 0.931450 0.612993 0.137006
H6    H     H_    0.358459 0.669871 0.420765 0.149086
H7    H     H_    0.003157 0.728075 0.702695 0.127754
H8    H     H_    0.990984 0.266551 0.299466 0.121992
H9    H     H_    0.740919 0.899393 0.679089 0.140438
H10   H     H_    0.246744 0.640598 0.355113 0.121892
H11   H     H_    0.535884 0.937375 0.480796 0.134387
H12   H     H_    0.455702 0.603048 0.541026 0.132881
O11   O     O_R   0.036450 0.233070 0.130130 -0.558979
O12   O     O_R   0.963550 0.733070 0.869870 -0.556460
O13   O     O_R   0.912470 0.560570 0.006790 -0.505001
O14   O     O_R   0.087530 0.060570 0.993210 -0.507939
C49   C     C_R   0.886961 0.392197 0.002369 0.778076
C50   C     C_R   0.113083 0.892130 0.997808 0.775914
O15   O     O_R   0.032920 0.562940 0.138050 -0.557576
O16   O     O_R   0.967080 0.062940 0.861950 -0.565130
O17   O     O_R   0.084790 0.730500 0.002090 -0.533217
O18   O     O_R   0.915210 0.230500 0.997910 -0.533959
C51   C     C_R   0.045281 0.393713 0.174877 0.828676
C52   C     C_R   0.954649 0.894574 0.825108 0.835418
O19   O     O_3   0.016820 0.396170 0.955260 -0.256529
O20   O     O_3   0.983180 0.896170 0.044740 -0.253121
V3    V     V_3+5 0.996880 0.672090 0.008300 1.268752
V4    V     V_3+5 0.003120 0.172090 0.991700 1.261458
N1    N     N_R   0.182757 0.559364 0.981162 0.119691
O21   O     O_R   0.177718 0.454596 0.049653 -0.293843
O22   O     O_R   0.149416 0.522765 0.895161 -0.353388
N2    N     N_R   0.818582 0.059037 0.021596 0.118745
O23   O     O_R   0.823826 0.953946 0.953629 -0.291896
O24   O     O_R   0.851563 0.021905 0.107887 -0.353591
N3    N     N_3   0.834800 0.074649 0.730124 -0.488496
H13   H     H_    0.862783 0.193657 0.745482 0.203670
H14   H     H_    0.834127 0.013110 0.793278 0.219170
N4    N     N_3   0.178564 0.434839 0.256272 -0.470082
H15   H     H_    0.162745 0.549771 0.212691 0.203432
H16   H     H_    0.173514 0.316113 0.214746 0.240174
N5    N     N_3   0.755916 0.970730 0.294372 -0.509209
H17   H     H_    0.765465 0.871436 0.249490 0.203126
H18   H     H_    0.780343 0.092116 0.289171 0.201985
N6    N     N_3   0.244702 0.384346 0.715997 -0.508656
H19   H     H_    0.235598 0.262350 0.747574 0.199483
H20   H     H_    0.221684 0.494727 0.737295 0.210194
N7    N     N_R   0.214430 0.063884 0.022031 0.085028
O25   O     O_R   0.210121 0.175154 0.951603 -0.314894
O26   O     O_R   0.253031 0.101904 0.104608 -0.314671
N8    N     N_R   0.785289 0.563353 0.977937 0.085648
O27   O     O_R   0.789302 0.674632 0.047884 -0.315347
O28   O     O_R   0.747141 0.602112 0.894928 -0.316090
N9    N     N_3   0.317251 0.576355 0.084696 -0.402582
H21   H     H_    0.334295 0.481736 0.045098 0.235423
H22   H     H_    0.354834 0.628917 0.139153 0.225351
N10   N     N_3   0.684424 0.068990 0.921739 -0.403375
H23   H     H_    0.667951 0.977729 0.963712 0.233662
H24   H     H_    0.646621 0.116639 0.865845 0.230929
N11   N     N_3   0.883426 0.850012 0.370948 -0.397663
H25   H     H_    0.882984 0.977914 0.337842 0.226080
H26   H     H_    0.866301 0.749681 0.319220 0.215616
N12   N     N_3   0.114749 0.312859 0.630612 -0.402551
H27   H     H_    0.116307 0.432408 0.670508 0.224107
H28   H     H_    0.130233 0.200382 0.676030 0.212118
N13   N     N_R   0.465008 0.909565 0.302425 0.083302
O29   O     O_R   0.435579 0.940542 0.214125 -0.374818
O30   O     O_R   0.431738 0.905450 0.361266 -0.376835
N14   N     N_R   0.529809 0.495676 0.708759 0.093328
O31   O     O_R   0.565876 0.382761 0.769985 -0.389863
O32   O     O_R   0.556190 0.630206 0.675807 -0.359130
N15   N     N_R   0.961807 0.654224 0.520693 0.122336
O33   O     O_R   0.023417 0.648685 0.546150 -0.324352
O34   O     O_R   0.930330 0.530094 0.462253 -0.336870
N16   N     N_R   0.034229 0.158612 0.476256 0.115371
O35   O     O_R   0.973128 0.172933 0.458148 -0.320310
O36   O     O_R   0.062639 0.013421 0.521686 -0.336496

loop_
_geom_bond_atom_site_label_1
_geom_bond_atom_site_label_2
_geom_bond_distance
_ccdc_geom_bond_type
O15   C51   1.332496 A    
N5    H17   1.045435 S    
N7    O26   1.301156 A    
N3    H13   1.045381 S    
O1    C3    1.335062 A    
O16   C52   1.331152 A    
O2    C4    1.334817 A    
N14   O31   1.300802 A    
C2    O7    1.336441 A    
N6    H20   1.045135 S    
C38   H6    1.082969 S    
N15   O34   1.300735 A    
C13   C19   1.395665 A    
O5    C3    1.326922 A    
C4    C11   1.478194 S    
C8    C49   1.495796 S    
O14   C50   1.333878 A    
C10   C12   1.361106 D    
C13   C52   1.472600 S    
C21   C23   1.421923 A    
C12   H2    1.080133 S    
C24   C28   1.433204 A    
C16   C48   1.401746 A    
C34   N12   1.437937 S    
C43   C45   1.402256 A    
C44   C46   1.399389 A    
C3    C12   1.478617 S    
N10   H23   1.044854 S    
C37   H5    1.084421 S    
C31   C33   1.412663 A    
C27   C35   1.411560 A    
C47   H3    1.076753 S    
N8    O27   1.300043 A    
C17   N15   1.437465 S    
C15   C45   1.415420 A    
C30   C32   1.418311 A    
C10   N10   1.437856 S    
C35   C37   1.384354 A    
C16   C46   1.412727 A    
C36   C38   1.384906 A    
N7    O25   1.299953 A    
C17   C19   1.400816 A    
O12   V3    2.018363 S    
N1    O22   1.301274 A    
O14   V4    2.025303 S    
C48   H4    1.078323 S    
C39   C41   1.416449 A    
C14   C20   1.390852 A    
O6    V2    2.025214 S    
C24   C26   1.426963 A    
C35   H9    1.077543 S    
O16   V4    2.020963 S    
C14   C51   1.474285 S    
C27   C29   1.427796 A    
C28   C30   1.426221 A    
O15   V3    2.014929 S    
N6    H19   1.045341 S    
C38   C40   1.391127 A    
C15   C47   1.399780 A    
N11   H26   1.045415 S    
C40   C42   1.416278 A    
C46   N14   1.441635 S    
C5    N1    1.428968 S    
O4    C2    1.344677 A    
C20   H8    1.084303 S    
C39   C43   1.402061 A    
O20   V3    1.763513 S    
N16   O36   1.300945 A    
C13   C21   1.408991 A    
C32   N6    1.436846 S    
C5    C9    1.494860 S    
C37   C39   1.391231 A    
C18   C20   1.396830 A    
O4    V2    2.021037 S    
C7    C50   1.495951 S    
O11   V4    2.021886 S    
C29   C31   1.421599 A    
C30   C42   1.436624 A    
O6    C4    1.326372 A    
C2    C15   1.465090 S    
N2    O24   1.301240 A    
O1    V2    2.016745 S    
C43   H11   1.084092 S    
N13   O30   1.301446 A    
O2    V1    2.017809 S    
O13   C49   1.335172 A    
O17   V3    2.018008 S    
C31   N5    1.436323 S    
C28   C36   1.411806 A    
C8    N8    1.430396 S    
C9    N9    1.437773 S    
N4    H16   1.045680 S    
C9    C11   1.360751 D    
N13   O29   1.299938 A    
C42   C48   1.415900 A    
N12   H28   1.045205 S    
N15   O33   1.300764 A    
O3    V1    2.015000 S    
C33   N11   1.437122 S    
C19   H7    1.084113 S    
C25   C33   1.413645 A    
N9    H21   1.044764 S    
C40   C44   1.400701 A    
O19   V4    1.760948 S    
O13   V3    2.027544 S    
C26   C34   1.416583 A    
C6    C10   1.495551 S    
O12   C52   1.326858 A    
O3    C1    1.347356 A    
N14   O32   1.301835 A    
N11   H25   1.044582 S    
N3    H14   1.043050 S    
N12   H27   1.044814 S    
N16   O35   1.299951 A    
C29   C41   1.436748 A    
C21   N3    1.435382 S    
C45   N13   1.445849 S    
C6    N2    1.429597 S    
C22   C24   1.431626 A    
C36   H10   1.077128 S    
C1    O8    1.335778 A    
C23   C25   1.417820 A    
O8    V2    2.013964 S    
C18   N16   1.436677 S    
C50   O17   1.335829 A    
C44   H12   1.084472 S    
C49   O18   1.335060 A    
O18   V4    2.016946 S    
C41   C47   1.411866 A    
O5    V1    2.027451 S    
N2    O23   1.299752 A    
C5    C7    1.362446 D    
N10   H24   1.045029 S    
C6    C8    1.363790 D    
C18   C26   1.424093 A    
C23   C27   1.426972 A    
N8    O28   1.301140 A    
C32   C34   1.411657 A    
C11   H1    1.080915 S    
C14   C22   1.409135 A    
N5    H18   1.045295 S    
N4    H15   1.045571 S    
C1    C16   1.469202 S    
O9    V2    1.761694 S    
C17   C25   1.421736 A    
O10   V1    1.764258 S    
C22   N4    1.434539 S    
N1    O21   1.299419 A    
O11   C51   1.325769 A    
O7    V1    2.010717 S    
N9    H22   1.045634 S    
C7    N7    1.430748 S    
