data_mof_unit_18161.cif
_audit_creation_date              2012-12-11T14:29:58-0500
_audit_creation_method            fapswitch 2.2
_symmetry_space_group_name_H-M    P1
_symmetry_Int_Tables_number       1
_space_group_crystal_system       triclinic
_cell_length_a                    12.985852
_cell_length_b                    12.98823
_cell_length_c                    26.974008
_cell_angle_alpha                 89.861263
_cell_angle_beta                  90.241361
_cell_angle_gamma                 120.138214
_cell_volume                      3934.46882651

loop_
_atom_site_label
_atom_site_type_symbol
_atom_type_description
_atom_site_fract_x
_atom_site_fract_y
_atom_site_fract_z
_atom_type_partial_charge
Br1   Br    Br    0.803751 0.156643 0.083127 -0.394911
Br2   Br    Br    0.287733 0.157990 0.955992 -0.362282
Br3   Br    Br    0.833613 0.128406 0.542400 -0.348770
Br4   Br    Br    0.876860 0.723432 0.955661 -0.305395
Br5   Br    Br    0.349301 0.193660 0.418913 -0.446653
Br6   Br    Br    0.854957 0.684642 0.078196 -0.451496
Br7   Br    Br    0.810663 0.153379 0.420505 -0.453081
Br8   Br    Br    0.331662 0.177852 0.078254 -0.466410
Br9   Br    Br    0.847206 0.660815 0.421247 -0.449300
Br10  Br    Br    0.301423 0.173837 0.540096 -0.448284
Br11  Br    Br    0.838696 0.131782 0.962596 -0.327272
Br12  Br    Br    0.873040 0.709679 0.543111 -0.331501
C1    C     C_R   0.561492 0.455202 0.822498 0.530222
C2    C     C_R   0.455472 0.558415 0.178223 0.527506
C3    C     C_R   0.884618 0.292956 0.462150 0.186404
C4    C     C_R   0.401171 0.108191 0.036943 0.189108
C5    C     C_R   0.707913 0.596457 0.462798 0.182599
C6    C     C_R   0.408167 0.128289 0.512591 0.204947
C7    C     C_R   0.865991 0.279891 0.989198 0.178453
C8    C     C_R   0.721818 0.599995 0.514279 0.197678
C9    C     C_R   0.398414 0.118892 0.985466 0.195505
C10   C     C_R   0.874065 0.279237 0.513627 0.202913
C11   C     C_R   0.726853 0.614145 0.985335 0.198974
C12   C     C_2   0.144935 0.843596 0.036219 0.626125
C13   C     C_R   0.439832 0.893709 0.322325 0.527335
C14   C     C_2   0.695128 0.852466 0.464623 0.618459
C15   C     C_2   0.161663 0.317372 0.037385 0.637345
C16   C     C_2   0.150862 0.844305 0.464084 0.620668
C17   C     C_2   0.703680 0.864085 0.037221 0.623324
C18   C     C_2   0.157454 0.310054 0.465618 0.616422
C19   C     C_2   0.618409 0.812624 0.573387 0.578710
C20   C     C_2   0.188503 0.804975 0.929932 0.588170
C21   C     C_2   0.197423 0.401698 0.571760 0.597806
C22   C     C_2   0.624925 0.817400 0.928342 0.575687
C23   C     C_2   0.188882 0.807740 0.571679 0.596368
C24   C     C_R   0.102885 0.545166 0.178371 0.526715
C25   C     C_2   0.192763 0.369494 0.930262 0.569765
C26   C     C_R   0.976608 0.494192 0.976842 0.002893
C27   C     C_R   0.506856 0.012559 0.524878 0.020104
C28   C     C_R   0.511257 0.499889 0.975199 0.012828
C29   C     C_R   0.986298 0.494515 0.524870 0.015307
C30   C     C_R   0.505815 0.011380 0.974882 0.022145
C31   C     C_R   0.506806 0.497997 0.525446 0.023854
C32   C     C_R   0.501294 0.992162 0.473661 0.004309
C33   C     C_R   0.895130 0.439726 0.677874 0.531886
C34   C     C_R   0.992013 0.509838 0.028417 0.003658
C35   C     C_R   0.492218 0.503487 0.474170 0.006948
C36   C     C_R   0.499181 0.990504 0.026070 0.001789
C37   C     C_R   0.007115 0.508841 0.473646 0.004932
C38   C     C_R   0.498021 0.503875 0.026714 0.007981
C39   C     C_R   0.112324 0.706678 0.963999 0.078123
C40   C     C_R   0.590634 0.882814 0.537959 0.072625
C41   C     C_R   0.295785 0.402809 0.963842 0.069268
C42   C     C_R   0.116587 0.708302 0.537300 0.082329
C43   C     C_R   0.595446 0.886817 0.963103 0.072200
C44   C     C_R   0.544481 0.104849 0.822125 0.532130
C45   C     C_R   0.293754 0.416727 0.537845 0.019163
C46   C     C_R   0.601681 0.876160 0.485679 0.014296
C47   C     C_R   0.117982 0.724927 0.016057 0.016381
C48   C     C_R   0.275763 0.403979 0.485730 0.023460
C49   C     C_R   0.606111 0.880822 0.015446 0.009030
C50   C     C_R   0.123487 0.725662 0.485070 0.019068
C51   C     C_R   0.281630 0.391169 0.015888 -0.013361
C52   C     C_R   0.010645 0.575166 0.892861 -0.079995
C53   C     C_R   0.561775 0.985899 0.608572 -0.047379
C54   C     C_R   0.425534 0.432851 0.892684 -0.072410
C55   C     C_R   0.560304 0.455599 0.677898 0.528460
C56   C     C_R   0.012947 0.577236 0.608251 -0.054292
C57   C     C_R   0.565265 0.988097 0.891869 -0.054964
C58   C     C_R   0.423754 0.440158 0.608580 -0.088995
C59   C     C_R   0.520011 0.886873 0.404164 -0.071116
C60   C     C_R   0.103462 0.632586 0.097507 -0.079943
C61   C     C_R   0.367176 0.479880 0.403927 -0.071844
C62   C     C_R   0.521557 0.888518 0.096257 -0.071119
C63   C     C_R   0.111422 0.633133 0.403790 -0.071785
C64   C     C_R   0.372769 0.450800 0.099329 -0.104051
C65   C     C_R   0.048721 0.534516 0.129471 -0.002909
C66   C     C_R   0.894061 0.438806 0.822591 0.528915
C67   C     C_R   0.474834 0.940183 0.372452 0.002577
C68   C     C_R   0.472218 0.520110 0.129083 -0.010300
C69   C     C_R   0.059679 0.533853 0.372466 0.000512
C70   C     C_R   0.473404 0.939502 0.127382 0.001877
C71   C     C_R   0.466190 0.526281 0.372627 0.002802
C72   C     C_R   0.526145 0.063517 0.626489 0.003200
C73   C     C_R   0.933549 0.461571 0.874481 -0.026947
C74   C     C_R   0.536874 0.473483 0.626623 -0.023225
C75   C     C_R   0.526770 0.063226 0.873394 0.000763
C76   C     C_R   0.936067 0.463549 0.626506 0.009883
C77   C     C_R   0.544227 0.104939 0.677834 0.531321
C78   C     C_R   0.539147 0.473843 0.873889 -0.032414
C79   C     C_R   0.035570 0.592493 0.944283 0.025879
C80   C     C_R   0.550599 0.957490 0.557413 0.052321
C81   C     C_R   0.410232 0.447414 0.943547 0.051125
C82   C     C_R   0.040726 0.593990 0.557090 0.046666
C83   C     C_R   0.553469 0.959458 0.943001 0.052045
C84   C     C_R   0.407660 0.453811 0.557627 0.043289
C85   C     C_R   0.542369 0.918354 0.454330 0.008861
C86   C     C_R   0.069955 0.623977 0.047634 0.001761
C87   C     C_R   0.376987 0.460614 0.454378 0.017195
C88   C     C_R   0.454217 0.560322 0.322349 0.527924
C89   C     C_R   0.543514 0.919821 0.046097 0.006040
C90   C     C_R   0.080330 0.623938 0.453940 0.008017
C91   C     C_R   0.383001 0.447685 0.047424 -0.010605
C92   C     C_R   0.886553 0.363814 0.906671 -0.098426
C93   C     C_R   0.475331 0.110057 0.594324 -0.097792
C94   C     C_R   0.638474 0.534222 0.904944 -0.098753
C95   C     C_R   0.890150 0.365703 0.594674 -0.058874
C96   C     C_R   0.472596 0.106812 0.904920 -0.100239
C97   C     C_R   0.635029 0.526306 0.595003 -0.091869
C98   C     C_R   0.446649 0.022620 0.390739 -0.079105
C99   C     C_R   0.439352 0.893407 0.177597 0.529850
C100  C     C_R   0.956442 0.426661 0.112106 -0.044090
C101  C     C_R   0.577624 0.557477 0.391541 -0.074508
C102  C     C_R   0.441415 0.018805 0.108373 -0.075816
C103  C     C_R   0.978536 0.422604 0.391160 -0.078668
C104  C     C_R   0.585518 0.570122 0.108665 -0.078339
C105  C     C_R   0.908527 0.378693 0.957542 -0.006912
C106  C     C_R   0.463434 0.084152 0.543952 0.006966
C107  C     C_R   0.626163 0.550151 0.955079 -0.005716
C108  C     C_R   0.916121 0.379318 0.544382 0.009315
C109  C     C_R   0.459100 0.079706 0.955095 0.000408
C110  C     C_R   0.106418 0.545871 0.322365 0.525975
C111  C     C_R   0.621791 0.541650 0.544942 -0.001032
C112  C     C_R   0.455431 0.046745 0.441537 0.001710
C113  C     C_R   0.932842 0.410364 0.060823 0.035702
C114  C     C_R   0.593105 0.550278 0.442501 0.001751
C115  C     C_R   0.449333 0.041832 0.057461 0.000200
C116  C     C_R   0.953966 0.407631 0.441960 0.003474
C117  C     C_R   0.600152 0.560359 0.057773 -0.002471
C118  C     C_R   0.868994 0.294844 0.040738 0.212262
C119  C     C_R   0.411812 0.117549 0.461201 0.195738
C120  C     C_R   0.714585 0.613055 0.036901 0.179233
Cr1   Cr    Cr6+3 0.487630 0.241180 0.750000 1.061353
Cr2   Cr    Cr6+3 0.753550 0.512370 0.750000 1.072674
Cr3   Cr    Cr6+3 0.758820 0.246450 0.750000 1.077845
Cr4   Cr    Cr6+3 0.241180 0.487630 0.250000 1.084898
Cr5   Cr    Cr6+3 0.512370 0.753550 0.250000 1.088609
Cr6   Cr    Cr6+3 0.246450 0.758820 0.250000 1.086364
H1    H     H_    0.181272 0.712326 0.110656 0.177175
H2    H     H_    0.607000 0.955750 0.866494 0.153006
H3    H     H_    0.047915 0.651455 0.633812 0.153736
H4    H     H_    0.350207 0.386556 0.867878 0.165832
H5    H     H_    0.915830 0.353235 0.137929 0.184241
H6    H     H_    0.410237 0.060568 0.365265 0.183932
H7    H     H_    0.661252 0.621523 0.132613 0.192003
H8    H     H_    0.941816 0.347660 0.366045 0.185471
H9    H     H_    0.402848 0.055006 0.133386 0.186872
H10   H     H_    0.652358 0.594829 0.366397 0.184984
H11   H     H_    0.450585 0.172356 0.608697 0.169085
H12   H     H_    0.527083 0.812878 0.390157 0.174466
H13   H     H_    0.826725 0.275851 0.892026 0.174601
H14   H     H_    0.722224 0.550499 0.609472 0.174837
H15   H     H_    0.445943 0.167615 0.890255 0.168262
H16   H     H_    0.828376 0.278295 0.609213 0.170522
H17   H     H_    0.726191 0.563886 0.890001 0.182576
H18   H     H_    0.152123 0.940980 0.095955 0.393950
H19   H     H_    0.783437 0.843793 0.404566 0.386709
H20   H     H_    0.169706 0.455762 0.073049 0.269465
H21   H     H_    0.157723 0.942646 0.404544 0.385742
H22   H     H_    0.796429 0.865783 0.098050 0.392152
H23   H     H_    0.287326 0.405450 0.117214 0.192104
H24   H     H_    0.058768 0.213434 0.407002 0.388257
H25   H     H_    0.553881 0.691246 0.628082 0.344408
H26   H     H_    0.204904 0.935045 0.884064 0.358809
H27   H     H_    0.137482 0.227713 0.585512 0.376227
H28   H     H_    0.561385 0.694004 0.874410 0.346378
H29   H     H_    0.200628 0.939820 0.614773 0.358057
H30   H     H_    0.126724 0.418597 0.873009 0.348836
H31   H     H_    0.184096 0.715239 0.389551 0.174373
H32   H     H_    0.532039 0.816670 0.110679 0.178051
H33   H     H_    0.284872 0.469457 0.389367 0.174251
H34   H     H_    0.601034 0.951480 0.634460 0.153475
H35   H     H_    0.047847 0.649109 0.867112 0.160568
H36   H     H_    0.349345 0.401027 0.633981 0.153964
O1    O     O_R   0.460870 0.120930 0.805240 -0.501715
O2    O     O_R   0.120930 0.460870 0.194760 -0.484252
O3    O     O_R   0.539130 0.660060 0.305240 -0.497025
O4    O     O_R   0.339940 0.879070 0.194760 -0.495478
O5    O     O_R   0.498910 0.350470 0.801870 -0.497287
O6    O     O_R   0.851560 0.501090 0.698130 -0.502653
O7    O     O_R   0.649530 0.148440 0.801870 -0.499114
O8    O     O_R   0.498910 0.350470 0.698130 -0.496213
O9    O     O_R   0.851560 0.501090 0.801870 -0.493658
O10   O     O_R   0.649530 0.148440 0.698130 -0.499360
O11   O     O_R   0.350470 0.498910 0.301870 -0.487020
O12   O     O_R   0.660060 0.539130 0.694760 -0.496726
O13   O     O_R   0.501090 0.851560 0.198130 -0.485332
O14   O     O_R   0.148440 0.649530 0.301870 -0.487150
O15   O     O_R   0.350470 0.498910 0.198130 -0.496132
O16   O     O_R   0.501090 0.851560 0.301870 -0.485464
O17   O     O_R   0.148440 0.649530 0.198130 -0.489206
O18   O     O_3   0.666667 0.333333 0.750000 -0.283803
O19   O     O_3   0.333333 0.666667 0.250000 -0.296745
O20   O     O_2   0.147479 0.918674 0.008246 -0.356111
O21   O     O_R   0.151652 0.865046 0.087212 -0.683007
O22   O     O_2   0.768008 0.848736 0.491980 -0.368515
O23   O     O_R   0.879070 0.339940 0.805240 -0.497208
O24   O     O_R   0.710561 0.849053 0.413518 -0.682839
O25   O     O_2   0.102620 0.211602 0.027453 -0.271251
O26   O     O_R   0.117810 0.366022 0.071023 -0.685003
O27   O     O_2   0.165917 0.924580 0.491851 -0.386013
O28   O     O_R   0.145759 0.861394 0.413138 -0.674473
O29   O     O_2   0.779423 0.865249 0.010354 -0.354157
O30   O     O_R   0.719428 0.862607 0.088463 -0.680376
O31   O     O_2   0.079034 0.244668 0.494086 -0.416917
O32   O     O_R   0.139029 0.285343 0.414897 -0.670558
O33   O     O_2   0.721409 0.844501 0.584650 -0.385256
O34   O     O_R   0.460870 0.120930 0.694760 -0.500564
O35   O     O_R   0.524760 0.720246 0.599344 -0.687939
O36   O     O_2   0.285692 0.819487 0.918417 -0.520536
O37   O     O_R   0.145856 0.874059 0.908104 -0.575670
O38   O     O_2   0.190874 0.489205 0.582578 -0.466449
O39   O     O_R   0.120544 0.293168 0.594649 -0.598263
O40   O     O_2   0.728167 0.852013 0.916867 -0.383452
O41   O     O_R   0.531954 0.722236 0.903113 -0.683970
O42   O     O_2   0.285262 0.823621 0.585687 -0.514282
O43   O     O_R   0.143541 0.876880 0.590747 -0.579675
O44   O     O_2   0.106867 0.268828 0.930683 -0.383244
O45   O     O_R   0.660060 0.539130 0.805240 -0.498317
O46   O     O_R   0.197972 0.453094 0.896130 -0.688053
O47   O     O_R   0.879070 0.339940 0.694760 -0.481282
O48   O     O_R   0.120930 0.460870 0.305240 -0.498275
O49   O     O_R   0.539130 0.660060 0.194760 -0.497576
O50   O     O_R   0.339940 0.879070 0.305240 -0.497865

loop_
_geom_bond_atom_site_label_1
_geom_bond_atom_site_label_2
_ccdc_geom_bond_type
C53   C80   A    
Cr4   O2    S    
C4    C9    A    
C17   O29   D    
C73   C92   A    
Cr4   O11   S    
C24   O17   A    
C71   C101  A    
C34   C113  A    
C49   C89   A    
Cr6   O17   S    
C19   C40   S    
C48   C87   A    
C14   O22   D    
C59   C67   A    
C95   C108  A    
H25   O35   S    
C54   C78   A    
C60   C86   A    
Cr1   O34   S    
C10   C108  A    
C59   C85   A    
C103  H8    S    
Br11  C7    S    
C16   O27   D    
Cr3   O10   S    
C101  H10   S    
C55   O8    A    
C102  H9    S    
C66   O9    A    
Br5   C119  S    
C22   O41   S    
C11   C107  A    
C104  H7    S    
C1    C78   S    
C21   O38   D    
C5    C114  A    
C77   O34   A    
C53   H34   S    
C44   O7    A    
H26   O37   S    
Cr2   O45   S    
C18   O32   S    
C5    C8    A    
C35   C87   A    
C13   O50   A    
H19   O24   S    
C24   C65   S    
Cr2   O18   S    
Cr2   O12   S    
C8    C111  A    
C33   O6    A    
C39   C79   A    
C2    O15   A    
C54   C81   A    
C113  C118  A    
C60   H1    S    
C96   H15   S    
C68   C104  A    
C50   C90   A    
C45   C84   A    
C18   C48   S    
C58   H36   S    
C63   H31   S    
C99   O4    A    
H20   O26   S    
C64   C91   A    
C66   O23   A    
Cr6   O50   S    
C61   H33   S    
C23   O42   D    
C6    C106  A    
C57   C75   A    
C55   O12   A    
H28   O41   S    
C117  C120  A    
C25   C41   S    
C7    C118  A    
Br7   C3    S    
C34   C86   A    
C38   C91   A    
Br8   C4    S    
C17   O30   S    
H24   O32   S    
C23   C42   S    
C26   C105  A    
Br12  C8    S    
C64   H23   S    
C46   C85   A    
C25   O44   D    
C62   C70   A    
C88   O3    A    
C23   O43   S    
C29   C37   A    
C26   C34   A    
C58   C84   A    
C31   C84   A    
C17   C49   S    
C3    C10   A    
Cr3   O47   S    
Cr5   O19   S    
C97   C111  A    
C53   C72   A    
C62   H32   S    
C75   C96   A    
C44   O1    A    
C41   C81   A    
C30   C83   A    
C77   O10   A    
C2    O49   A    
H18   O21   S    
C15   O25   D    
C70   C102  A    
C51   C91   A    
Br1   C118  S    
C22   O40   D    
C45   C48   A    
C37   C90   A    
C76   C95   A    
C21   O39   S    
Cr1   O5    S    
H21   O28   S    
C101  C114  A    
C42   C50   A    
Br6   C120  S    
C57   C83   A    
C1    O5    A    
C18   O31   D    
C26   C79   A    
C32   C112  A    
C56   C82   A    
C103  C116  A    
C112  C119  A    
C59   H12   S    
C65   C100  A    
Cr6   O14   S    
C20   C39   S    
C19   O33   D    
C60   C65   A    
C38   C117  A    
C6    C119  A    
C63   C90   A    
C20   O36   D    
C32   C85   A    
C52   H35   S    
C110  O14   A    
C29   C82   A    
C19   O35   S    
C28   C81   A    
C12   O20   D    
C15   O26   S    
C69   C103  A    
Br2   C9    S    
C72   C93   A    
Cr5   O3    S    
C56   H3    S    
C30   C36   A    
H30   O46   S    
C98   H6    S    
C14   C46   S    
C78   C94   A    
C100  C113  A    
C27   C32   A    
C20   O37   S    
C40   C46   A    
C96   C109  A    
C54   H4    S    
C33   C76   S    
C66   C73   S    
C43   C83   A    
C24   O2    A    
C97   H14   S    
C2    C68   S    
C62   C89   A    
C56   C76   A    
C93   C106  A    
C1    O45   A    
C39   C47   A    
C72   C77   S    
Cr3   O7    S    
C58   C74   A    
C31   C111  A    
C27   C80   A    
C92   H13   S    
C35   C114  A    
C92   C105  A    
Cr6   O19   S    
Br9   C5    S    
C61   C87   A    
C37   C116  A    
C3    C116  A    
C55   C74   S    
C21   C45   S    
C67   C98   A    
C13   C67   S    
C52   C79   A    
C63   C69   A    
C74   C97   A    
C64   C68   A    
C44   C75   S    
Cr3   O23   S    
Cr2   O9    S    
C71   C88   S    
C104  C117  A    
C27   C106  A    
C93   H11   S    
Cr5   O49   S    
C99   O13   A    
C12   O21   S    
C69   C110  S    
C13   O16   A    
C33   O47   A    
C70   C99   S    
C88   O11   A    
H27   O39   S    
C16   O28   S    
Cr4   O19   S    
Cr1   O1    S    
C36   C115  A    
C102  C115  A    
C41   C51   A    
C57   H2    S    
C30   C109  A    
Cr4   O15   S    
C100  H5    S    
Br10  C6    S    
C12   C47   S    
C28   C38   A    
C36   C89   A    
C43   C49   A    
H29   O43   S    
C11   C120  A    
C29   C108  A    
C9    C109  A    
C14   O24   S    
C4    C115  A    
Cr3   O18   S    
C42   C82   A    
C95   H16   S    
C40   C80   A    
Cr5   O16   S    
C94   C107  A    
Cr1   O8    S    
C22   C43   S    
C28   C107  A    
Cr4   O48   S    
C7    C105  A    
C94   H17   S    
C110  O48   A    
C47   C86   A    
C15   C51   S    
Br3   C10   S    
C98   C112  A    
H22   O30   S    
Cr2   O6    S    
Br4   C11   S    
C31   C35   A    
C52   C73   A    
C61   C71   A    
C25   O46   S    
Cr1   O18   S    
C16   C50   S    
Cr5   O13   S    
Cr6   O4    S    
