data_mof_unit_38423.cif
_audit_creation_date              2012-12-11T15:27:01-0500
_audit_creation_method            fapswitch 2.2
_symmetry_space_group_name_H-M    P1
_symmetry_Int_Tables_number       1
_space_group_crystal_system       triclinic
_cell_length_a                    8.231932
_cell_length_b                    14.907849
_cell_length_c                    19.018901
_cell_angle_alpha                 96.426579
_cell_angle_beta                  94.442553
_cell_angle_gamma                 97.836731
_cell_volume                      2287.4649645

loop_
_atom_site_label
_atom_site_type_symbol
_atom_type_description
_atom_site_fract_x
_atom_site_fract_y
_atom_site_fract_z
_atom_type_partial_charge
Ba1   Ba    Ba6+2 0.161750 0.544670 0.467760 1.644508
Ba2   Ba    Ba6+2 0.648430 0.455320 0.532180 1.637815
C1    C     C_3   0.381899 0.786816 0.211123 -0.058302
C2    C     C_3   0.403104 0.750172 0.282750 0.366752
C3    C     C_3   0.560511 0.731983 0.640573 0.319356
C4    C     C_3   0.594638 0.834771 0.661589 -0.375304
C5    C     C_3   0.841715 0.201754 0.675914 0.372572
C6    C     C_3   0.800579 0.104420 0.693132 -0.361518
C7    C     C_3   0.338635 0.229734 0.716812 0.338696
C8    C     C_3   0.242895 0.157524 0.754187 -0.416193
C9    C     C_R   0.642226 0.830485 0.458476 -0.009500
C10   C     C_R   0.887806 0.792929 0.519587 0.069529
C11   C     C_R   0.073471 0.234654 0.519637 -0.290930
C12   C     C_3   0.885058 0.780173 0.241117 0.493392
C13   C     C_R   0.168286 0.172509 0.544880 0.002579
C14   C     C_R   0.105162 0.080073 0.538888 -0.158036
C15   C     C_R   0.945091 0.046914 0.505599 0.008710
C16   C     C_R   0.854121 0.110555 0.474838 -0.021155
C17   C     C_R   0.874726 0.952275 0.499809 0.005444
C18   C     C_R   0.714012 0.923452 0.464056 -0.015268
C19   C     C_R   0.630982 0.987270 0.432966 -0.104762
C20   C     C_R   0.701707 0.077686 0.436334 -0.054803
C21   C     C_R   0.957763 0.885094 0.528669 -0.133535
C22   C     C_R   0.732320 0.766449 0.484044 -0.284684
C23   C     C_3   0.931833 0.813796 0.170586 0.013400
C24   C     C_R   0.919537 0.205373 0.482429 0.032951
C25   C     C_R   0.614402 0.540547 0.300254 -0.269958
C26   C     C_R   0.460478 0.490621 0.276243 0.069995
C27   C     C_R   0.408028 0.477629 0.203347 -0.129192
C28   C     C_R   0.511133 0.512925 0.153991 0.017450
C29   C     C_R   0.669188 0.559537 0.179081 -0.130209
C30   C     C_R   0.720819 0.572441 0.251913 -0.010969
C31   C     C_R   0.492323 0.570146 0.035061 -0.076282
C32   C     C_R   0.436243 0.559618 0.963133 -0.124209
C33   C     C_R   0.348456 0.476436 0.929221 0.033962
C34   C     C_3   0.763249 0.346934 0.315199 0.296804
C35   C     C_R   0.318501 0.402084 0.969491 0.207501
C36   C     C_R   0.369791 0.415546 0.043322 -0.087549
C37   C     C_R   0.456363 0.499321 0.076454 0.035463
C38   C     C_R   0.130312 0.427214 0.824828 -0.132676
C39   C     C_R   0.078994 0.422298 0.752130 -0.003422
C40   C     C_R   0.342107 0.506012 0.732824 0.037843
C41   C     C_R   0.395467 0.509457 0.804789 -0.124964
C42   C     C_R   0.291225 0.469201 0.851778 -0.003560
C43   C     C_R   0.187350 0.459230 0.706441 -0.269461
C44   C     C_3   0.751647 0.325149 0.234731 -0.405200
C45   C     C_3   0.040654 0.650772 0.684487 0.346218
C46   C     C_3   0.045817 0.670300 0.765223 0.219596
C47   C     C_3   0.227242 0.268867 0.368453 0.316124
C48   C     C_3   0.158208 0.170114 0.337915 -0.047961
H1    H     H_    0.307867 0.690522 0.284746 0.110113
H2    H     H_    0.647910 0.269687 0.216211 0.107606
H3    H     H_    0.730845 0.386169 0.209103 0.074564
H4    H     H_    0.868222 0.303224 0.218326 0.121424
H5    H     H_    0.158235 0.630317 0.669560 -0.028869
H6    H     H_    0.939280 0.594045 0.666319 0.007572
H7    H     H_    0.053292 0.606727 0.789992 -0.050209
H8    H     H_    0.929835 0.695120 0.779339 0.087154
H9    H     H_    0.122858 0.303949 0.383342 -0.004447
H10   H     H_    0.313958 0.270224 0.416469 0.035041
H11   H     H_    0.058640 0.143947 0.369221 0.021316
H12   H     H_    0.100874 0.167517 0.282654 0.105800
H13   H     H_    0.526560 0.728419 0.289505 -0.089537
H14   H     H_    0.501067 0.824800 0.200873 0.078599
H15   H     H_    0.677767 0.707691 0.628143 0.004251
H16   H     H_    0.470900 0.717756 0.592513 0.061253
H17   H     H_    0.686723 0.851522 0.708720 0.128955
H18   H     H_    0.643765 0.868907 0.617124 0.052350
H19   H     H_    0.479034 0.860959 0.674448 0.142596
H20   H     H_    0.292420 0.835988 0.214202 0.108226
H21   H     H_    0.768159 0.207942 0.625740 0.095959
H22   H     H_    0.974577 0.214597 0.668126 -0.076013
H23   H     H_    0.666593 0.087779 0.697771 0.157418
H24   H     H_    0.835426 0.055884 0.650239 0.067904
H25   H     H_    0.868961 0.096255 0.744103 0.115168
H26   H     H_    0.251069 0.271532 0.693660 -0.048864
H27   H     H_    0.424810 0.276521 0.756919 0.071346
H28   H     H_    0.158860 0.189259 0.789022 0.084747
H29   H     H_    0.329287 0.124386 0.786911 0.132774
H30   H     H_    0.168568 0.104786 0.714230 0.118403
H31   H     H_    0.677828 0.695503 0.479143 0.070643
H32   H     H_    0.510409 0.968247 0.404579 0.112126
H33   H     H_    0.076202 0.901823 0.558911 0.086957
H34   H     H_    0.124738 0.306130 0.525023 0.073178
H35   H     H_    0.185320 0.036113 0.559801 0.078644
H36   H     H_    0.633152 0.121570 0.408626 0.104423
H37   H     H_    0.517316 0.544644 0.824073 0.076227
H38   H     H_    0.460251 0.617707 0.934042 0.077327
H39   H     H_    0.560049 0.635179 0.058915 0.082476
H40   H     H_    0.763834 0.736922 0.228392 -0.057306
H41   H     H_    0.287933 0.439203 0.185280 0.075960
H42   H     H_    0.348761 0.360161 0.075171 0.057740
H43   H     H_    0.044242 0.400305 0.860179 0.100898
H44   H     H_    0.753922 0.583603 0.142143 0.053011
H45   H     H_    0.147123 0.456794 0.650634 0.062490
H46   H     H_    0.655959 0.549119 0.356302 0.068880
H47   H     H_    0.043717 0.865534 0.178525 0.072313
H48   H     H_    0.961048 0.754391 0.135697 0.052483
H49   H     H_    0.645004 0.365611 0.331111 0.012013
H50   H     H_    0.863376 0.405012 0.331560 0.076901
O1    O     O_2   0.164990 0.721870 0.541490 -0.452319
O2    O     O_3   0.307719 0.311435 0.316314 -0.651427
O3    O     O_3   0.010351 0.732971 0.267344 -0.615723
O4    O     O_2   0.645300 0.278070 0.458480 -0.461587
O5    O     O_3   0.917280 0.391520 0.460790 -0.494453
O6    O     O_3   0.421200 0.332510 0.586090 -0.462787
O7    O     O_3   0.795311 0.269093 0.345280 -0.655550
O8    O     O_3   0.383620 0.545480 0.584560 -0.475666
O9    O     O_3   0.845920 0.377940 0.622610 -0.486864
O10   O     O_2   0.741137 0.430411 0.747611 -0.481134
O11   O     O_3   0.803220 0.262830 0.731871 -0.584681
O12   O     O_3   0.893010 0.608480 0.539150 -0.497617
O13   O     O_3   0.426680 0.454510 0.415380 -0.482180
O14   O     O_2   0.638220 0.542340 0.670930 -0.464169
O15   O     O_3   0.496518 0.690370 0.697224 -0.640947
O16   O     O_2   0.504559 0.173102 0.536237 -0.497959
O17   O     O_3   0.431386 0.186537 0.667515 -0.584479
O18   O     O_3   0.389100 0.667490 0.413860 -0.486604
O19   O     O_2   0.304830 0.827177 0.465418 -0.481256
O20   O     O_3   0.015517 0.730032 0.654776 -0.623824
O21   O     O_3   0.385256 0.820280 0.336024 -0.629835
O22   O     O_2   0.172070 0.457600 0.329050 -0.465366
O23   O     O_3   0.964370 0.622050 0.377340 -0.457498
O24   O     O_2   0.053114 0.562484 0.252317 -0.502740
P1    P     P_3+3 0.990670 0.707470 0.561860 0.994905
P2    P     P_3+3 0.340140 0.430100 0.338890 0.981376
P3    P     P_3+3 0.933253 0.622826 0.285360 0.927938
P4    P     P_3+3 0.819620 0.292520 0.438080 0.961025
P5    P     P_3+3 0.867583 0.374522 0.714592 0.960632
P6    P     P_3+3 0.430188 0.786462 0.419479 0.942400
P7    P     P_3+3 0.463020 0.571922 0.673608 0.944665
P8    P     P_3+3 0.380580 0.214356 0.582436 0.962449
O25   O     O_3   0.179164 0.737384 0.792057 -0.692975
H51   H     H_    0.277438 0.705803 0.796373 0.305546
N1    N     N_2   0.324938 0.714371 0.153548 -0.444839
H52   H     H_    0.224299 0.670196 0.163857 0.225057
C49   C     C_3   0.301324 0.745706 0.084615 -0.257589
H53   H     H_    0.248479 0.687237 0.044315 0.126501
H54   H     H_    0.420535 0.776887 0.068383 0.117788
H55   H     H_    0.215210 0.796899 0.085705 0.108466
N2    N     N_2   0.282787 0.110236 0.340393 -0.436305
H56   H     H_    0.335132 0.105973 0.390722 0.198497
C50   C     C_3   0.396865 0.113924 0.286322 -0.205380
H57   H     H_    0.466488 0.055200 0.286809 0.090946
H58   H     H_    0.485462 0.177982 0.297094 0.149067
H59   H     H_    0.329810 0.109595 0.232790 0.103404
N3    N     N_2   0.798764 0.849373 0.133472 -0.437374
H60   H     H_    0.691921 0.804002 0.120442 0.191346
C51   C     C_3   0.777823 0.943001 0.155195 -0.222906
H61   H     H_    0.692971 0.965584 0.114732 0.103902
H62   H     H_    0.897681 0.988654 0.159635 0.113439
H63   H     H_    0.723708 0.949199 0.206828 0.118713
N4    N     N_2   0.865215 0.856025 0.293293 -0.445247
H64   H     H_    0.777612 0.839208 0.327291 0.156792
C52   C     C_3   0.012914 0.910820 0.329772 -0.156096
H65   H     H_    0.070221 0.872573 0.369470 0.164374
H66   H     H_    0.979840 0.974037 0.357869 0.094159
H67   H     H_    0.103135 0.930876 0.291971 0.126040
N5    N     N_2   0.244705 0.314446 0.934144 -0.434230
H68   H     H_    0.290382 0.296004 0.886539 0.190543
C53   C     C_3   0.202464 0.239259 0.974512 -0.244480
H69   H     H_    0.135077 0.179981 0.938331 0.117362
H70   H     H_    0.120394 0.258505 0.015604 0.114913
H71   H     H_    0.315877 0.218602 0.999462 0.104793

loop_
_geom_bond_atom_site_label_1
_geom_bond_atom_site_label_2
_ccdc_geom_bond_type
C50   H59   S    
Ba2   O9    S    
C36   H42   S    
C52   H66   S    
C7    O17   S    
O14   P7    D    
C17   C18   A    
C16   C24   A    
C27   H41   S    
O21   P6    S    
C41   C42   A    
C53   H69   S    
C8    H28   S    
C46   H7    S    
O15   P7    S    
C1    H14   S    
O6    P8    S    
C49   H54   S    
C11   H34   S    
Ba2   O12   S    
C31   C37   A    
C47   H10   S    
C21   H33   S    
C30   P3    S    
C25   C26   A    
C26   C27   A    
N3    C51   S    
C35   C36   A    
Ba1   P1    S    
O7    P4    S    
C32   C33   A    
C51   H62   S    
Ba1   O12   S    
C5    H21   S    
C3    C4    S    
Ba2   O13   S    
C50   H57   S    
C44   H2    S    
C9    C22   A    
O19   P6    D    
O10   P5    D    
C50   H58   S    
Ba1   Ba2   S    
O17   P8    S    
Ba1   O22   S    
C12   H40   S    
O8    P7    S    
O11   P5    S    
C13   P8    S    
N3    H60   S    
C14   C15   A    
O4    P4    D    
C32   H38   S    
O1    P1    D    
N5    C53   S    
C34   C44   S    
C40   P7    S    
C7    H26   S    
N4    C52   S    
N1    H52   S    
C7    C8    S    
C38   H43   S    
C4    H19   S    
C48   N2    S    
C4    H18   S    
C19   C20   A    
C3    O15   S    
C34   O7    S    
C25   H46   S    
Ba1   O13   S    
C2    O21   S    
C53   H70   S    
C26   P2    S    
C31   C32   A    
C49   H55   S    
C9    C18   A    
C2    H1    S    
C45   C46   S    
C46   O25   S    
C5    C6    S    
C1    H20   S    
Ba1   P2    S    
C3    H15   S    
C51   H63   S    
C47   O2    S    
C8    H30   S    
O20   P1    S    
C7    H27   S    
C10   P1    S    
Ba2   O6    S    
C6    H25   S    
C40   C43   A    
O22   P2    D    
C17   C21   A    
C22   H31   S    
Ba1   O23   S    
C27   C28   A    
O18   P6    S    
C31   H39   S    
O25   H51   S    
O23   P3    S    
N5    H68   S    
O16   P8    D    
Ba2   O4    S    
C28   C29   A    
C44   H4    S    
C6    H24   S    
C15   C16   A    
C23   N3    S    
C24   P4    S    
C19   H32   S    
C45   O20   S    
C33   C42   S    
O12   P1    S    
O24   P3    D    
C23   H47   S    
C38   C39   A    
C11   C13   A    
C12   N4    S    
O9    P5    S    
C14   H35   S    
C48   H12   S    
C11   C24   A    
C40   C41   A    
C1    C2    S    
C43   H45   S    
C9    P6    S    
Ba1   O1    S    
C5    H22   S    
C53   H71   S    
O3    P3    S    
C45   H5    S    
N1    C49   S    
C4    H17   S    
O5    P4    S    
C33   C35   A    
C25   C30   A    
C16   C20   A    
C29   C30   A    
C3    H16   S    
O2    P2    S    
C8    H29   S    
C34   H50   S    
C46   H8    S    
O13   P2    S    
C29   H44   S    
C49   H53   S    
C10   C22   A    
Ba2   O5    S    
C47   H9    S    
C41   H37   S    
C35   N5    S    
N2    C50   S    
N2    H56   S    
C39   P5    S    
Ba2   O14   S    
C12   O3    S    
C36   C37   A    
C2    H13   S    
C44   H3    S    
Ba2   O8    S    
C6    H23   S    
C15   C17   A    
C5    O11   S    
C28   C37   S    
C34   H49   S    
C1    N1    S    
Ba1   O18   S    
C20   H36   S    
C12   C23   S    
Ba1   O8    S    
C10   C21   A    
C23   H48   S    
C38   C42   A    
C18   C19   A    
C47   C48   S    
C52   H65   S    
C48   H11   S    
C39   C43   A    
N4    H64   S    
C51   H61   S    
C13   C14   A    
Ba1   O5    S    
C45   H6    S    
C52   H67   S    
Ba2   P4    S    
