data_mof_unit_40084.cif
_audit_creation_date              2012-12-11T15:49:21-0500
_audit_creation_method            fapswitch 2.2
_symmetry_space_group_name_H-M    P1
_symmetry_Int_Tables_number       1
_space_group_crystal_system       triclinic
_cell_length_a                    8.230653
_cell_length_b                    19.008173
_cell_length_c                    27.037157
_cell_angle_alpha                 94.83685
_cell_angle_beta                  93.066413
_cell_angle_gamma                 85.3059
_cell_volume                      4196.12746964

loop_
_atom_site_label
_atom_site_type_symbol
_atom_type_description
_atom_site_fract_x
_atom_site_fract_y
_atom_site_fract_z
_atom_type_partial_charge
Ba1   Ba    Ba6+2 0.854000 0.466860 0.523710 1.647293
Ba2   Ba    Ba6+2 0.335820 0.533080 0.476290 1.651855
Br1   Br    Br    0.094309 0.833369 0.561416 -0.643340
C1    C     C_3   0.710848 0.204050 0.658092 -0.356972
C2    C     C_R   0.911228 0.571049 0.176705 0.574001
C3    C     C_2   0.757476 0.548918 0.271789 -0.084251
C4    C     C_3   0.131913 0.311774 0.660000 0.335598
C5    C     C_3   0.740768 0.571430 0.326193 -0.047527
C6    C     C_1   0.980607 0.490320 0.343149 0.032861
C7    C     C_2   0.019557 0.486905 0.295536 -0.105244
C8    C     C_2   0.900031 0.515686 0.256298 0.194108
C9    C     C_R   0.016003 0.504977 0.102098 -0.079514
C10   C     C_R   0.043631 0.444765 0.129379 -0.036083
C11   C     C_R   0.110142 0.381654 0.105367 -0.060275
C12   C     C_3   0.670362 0.276318 0.638374 0.354987
C13   C     C_R   0.948914 0.568350 0.126121 -0.024568
C14   C     C_2   0.848693 0.527110 0.360070 -0.293106
C15   C     C_2   0.344179 0.475451 0.640276 -0.287646
C16   C     C_3   0.119222 0.289268 0.712189 -0.318516
C17   C     C_R   0.162648 0.434460 0.975874 0.020056
C18   C     C_R   0.063670 0.560122 0.972582 0.020217
C19   C     C_R   0.132386 0.495771 0.948876 0.049776
C20   C     C_R   0.232144 0.371984 0.950436 -0.101254
C21   C     C_R   0.269658 0.369710 0.900719 -0.059778
C22   C     C_R   0.240152 0.429513 0.873670 -0.024861
C23   C     C_3   0.520990 0.628966 0.625782 0.295447
C24   C     C_R   0.171488 0.492677 0.897567 -0.079493
C25   C     C_R   0.142477 0.552727 0.870178 -0.036300
C26   C     C_R   0.182677 0.548905 0.819524 0.597488
C27   C     C_R   0.278073 0.426872 0.823098 0.575233
C28   C     C_3   0.186589 0.317695 0.419143 0.313825
C29   C     C_2   0.430791 0.449695 0.727822 -0.085205
C30   C     C_3   0.448240 0.428385 0.673262 -0.048300
C31   C     C_1   0.208554 0.509522 0.656819 0.037290
C32   C     C_2   0.167622 0.510841 0.704153 -0.102046
C33   C     C_2   0.287450 0.482142 0.743368 0.191457
C34   C     C_3   0.519931 0.644403 0.681867 -0.352509
C35   C     C_R   0.123105 0.437428 0.027020 0.020320
C36   C     C_R   0.055013 0.501859 0.050780 0.049663
C37   C     C_R   0.025346 0.563244 0.023832 0.020163
C38   C     C_R   0.149000 0.377945 0.055598 -0.098749
C39   C     C_R   0.920942 0.628340 0.099208 -0.060459
C40   C     C_3   0.195649 0.237892 0.407083 -0.381651
C41   C     C_R   0.035770 0.619359 0.943832 -0.098759
C42   C     C_R   0.074374 0.615631 0.894048 -0.059510
C43   C     C_R   0.957971 0.625994 0.049454 -0.101440
C44   C     C_R   0.401578 0.299152 0.523540 -0.292336
C45   C     C_3   0.061494 0.683790 0.338796 0.329819
C46   C     C_R   0.538712 0.276400 0.496823 0.066926
C47   C     C_R   0.590087 0.204191 0.491380 -0.123049
C48   C     C_R   0.502157 0.154075 0.511972 -0.018056
C49   C     C_R   0.359164 0.177804 0.537038 -0.137506
C50   C     C_R   0.307686 0.250127 0.541686 0.009453
C51   C     C_R   0.547443 0.033736 0.544504 -0.066378
C52   C     C_3   0.049008 0.691591 0.587338 0.249478
C53   C     C_R   0.596550 0.961466 0.538379 -0.029467
C54   C     C_R   0.653779 0.930505 0.492767 0.069427
C55   C     C_R   0.662776 0.974014 0.453637 -0.075523
C56   C     C_3   0.074938 0.703467 0.285904 -0.310185
C57   C     C_R   0.613967 0.046477 0.459822 -0.069605
C58   C     C_R   0.555203 0.077165 0.505316 0.058008
C59   C     C_R   0.842306 0.826650 0.460535 -0.070383
C60   C     C_R   0.892548 0.754017 0.458419 0.042683
C61   C     C_R   0.661945 0.732932 0.505412 0.040628
C62   C     C_R   0.612289 0.805116 0.508539 -0.111472
C63   C     C_R   0.701994 0.853070 0.486291 0.007342
C64   C     C_3   0.130282 0.758999 0.606028 0.031090
C65   C     C_R   0.799108 0.707581 0.479530 -0.280092
C66   C     C_3   0.671357 0.381854 0.375990 0.300350
C67   C     C_3   0.524358 0.723580 0.360584 0.361162
C68   C     C_3   0.664864 0.365450 0.319920 -0.356693
C69   C     C_3   0.479461 0.795959 0.341495 -0.358778
C70   C     C_R   0.003478 0.448630 0.180047 0.597002
H1    H     H_    0.714642 0.274511 0.600128 0.076986
H2    H     H_    0.585504 0.428733 0.384989 0.079341
H3    H     H_    0.843878 0.189224 0.657345 0.152888
H4    H     H_    0.754700 0.320485 0.309602 0.133563
H5    H     H_    0.694029 0.412282 0.301308 0.070973
H6    H     H_    0.540525 0.351441 0.306801 0.133670
H7    H     H_    0.535215 0.286278 0.636982 -0.064248
H8    H     H_    0.645904 0.163554 0.634484 0.070590
H9    H     H_    0.396490 0.616877 0.611813 -0.010941
H10   H     H_    0.607727 0.582101 0.617531 0.079822
H11   H     H_    0.430346 0.689780 0.691451 0.127370
H12   H     H_    0.277051 0.222720 0.375837 0.126859
H13   H     H_    0.485485 0.597346 0.699335 0.071671
H14   H     H_    0.643244 0.657321 0.696802 0.140067
H15   H     H_    0.671573 0.204855 0.696812 0.121544
H16   H     H_    0.126109 0.336135 0.739181 0.124574
H17   H     H_    0.141560 0.634682 0.343851 0.093639
H18   H     H_    0.932982 0.674233 0.344121 -0.055201
H19   H     H_    0.190294 0.728399 0.281989 0.146120
H20   H     H_    0.075256 0.654920 0.260225 0.120341
H21   H     H_    0.970583 0.741064 0.275610 0.119867
H22   H     H_    0.659239 0.713633 0.359743 -0.073281
H23   H     H_    0.244391 0.210290 0.439786 0.064740
H24   H     H_    0.487174 0.725154 0.399605 0.069205
H25   H     H_    0.545834 0.836590 0.364521 0.062051
H26   H     H_    0.346485 0.810128 0.343666 0.153185
H27   H     H_    0.052971 0.361583 0.656395 0.088388
H28   H     H_    0.513874 0.795687 0.302314 0.119100
H29   H     H_    0.139291 0.464385 0.284925 0.129687
H30   H     H_    0.132870 0.334274 0.125121 0.122346
H31   H     H_    0.524142 0.430156 0.754235 0.119392
H32   H     H_    0.322599 0.320204 0.883429 0.122790
H33   H     H_    0.260081 0.323261 0.967753 0.069340
H34   H     H_    0.071863 0.220711 0.396513 0.128045
H35   H     H_    0.199115 0.326975 0.040757 0.069256
H36   H     H_    0.664504 0.568539 0.245291 0.118352
H37   H     H_    0.869633 0.678058 0.116638 0.121911
H38   H     H_    0.983664 0.670079 0.958489 0.069597
H39   H     H_    0.260786 0.321268 0.654888 -0.053785
H40   H     H_    0.050135 0.662829 0.874165 0.123529
H41   H     H_    0.047384 0.532759 0.714694 0.134521
H42   H     H_    0.931983 0.674966 0.032317 0.069121
H43   H     H_    0.834373 0.538226 0.399690 0.083682
H44   H     H_    0.366755 0.469743 0.600919 0.083390
H45   H     H_    0.918569 0.705601 0.577747 0.022385
H46   H     H_    0.505157 0.823709 0.528867 0.109929
H47   H     H_    0.591401 0.929921 0.569702 0.085967
H48   H     H_    0.505325 0.055884 0.580210 0.069447
H49   H     H_    0.697322 0.187265 0.470661 0.085502
H50   H     H_    0.704509 0.951758 0.417916 0.058633
H51   H     H_    0.000943 0.266747 0.716097 0.145767
H52   H     H_    0.619282 0.078248 0.428626 0.062649
H53   H     H_    0.916964 0.862525 0.444692 0.088110
H54   H     H_    0.284443 0.140179 0.550917 0.088551
H55   H     H_    0.838662 0.651778 0.478379 0.063116
H56   H     H_    0.108152 0.666315 0.553865 0.077285
H57   H     H_    0.360529 0.354824 0.526734 0.069694
H58   H     H_    0.219983 0.248947 0.720696 0.119155
H59   H     H_    0.310666 0.334199 0.428393 0.002349
H60   H     H_    0.108588 0.331253 0.451351 0.065196
H61   H     H_    0.080689 0.780172 0.642203 0.114161
H62   H     H_    0.263536 0.746799 0.611846 0.102855
H63   H     H_    0.796647 0.393616 0.388609 0.009823
N1    N     N_R   0.938715 0.511557 0.203610 -0.421937
N2    N     N_R   0.248896 0.486170 0.796065 -0.421790
O1    O     O_2   0.913240 0.537010 0.617740 -0.447516
O2    O     O_2   0.232571 0.749351 0.462533 -0.436820
O3    O     O_3   0.110480 0.739423 0.372100 -0.610282
O4    O     O_3   0.145240 0.536960 0.557560 -0.496583
O5    O     O_3   0.557280 0.416300 0.475860 -0.488459
O6    O     O_2   0.376710 0.670070 0.522470 -0.456798
O7    O     O_3   0.568563 0.688462 0.604467 -0.634999
O8    O     O_2   0.411179 0.534599 0.322272 -0.499296
O9    O     O_3   0.443567 0.671597 0.330704 -0.594046
O10   O     O_2   0.024090 0.395539 0.202849 -0.596875
O11   O     O_2   0.336338 0.371145 0.803117 -0.619585
O12   O     O_3   0.628429 0.322620 0.398243 -0.635278
O13   O     O_2   0.854755 0.627015 0.196828 -0.620428
O14   O     O_2   0.160857 0.601895 0.796645 -0.595457
O15   O     O_3   0.669960 0.410470 0.588880 -0.482538
O16   O     O_2   0.777464 0.465749 0.677686 -0.496480
O17   O     O_3   0.058451 0.648851 0.627253 -0.642198
O18   O     O_3   0.746752 0.328462 0.669415 -0.596292
O19   O     O_2   0.812980 0.329910 0.477500 -0.461267
O20   O     O_3   0.078660 0.374870 0.564770 -0.494393
O21   O     O_2   0.970580 0.249003 0.533238 -0.482430
O22   O     O_3   0.080372 0.258095 0.625351 -0.599856
O23   O     O_2   0.276450 0.462960 0.382230 -0.461743
O24   O     O_3   0.044470 0.462980 0.442430 -0.495232
O25   O     O_3   0.519740 0.589470 0.411120 -0.478287
O26   O     O_3   0.121599 0.350217 0.377260 -0.623729
O27   O     O_3   0.632420 0.583650 0.524140 -0.476067
O28   O     O_3   0.111040 0.625070 0.435230 -0.496969
P1    P     P_3+3 0.082480 0.557670 0.610090 0.993360
P2    P     P_3+3 0.635220 0.340300 0.462910 0.986064
P3    P     P_3+3 0.108776 0.282557 0.565720 0.946071
P4    P     P_3+3 0.107220 0.442270 0.389900 0.993259
P5    P     P_3+3 0.087048 0.717405 0.432660 0.977445
P6    P     P_3+3 0.662000 0.411205 0.653226 0.946269
P7    P     P_3+3 0.561745 0.671227 0.539805 0.966805
P8    P     P_3+3 0.527658 0.588717 0.346762 0.941602

loop_
_geom_bond_atom_site_label_1
_geom_bond_atom_site_label_2
_ccdc_geom_bond_type
O25   P8    S    
C23   H10   S    
C27   N2    Am   
C38   H35   S    
Ba2   O6    S    
O2    P5    D    
O26   P4    S    
C32   C33   S    
C47   H49   S    
C54   C63   S    
C28   H60   S    
Ba2   O24   S    
C68   H6    S    
C11   H30   S    
O9    P8    S    
C44   C46   A    
C69   H25   S    
C53   C54   A    
C37   C43   A    
C26   N2    Am   
C55   H50   S    
C59   C60   A    
C28   C40   S    
C43   H42   S    
C45   C56   S    
C16   H16   S    
C66   O12   S    
C61   C65   A    
C25   C26   A    
C31   C32   D    
C35   C36   A    
C5    P8    S    
C69   H28   S    
Ba1   P1    S    
O27   P7    S    
O3    P5    S    
C4    H39   S    
O19   P2    D    
C32   H41   S    
Ba1   Ba2   S    
C39   C43   A    
C66   C68   S    
C2    C13   A    
Ba1   O4    S    
C64   H62   S    
O4    P1    S    
C28   O26   S    
C1    H8    S    
C9    C13   A    
O17   P1    S    
C52   H56   S    
C45   H18   S    
C48   C58   S    
O6    P7    D    
O22   P3    S    
C29   H31   S    
C34   H11   S    
C56   H21   S    
C6    C7    D    
Ba2   O28   S    
Ba1   O1    S    
C67   H24   S    
C50   P3    S    
C44   C50   A    
O28   P5    S    
C23   H9    S    
C45   H17   S    
C18   C19   A    
Ba2   O5    S    
C53   H47   S    
C33   N2    S    
C6    P4    S    
Ba2   O23   S    
C49   H54   S    
C40   H23   S    
C16   H58   S    
C25   C42   A    
C51   C53   A    
C16   H51   S    
C4    H27   S    
C59   C63   A    
C44   H57   S    
C48   C49   A    
C40   H12   S    
C34   H13   S    
C7    H29   S    
C64   H61   S    
C21   C22   A    
C35   C38   A    
O7    P7    S    
C3    C8    D    
C59   H53   S    
C27   O11   D    
C3    C5    S    
C4    O22   S    
C70   O10   D    
Ba1   P2    S    
C20   H33   S    
O18   P6    S    
C57   C58   A    
C23   O7    S    
C52   O17   S    
C28   H59   S    
Ba1   O5    S    
C18   C41   A    
C17   C35   A    
C60   P5    S    
C12   H7    S    
O24   P4    S    
C17   C20   A    
Ba1   O27   S    
C20   C21   A    
O12   P2    S    
C47   C48   A    
C62   H46   S    
O16   P6    D    
O20   P3    S    
C40   H34   S    
Ba1   O15   S    
C15   C31   D    
Ba2   O27   S    
C12   O18   S    
C46   P2    S    
C11   C38   A    
O23   P4    D    
C6    C14   D    
C51   H48   S    
Ba2   P4    S    
Ba1   O24   S    
C62   C63   A    
C66   H63   S    
C4    C16   S    
C19   C24   A    
Ba2   O4    S    
C3    H36   S    
C31   P1    S    
C13   C39   A    
C68   H4    S    
C49   C50   A    
O1    P1    D    
C22   C27   A    
C65   H55   S    
C60   C65   A    
C57   H52   S    
O21   P3    D    
C10   C70   A    
C34   H14   S    
Br1   C64   S    
C41   C42   A    
C17   C19   A    
Ba2   O25   S    
C52   C64   S    
C29   C33   D    
C23   C34   S    
C2    N1    Am   
C1    H15   S    
C51   C58   A    
C22   C24   A    
C5    C14   S    
C2    O13   D    
C29   C30   S    
C9    C36   A    
Ba1   O19   S    
C67   H22   S    
C39   H37   S    
C61   C62   A    
C26   O14   D    
C30   P6    S    
Ba1   O20   S    
C54   C55   A    
C18   C37   A    
C70   N1    Am   
C1    C12   S    
O8    P8    D    
O15   P6    S    
C45   O3    S    
C66   H2    S    
C56   H19   S    
C8    N1    S    
C15   C30   S    
O5    P2    S    
C1    H3    S    
C7    C8    S    
C36   C37   A    
C41   H38   S    
C42   H40   S    
C12   H1    S    
C9    C10   A    
C46   C47   A    
C24   C25   A    
C67   C69   S    
C67   O9    S    
C56   H20   S    
C21   H32   S    
C61   P7    S    
C10   C11   A    
C15   H44   S    
C55   C57   A    
C52   H45   S    
C68   H5    S    
C14   H43   S    
C69   H26   S    
