data_mof_unit_67371.cif
_audit_creation_date              2013-03-05T16:08:40-0500
_audit_creation_method            fapswitch 2.2
_symmetry_space_group_name_H-M    P1
_symmetry_Int_Tables_number       1
_space_group_crystal_system       triclinic
_cell_length_a                    8.567536
_cell_length_b                    15.602571
_cell_length_c                    17.130654
_cell_angle_alpha                 111.343944
_cell_angle_beta                  97.239977
_cell_angle_gamma                 80.178196
_cell_volume                      2096.51987275

loop_
_atom_site_label
_atom_site_type_symbol
_atom_site_description
_atom_site_fract_x
_atom_site_fract_y
_atom_site_fract_z
_atom_type_partial_charge
P1    P     P_3+3 0.592580 0.619750 0.703570 0.499137
O1    O     O_2   0.428380 0.595300 0.716110 -0.299712
O2    O     O_3   0.649320 0.571650 0.606870 -0.463389
O3    O     O_3   0.202060 0.415880 0.655570 -0.431118
O4    O     O_2   0.344231 0.516185 0.802628 -0.383243
O5    O     O_3   0.528651 0.738275 0.720045 -0.518834
O6    O     O_3   0.278273 0.365090 0.803675 -0.512138
H1    H     H_    0.334402 0.277497 0.683493 0.172314
C1    C     C_3   0.348314 0.202789 0.767670 -0.593489
H2    H     H_    0.476239 0.210172 0.782994 0.191121
P2    P     P_3+3 0.156510 0.273300 0.422380 0.435487
P3    P     P_3+3 0.661748 0.238668 0.591868 0.468631
O7    O     O_2   0.338790 0.265210 0.448200 -0.340102
O8    O     O_3   0.612600 0.359140 0.609510 -0.344505
O9    O     O_2   0.514984 0.191720 0.545146 -0.373643
O10   O     O_3   0.144265 0.216559 0.312603 -0.579459
O11   O     O_3   0.666686 0.228813 0.690743 -0.543114
C2    C     C_3   0.757242 0.294173 0.750028 0.630463
H3    H     H_    0.841775 0.317958 0.720567 0.060953
C3    C     C_3   0.864367 0.246054 0.804016 -0.965301
H4    H     H_    0.794510 0.217553 0.836901 0.275364
H5    H     H_    0.941745 0.187771 0.761685 0.296971
C4    C     C_3   0.766986 0.216283 0.289338 0.309849
H6    H     H_    0.862734 0.256540 0.292205 0.142621
H7    H     H_    0.765604 0.204039 0.348531 0.038837
C5    C     C_3   0.802529 0.119262 0.225487 -0.378244
H8    H     H_    0.904561 0.080754 0.251367 0.197354
H9    H     H_    0.697778 0.081618 0.213813 0.224868
Ba1   Ba    Ba6+2 0.364200 0.465260 0.540900 1.565134
C6    C     C_3   0.637120 0.778983 0.693955 0.389107
H10   H     H_    0.592808 0.787690 0.634019 0.071927
H11   H     H_    0.755149 0.737121 0.684592 0.125996
C7    C     C_3   0.645900 0.877977 0.754610 -0.844059
H12   H     H_    0.627832 0.885798 0.819967 0.301785
H13   H     H_    0.562653 0.927802 0.733376 0.258009
H14   H     H_    0.758185 0.900366 0.752402 0.255834
C8    C     C_3   0.227135 0.247991 0.265159 0.130818
H15   H     H_    0.332468 0.279339 0.301283 0.110300
C9    C     C_3   0.280475 0.160790 0.188865 -0.621958
H16   H     H_    0.377741 0.118535 0.212716 0.218156
H17   H     H_    0.180419 0.119281 0.163702 0.230248
P4    P     P_3+3 0.597130 0.380170 0.296420 0.449234
O12   O     O_2   0.761310 0.404660 0.283830 -0.277563
O13   O     O_3   0.540390 0.428270 0.393120 -0.485097
O14   O     O_3   0.987650 0.584040 0.344420 -0.363139
O15   O     O_3   0.615832 0.258050 0.269679 -0.583905
P5    P     P_3+3 0.542557 0.761338 0.404718 0.456516
O16   O     O_3   0.122130 0.620580 0.549200 -0.346834
O17   O     O_3   0.577110 0.640790 0.390470 -0.401555
O18   O     O_2   0.694491 0.802171 0.450636 -0.398692
O19   O     O_3   0.537337 0.776871 0.305258 -0.545254
Ba2   Ba    Ba6+2 0.825630 0.534670 0.459090 1.546028
P6    P     P_3+3 0.206902 0.456867 0.769062 0.427024
C10   C     C_3   0.268767 0.280962 0.736825 0.247381
H18   H     H_    0.142269 0.272233 0.715537 0.040191
O20   O     O_3   0.067580 0.379340 0.450790 -0.471328
C11   C     C_3   0.070423 0.819093 0.769934 0.262753
C12   C     C_3   0.137074 0.916954 0.816761 -0.626978
P7    P     P_3+3 0.033865 0.743896 0.582930 0.530118
O21   O     O_2   0.850900 0.734750 0.551740 -0.373164
O22   O     O_3   0.995772 0.818404 0.689412 -0.559904
H19   H     H_    0.940486 0.294858 0.850319 0.240122
C13   C     C_3   0.473511 0.713727 0.226895 0.934336
C14   C     C_3   0.469547 0.759928 0.160644 -1.071314
H20   H     H_    0.589138 0.754763 0.141644 0.271917
H21   H     H_    0.396158 0.726190 0.102521 0.239699
H22   H     H_    0.416195 0.833875 0.185688 0.251068
P8    P     P_3+3 0.964392 0.560681 0.234345 0.496260
C15   C     C_3   0.932950 0.733731 0.237708 0.289944
H23   H     H_    0.037465 0.706063 0.203631 0.084559
O23   O     O_2   0.855311 0.484599 0.200903 -0.278152
O24   O     O_3   0.849130 0.656926 0.209049 -0.521259
H24   H     H_    0.949974 0.758283 0.307275 0.091683
H25   H     H_    0.993041 0.853563 0.221218 0.166913
C16   C     C_3   0.883685 0.819129 0.209493 -0.065371
C17   C     C_2   0.288852 0.481273 0.245430 -0.483137
C18   C     C_R   0.900130 0.559955 0.769821 -0.420027
C19   C     C_2   0.453967 0.380709 0.131531 -0.355405
C20   C     C_2   0.442451 0.418789 0.216992 0.187510
C21   C     C_2   0.166352 0.503284 0.191983 0.283684
C22   C     C_3   0.204627 0.485374 0.102670 -0.207014
C23   C     C_3   0.312708 0.393427 0.070818 0.390316
C24   C     C_2   0.071322 0.502508 0.038429 -0.148075
C25   C     C_2   0.103557 0.512664 0.966383 -0.146901
C26   C     C_R   0.825285 0.581821 0.927513 0.002550
C27   C     C_R   0.981560 0.540156 0.904337 0.031300
C28   C     C_R   0.709401 0.612071 0.872571 -0.255291
C29   C     C_R   0.745178 0.599206 0.790935 0.184501
C30   C     C_R   0.019070 0.528424 0.821786 0.098961
H26   H     H_    0.591217 0.641487 0.892740 0.198305
H27   H     H_    0.274792 0.506799 0.312044 0.158659
H28   H     H_    0.948631 0.509174 0.051968 0.178362
H29   H     H_    0.227522 0.503395 0.953806 0.182061
C31   C     C_R   0.361117 0.828038 0.468779 0.161874
C32   C     C_R   0.293296 0.919415 0.472454 -0.099664
C33   C     C_R   0.146846 0.097285 0.463739 -0.133479
C34   C     C_R   0.289436 0.050635 0.425427 -0.003527
C35   C     C_R   0.367766 0.969826 0.438465 -0.215335
C36   C     C_R   0.077322 0.190403 0.467486 0.153887
H30   H     H_    0.480954 0.940698 0.411646 0.181452
C37   C     C_R   0.932128 0.224235 0.505103 -0.226358
C38   C     C_R   0.118136 0.812990 0.527965 0.204875
C39   C     C_R   0.054884 0.904964 0.532223 -0.047351
C40   C     C_R   0.139485 0.957036 0.501817 0.073908
C41   C     C_R   0.906575 0.945445 0.563641 0.007718
C42   C     C_R   0.840214 0.033566 0.564742 -0.148763
C43   C     C_R   0.918486 0.085695 0.534127 -0.032596
C44   C     C_R   0.069429 0.047461 0.500830 0.092530
C45   C     C_R   0.849916 0.175364 0.536817 0.167790
C46   C     C_R   0.266357 0.775818 0.492476 -0.190836
H31   H     H_    0.724363 0.059423 0.588652 0.210115
H32   H     H_    0.838411 0.909238 0.587365 0.185944
N1    N     N_2   0.843126 0.124735 0.148583 -0.062964
H33   H     H_    0.761645 0.167673 0.125609 0.273245
C47   C     C_3   0.886364 0.036410 0.084971 -0.762628
H34   H     H_    0.785405 0.995111 0.066221 0.243934
H35   H     H_    0.991755 0.997319 0.107636 0.261706
H36   H     H_    0.915854 0.050201 0.030306 0.308422
C48   C     C_2   0.110897 0.318695 0.241396 0.985790
O25   O     O_2   0.035618 0.298909 0.173419 -0.511980
O26   O     O_R   0.073051 0.405060 0.301980 -0.695951
H37   H     H_    0.156234 0.419606 0.350527 0.292781
C49   C     C_2   0.338377 0.110523 0.699523 1.084175
O27   O     O_2   0.210067 0.082629 0.674477 -0.636731
O28   O     O_R   0.477709 0.057495 0.664571 -0.800932
H38   H     H_    0.458718 0.996885 0.618496 0.299210
C50   C     C_2   0.342283 0.171904 0.115322 1.092615
O29   O     O_2   0.258491 0.213016 0.073485 -0.598914
O30   O     O_R   0.488415 0.122131 0.087587 -0.820855
H39   H     H_    0.507440 0.120627 0.029937 0.352937
C51   C     C_2   0.281053 0.212069 0.847941 1.168298
O31   O     O_2   0.317636 0.273600 0.912040 -0.602871
O32   O     O_R   0.173452 0.155862 0.850314 -0.772337
H40   H     H_    0.137982 0.172424 0.908895 0.370701
N2    N     N_2   0.945552 0.806427 0.814454 -0.134233
H41   H     H_    0.912090 0.740946 0.790578 0.161982
C52   C     C_3   0.937646 0.843601 0.904071 -1.010834
H42   H     H_    0.834749 0.820488 0.920431 0.265474
H43   H     H_    0.909809 0.919097 0.924721 0.309860
H44   H     H_    0.048813 0.820080 0.935581 0.283338
C53   C     C_2   0.190000 0.738008 0.763817 1.044987
O33   O     O_2   0.287512 0.737422 0.822174 -0.612047
O34   O     O_R   0.149626 0.655859 0.706242 -0.718648
H45   H     H_    0.164111 0.607335 0.732450 0.345553
C54   C     C_2   0.000259 0.995693 0.820616 1.132085
O35   O     O_2   0.950263 0.049761 0.887115 -0.650999
O36   O     O_R   0.932092 0.006961 0.745903 -0.774064
H46   H     H_    0.832762 0.054076 0.754320 0.333714
C55   C     C_2   0.228668 0.928576 0.903469 1.074609
O37   O     O_2   0.169416 0.977235 0.969127 -0.643634
O38   O     O_R   0.388690 0.890484 0.907551 -0.757992
H47   H     H_    0.437467 0.905181 0.967296 0.325719
C56   C     C_2   0.255366 0.929649 0.765272 1.152272
O39   O     O_2   0.329194 0.995852 0.795346 -0.646319
O40   O     O_R   0.282679 0.867174 0.684880 -0.806649
H48   H     H_    0.346290 0.890945 0.653187 0.289398
N3    N     N_2   0.568672 0.621957 0.201004 -0.051926
H49   H     H_    0.560906 0.583268 0.237407 0.204743
C57   C     C_3   0.570688 0.566591 0.111494 -0.877106
H50   H     H_    0.630302 0.495422 0.101821 0.268051
H51   H     H_    0.638977 0.596368 0.079052 0.275149
H52   H     H_    0.449271 0.561774 0.080886 0.206278
N4    N     N_2   0.310716 0.702826 0.227014 -0.146783
H53   H     H_    0.271649 0.653180 0.173086 0.132832
C58   C     C_3   0.262380 0.699899 0.301734 -1.018761
H54   H     H_    0.168256 0.663206 0.295119 0.204118
H55   H     H_    0.215529 0.770898 0.339245 0.255475
H56   H     H_    0.344723 0.651345 0.322607 0.272535
N5    N     N_2   0.765130 0.889341 0.259195 -0.106758
H57   H     H_    0.653907 0.872792 0.255576 0.246192
C59   C     C_3   0.818491 0.946742 0.342340 -0.925944
H58   H     H_    0.841581 0.905959 0.384645 0.265722
H59   H     H_    0.725693 0.006080 0.368316 0.283723
H60   H     H_    0.927235 0.975244 0.340005 0.250942
N6    N     N_2   0.650696 0.374813 0.797803 -0.076420
H61   H     H_    0.644799 0.432258 0.780942 0.201268
C60   C     C_3   0.631229 0.394983 0.885937 -0.782114
H62   H     H_    0.539630 0.456133 0.908978 0.264839
H63   H     H_    0.743959 0.411304 0.924227 0.221139
H64   H     H_    0.590864 0.335538 0.894574 0.289427
N7    N     N_2   0.838594 0.792600 0.120088 -0.093020
H65   H     H_    0.755086 0.840846 0.104404 0.193683
C61   C     C_3   0.970934 0.763601 0.067108 -0.925275
H66   H     H_    0.925946 0.739426 0.000927 0.266428
H67   H     H_    0.051980 0.704796 0.077326 0.255757
H68   H     H_    0.038377 0.822461 0.078959 0.256639
C62   C     C_2   0.595757 0.320146 0.090114 1.028902
O41   O     O_2   0.727838 0.327245 0.125019 -0.553596
O42   O     O_R   0.579667 0.258200 0.007762 -0.792615
H69   H     H_    0.684775 0.222165 0.985631 0.332077
C63   C     C_2   0.907218 0.510034 0.684789 1.036939
O43   O     O_2   0.852211 0.438494 0.662606 -0.705794
O44   O     O_R   0.956985 0.545022 0.629954 -0.724051
H70   H     H_    0.990884 0.495328 0.576636 0.368622
C64   C     C_2   0.326681 0.057441 0.347301 1.069273
O45   O     O_2   0.450130 0.084437 0.343373 -0.658837
O46   O     O_R   0.230949 0.017623 0.274875 -0.831290
H71   H     H_    0.286665 0.999272 0.221394 0.304113
N8    N     N_2   0.883452 0.317877 0.528232 -0.106153
H72   H     H_    0.976570 0.354328 0.552191 0.219715
C65   C     C_3   0.759987 0.349875 0.477465 -0.509276
H73   H     H_    0.709748 0.420336 0.514403 0.290438
H74   H     H_    0.662275 0.306404 0.458621 0.226874
H75   H     H_    0.808434 0.352867 0.422859 0.208532
N9    N     N_2   0.310014 0.679494 0.466700 -0.138883
H76   H     H_    0.222045 0.638744 0.438632 0.188822
C66   C     C_3   0.424717 0.649339 0.521883 -0.525196
H77   H     H_    0.461645 0.575449 0.490613 0.266456
H78   H     H_    0.376962 0.665837 0.583250 0.252422
H79   H     H_    0.532642 0.681199 0.530303 0.222690

loop_
_geom_bond_atom_site_label_1
_geom_bond_atom_site_label_2
_geom_bond_distance
_ccdc_geom_bond_type
P8    C21   1.907176 S    
C59   H58   1.107186 S    
C58   H54   1.038340 S    
O3    P6    1.809485 S    
C65   H74   1.109628 S    
C65   H73   1.093216 S    
N4    H53   1.027183 S    
C17   C20   1.515820 S    
C28   C29   1.404516 A    
C50   O30   1.394969 S    
C54   O35   1.221891 D    
C12   C54   1.535178 S    
C55   O37   1.220667 D    
C49   O27   1.220813 D    
N6    C60   1.451214 S    
N9    H76   1.026200 S    
C13   N4    1.433930 S    
C24   H28   1.084501 S    
C59   H59   1.106992 S    
C18   C30   1.411376 A    
C5    H8    1.112994 S    
N3    H49   1.027556 S    
O1    Ba1   2.993235 S    
O7    Ba1   2.974599 S    
N4    C58   1.412307 S    
C25   C27   1.518258 S    
P1    O1    1.577863 D    
C55   O38   1.402087 S    
C57   H50   1.102383 S    
C26   C27   1.421981 A    
C6    H10   1.096579 S    
O2    Ba2   2.937128 S    
O12   Ba2   2.993910 S    
C49   O28   1.396648 S    
C42   C43   1.404101 A    
O46   H71   1.010862 S    
C37   C45   1.397833 A    
O34   H45   0.995746 S    
C33   C36   1.454752 A    
C7    H14   1.087367 S    
P2    C36   1.972122 S    
C2    H3    1.112254 S    
P4    O15   1.773406 S    
C4    C5    1.517251 S    
O2    Ba1   3.053162 S    
Ba2   O21   2.974661 S    
C22   C24   1.542767 S    
O36   H46   1.012789 S    
C18   C29   1.396675 A    
C47   H35   1.110946 S    
P3    O11   1.750326 S    
C16   N5    1.454691 S    
C66   H79   1.092655 S    
C4    H6    1.101380 S    
C57   H51   1.108901 S    
C15   H24   1.109581 S    
C56   O40   1.388426 S    
C1    H2    1.109923 S    
O3    Ba1   2.921764 S    
C12   C55   1.553597 S    
O10   C8    1.399847 S    
C2    N6    1.460486 S    
C60   H64   1.106335 S    
P1    C29   1.940346 S    
N7    C61   1.448939 S    
C33   C44   1.445562 A    
O38   H47   1.014284 S    
P7    O21   1.603996 D    
C58   H55   1.093765 S    
C4    O15   1.406091 S    
C43   C45   1.408598 A    
N5    C59   1.444581 S    
C15   H23   1.070220 S    
P4    O13   1.648388 S    
P3    C45   1.904157 S    
C59   H60   1.109532 S    
C34   C35   1.403020 A    
P5    O18   1.542444 D    
C42   H31   1.077630 S    
C1    C51   1.506731 S    
C52   H44   1.108387 S    
P7    O22   1.806184 S    
C9    C50   1.502062 S    
H25   C16   1.119169 S    
C54   O36   1.396589 S    
Ba1   O16   2.881506 S    
P4    C20   1.959725 S    
C63   O43   1.199175 D    
C18   C63   1.382917 S    
C14   H22   1.110559 S    
N2    H41   1.029315 S    
O19   C13   1.451818 S    
P5    O17   1.782950 S    
C61   H68   1.110957 S    
H1    C10   1.112192 S    
C9    H16   1.104017 S    
C19   C20   1.374507 D    
P5    O19   1.800379 S    
C64   O45   1.221125 D    
O14   Ba2   2.921048 S    
C60   H63   1.109290 S    
N7    H65   1.032349 S    
C31   C46   1.427342 A    
C22   C23   1.522375 S    
C66   H77   1.088524 S    
P1    O2    1.648388 S    
C53   O34   1.371242 S    
C14   H21   1.112387 S    
C15   O24   1.403311 S    
C61   H66   1.097424 S    
C63   O44   1.384143 S    
C8    H15   1.107286 S    
C12   C56   1.505105 S    
C52   H43   1.091616 S    
P2    O10   1.761048 S    
C19   C23   1.528669 S    
N6    H61   1.028904 S    
C8    C48   1.491423 S    
P3    O9    1.546632 D    
O16   Ba2   3.049539 S    
P8    O24   1.810486 S    
C47   H36   1.100876 S    
C33   C34   1.415604 A    
O14   P8    1.777085 S    
P1    Ba1   3.570622 S    
C7    H12   1.109113 S    
C57   H52   1.105988 S    
C31   C32   1.426716 A    
C39   C41   1.397948 A    
N5    H57   1.017819 S    
P2    Ba1   3.569314 S    
O26   H37   1.009674 S    
C48   O26   1.384118 S    
C1    C49   1.495290 S    
O5    C6    1.406945 S    
C41   H32   1.079286 S    
C3    H5    1.108049 S    
C60   H62   1.109261 S    
C58   H56   1.072727 S    
C35   H30   1.080724 S    
Ba1   O13   2.936488 S    
P6    C30   1.916069 S    
O32   H40   1.013658 S    
C65   H75   1.088919 S    
C24   C25   1.366687 D    
P4    O12   1.578265 D    
O6    P6    1.733197 S    
C43   C44   1.424309 A    
C51   O31   1.214161 D    
C16   N7    1.452660 S    
C40   C44   1.441171 A    
C32   C40   1.422094 A    
O16   P7    1.847198 S    
C66   H78   1.101959 S    
N1    H33   1.026713 S    
C52   H42   1.109096 S    
O4    P6    1.544390 D    
O42   H69   1.014355 S    
N2    C52   1.436125 S    
C10   H18   1.113865 S    
P1    O5    1.764377 S    
C6    C7    1.524030 S    
C36   C37   1.404182 A    
P7    C38   1.935423 S    
C17   C21   1.386173 D    
O17   Ba2   2.870539 S    
P3    O8    1.774918 S    
C21   C22   1.520014 S    
C51   O32   1.389900 S    
C27   C30   1.429208 A    
C48   O25   1.218305 D    
C37   N8    1.370389 S    
C11   O22   1.442586 S    
C50   O29   1.219970 D    
C1    C10   1.525166 S    
Ba1   O20   3.050469 S    
C41   C42   1.389644 A    
C5    H9    1.113340 S    
O11   C2    1.410931 S    
C11   C53   1.466111 S    
C14   H20   1.095005 S    
C34   C64   1.458390 S    
C61   H67   1.106133 S    
O30   H39   1.012345 S    
C5    N1    1.439223 S    
C62   O41   1.214235 D    
C8    C9    1.553101 S    
C53   O33   1.221054 D    
C6    H11   1.101899 S    
P2    O7    1.565162 D    
O13   Ba2   3.054118 S    
C11   C12   1.609766 S    
O28   H38   1.010218 S    
P8    O23   1.535986 D    
C7    H13   1.093910 S    
P5    C31   1.936620 S    
C15   C16   1.553271 S    
C46   N9    1.400125 S    
C2    C3    1.522422 S    
C25   H29   1.085320 S    
C4    H7    1.099835 S    
C3    H19   1.110705 S    
C38   C39   1.423637 A    
C62   O42   1.395435 S    
C38   C46   1.416069 A    
C17   H27   1.078318 S    
C13   C14   1.544770 S    
Ba2   O20   2.881017 S    
C26   C28   1.422088 A    
N8    H72   1.015237 S    
C3    H4    1.109697 S    
C9    H17   1.110473 S    
N3    C57   1.461199 S    
O44   H70   0.997147 S    
C28   H26   1.081423 S    
C39   C40   1.435584 A    
N8    C65   1.424262 S    
C13   N3    1.463630 S    
C11   N2    1.467239 S    
C19   C62   1.486474 S    
O8    Ba1   2.869841 S    
O6    C10   1.399919 S    
C64   O46   1.397965 S    
C56   O39   1.218964 D    
O40   H48   1.009685 S    
N9    C66   1.418652 S    
C32   C35   1.401048 A    
P2    O20   1.622337 S    
C47   H34   1.111769 S    
P4    Ba2   3.571278 S    
N1    C47   1.434670 S    
Ba1   Ba2   4.767345 S    
