data_mof_unit_31262.cif
_audit_creation_date              2013-03-05T16:10:36-0500
_audit_creation_method            fapswitch 2.2
_symmetry_space_group_name_H-M    P1
_symmetry_Int_Tables_number       1
_space_group_crystal_system       triclinic
_cell_length_a                    16.318519
_cell_length_b                    16.324903
_cell_length_c                    10.100506
_cell_angle_alpha                 93.264615
_cell_angle_beta                  89.927271
_cell_angle_gamma                 90.629385
_cell_volume                      2686.22776067

loop_
_atom_site_label
_atom_site_type_symbol
_atom_site_description
_atom_site_fract_x
_atom_site_fract_y
_atom_site_fract_z
_atom_type_partial_charge
O1    O     O_R   0.091250 0.408820 0.620260 -0.494759
O2    O     O_R   0.091250 0.408820 0.379740 -0.531181
O3    O     O_R   0.091250 0.591180 0.620260 -0.536023
O4    O     O_R   0.091250 0.591180 0.379740 -0.497176
O5    O     O_R   0.591250 0.908820 0.620260 -0.508344
O6    O     O_R   0.591250 0.908820 0.379740 -0.527622
O7    O     O_R   0.591250 0.091180 0.620260 -0.526690
O8    O     O_R   0.591250 0.091180 0.379740 -0.510242
C1    C     C_R   0.119508 0.380759 0.496062 0.841891
C2    C     C_R   0.120838 0.616991 0.502548 0.828284
C3    C     C_R   0.617824 0.880178 0.494838 0.827688
C4    C     C_R   0.614522 0.123646 0.502752 0.816375
O9    O     O_R   0.908940 0.408800 0.620260 -0.560729
O10   O     O_R   0.908940 0.408800 0.379740 -0.510357
O11   O     O_R   0.908940 0.591200 0.620260 -0.535626
O12   O     O_R   0.908940 0.591200 0.379740 -0.523841
O13   O     O_R   0.408940 0.908800 0.620260 -0.540158
O14   O     O_R   0.408940 0.908800 0.379740 -0.508008
O15   O     O_R   0.408940 0.091200 0.620260 -0.508439
O16   O     O_R   0.408940 0.091200 0.379740 -0.537683
C5    C     C_R   0.882136 0.378474 0.498881 0.860522
C6    C     C_R   0.882750 0.623359 0.501937 0.822242
C7    C     C_R   0.378771 0.881081 0.497784 0.805697
C8    C     C_R   0.380702 0.120598 0.502866 0.808647
Cu1   Cu    Cu3+1 0.000100 0.500000 0.642410 1.130945
Cu2   Cu    Cu3+1 0.000100 0.500000 0.357590 1.151407
Cu3   Cu    Cu3+1 0.500100 0.000000 0.642410 1.137073
Cu4   Cu    Cu3+1 0.500100 0.000000 0.357590 1.131257
C9    C     C_3   0.840952 0.215530 0.515598 0.110850
C10   C     C_3   0.763791 0.296897 0.362568 0.073629
C11   C     C_3   0.824314 0.781242 0.595156 0.071918
C12   C     C_3   0.810381 0.740524 0.358369 0.109866
C13   C     C_3   0.328413 0.736110 0.583420 0.113374
C14   C     C_3   0.289550 0.766475 0.354406 0.082685
C15   C     C_3   0.281994 0.228978 0.649180 0.098026
C16   C     C_3   0.342671 0.276218 0.446259 0.097591
H1    H     H_    0.864510 0.191145 0.417729 0.149463
H2    H     H_    0.811070 0.274604 0.292220 0.200796
H3    H     H_    0.867081 0.821971 0.543739 0.148255
H4    H     H_    0.872344 0.767443 0.343656 0.170070
H5    H     H_    0.380096 0.707813 0.529822 0.132759
H6    H     H_    0.346023 0.731681 0.326963 0.166224
H7    H     H_    0.334192 0.266124 0.692363 0.168622
H8    H     H_    0.392725 0.299507 0.513428 0.131565
C17   C     C_3   0.263467 0.665169 0.582924 -0.410355
C18   C     C_3   0.217590 0.704012 0.367445 -0.373108
C19   C     C_3   0.208122 0.287973 0.630186 -0.372373
C20   C     C_3   0.275728 0.346869 0.447920 -0.443215
C21   C     C_3   0.764993 0.157554 0.546623 -0.431480
C22   C     C_3   0.699989 0.223651 0.364444 -0.368730
C23   C     C_3   0.743708 0.830626 0.597055 -0.397273
C24   C     C_3   0.747657 0.815994 0.361029 -0.383323
H9    H     H_    0.289561 0.607723 0.535969 0.184881
H10   H     H_    0.241140 0.646652 0.321600 0.265914
H11   H     H_    0.227928 0.344056 0.686423 0.263866
H12   H     H_    0.295322 0.398074 0.518887 0.189561
H13   H     H_    0.773948 0.097621 0.490345 0.196349
H14   H     H_    0.729080 0.172594 0.307171 0.254263
H15   H     H_    0.762329 0.896284 0.598499 0.228205
H16   H     H_    0.782671 0.875080 0.366054 0.195547
H17   H     H_    0.246884 0.649730 0.684804 0.284079
H18   H     H_    0.163137 0.726603 0.315931 0.291461
H19   H     H_    0.150384 0.264863 0.673253 0.293093
H20   H     H_    0.272749 0.377063 0.352484 0.265535
H21   H     H_    0.761029 0.141122 0.651125 0.271811
H22   H     H_    0.642606 0.235770 0.312709 0.300948
H23   H     H_    0.706119 0.817592 0.682603 0.300322
H24   H     H_    0.713698 0.817315 0.267604 0.298409
C25   C     C_3   0.748279 0.324113 0.624269 0.178813
C26   C     C_3   0.722866 0.662757 0.528267 0.194519
C27   C     C_3   0.216274 0.846128 0.541479 0.192444
C28   C     C_3   0.226349 0.159219 0.433305 0.156928
C29   C     C_3   0.811292 0.308958 0.501916 -0.245355
C30   C     C_3   0.813213 0.696725 0.500045 -0.226876
C31   C     C_3   0.304856 0.812873 0.495314 -0.229333
C32   C     C_3   0.309879 0.190973 0.506447 -0.212093
C33   C     C_3   0.187119 0.688253 0.508639 -0.192440
C34   C     C_3   0.190031 0.312909 0.486955 -0.177306
C35   C     C_3   0.681411 0.195186 0.506349 -0.154613
C36   C     C_3   0.686897 0.812705 0.480528 -0.187372
C37   C     C_3   0.154905 0.772144 0.571995 0.226549
C38   C     C_3   0.174612 0.232981 0.387129 0.259466
C39   C     C_3   0.663397 0.280123 0.592162 0.218102
C40   C     C_3   0.654387 0.720840 0.474385 0.204223
C41   C     C_3   0.959213 0.575011 0.088019 0.069736
C42   C     C_3   0.945811 0.563127 0.928015 0.078023
C43   C     C_3   0.946895 0.432823 0.073024 0.106446
C44   C     C_3   0.961313 0.422455 0.913501 0.048028
C45   C     C_3   0.463457 0.075975 0.089867 0.045848
C46   C     C_3   0.447506 0.066003 0.932290 0.102690
C47   C     C_3   0.449518 0.930921 0.071721 0.095859
C48   C     C_3   0.462473 0.923045 0.912152 0.030901
H25   H     H_    0.896710 0.575556 0.127816 0.190115
H26   H     H_    0.881255 0.539401 0.919215 0.099261
H27   H     H_    0.881772 0.452504 0.081195 0.129037
H28   H     H_    0.898680 0.417506 0.871923 0.144526
H29   H     H_    0.401470 0.080088 0.132911 0.186555
H30   H     H_    0.382942 0.043001 0.925654 0.116759
H31   H     H_    0.384748 0.950646 0.081727 0.130081
H32   H     H_    0.399397 0.918373 0.871373 0.186354
C49   C     C_3   0.088594 0.495249 0.079628 0.416020
C50   C     C_3   0.088429 0.510904 0.917997 0.416407
C51   C     C_3   0.590931 0.995897 0.082692 0.404595
C52   C     C_3   0.590594 0.004399 0.917687 0.395454
N1    N     N_3   0.001260 0.500000 0.143650 -0.350760
N2    N     N_3   0.001260 0.500000 0.856350 -0.350724
N3    N     N_3   0.501260 0.000000 0.143650 -0.360400
N4    N     N_3   0.501260 0.000000 0.856350 -0.346881
N5    N     N_R   0.910100 0.203749 0.604127 0.189910
O17   O     O_R   0.908331 0.145711 0.687482 -0.233040
O18   O     O_R   0.981155 0.228949 0.566418 -0.331248
N6    N     N_R   0.731055 0.369306 0.299055 0.184243
O19   O     O_R   0.781632 0.425004 0.260955 -0.291332
O20   O     O_R   0.662704 0.363031 0.232704 -0.223532
N7    N     N_R   0.856463 0.784804 0.732233 0.222550
O21   O     O_R   0.806826 0.803163 0.830650 -0.165533
O22   O     O_R   0.930263 0.813339 0.751650 -0.230826
N8    N     N_R   0.796427 0.688969 0.236499 0.159890
O23   O     O_R   0.778525 0.611560 0.235830 -0.307052
O24   O     O_R   0.796540 0.723824 0.123969 -0.204651
N9    N     N_R   0.356406 0.751634 0.720535 0.194861
O25   O     O_R   0.316654 0.799978 0.802833 -0.285357
O26   O     O_R   0.398530 0.694070 0.771940 -0.213967
N10   N     N_R   0.271430 0.813986 0.238069 0.197969
O27   O     O_R   0.293195 0.889896 0.230838 -0.320333
O28   O     O_R   0.239306 0.777038 0.132322 -0.183524
N11   N     N_R   0.259631 0.175660 0.756008 0.195750
O29   O     O_R   0.220695 0.206393 0.859635 -0.206856
O30   O     O_R   0.289438 0.103439 0.762631 -0.314353
N12   N     N_R   0.381604 0.270594 0.316412 0.192889
O31   O     O_R   0.364987 0.210807 0.231492 -0.283326
O32   O     O_R   0.422249 0.333596 0.276220 -0.228027
I1    I     I_    0.791549 0.279402 0.812736 0.035073
I2    I     I_    0.742749 0.441532 0.727451 -0.163017
I3    I     I_    0.706982 0.649788 0.741532 0.022329
I4    I     I_    0.696080 0.541144 0.454815 -0.056892
I5    I     I_    0.232530 0.939602 0.698938 -0.042374
I6    I     I_    0.150457 0.913576 0.398840 -0.089915
I7    I     I_    0.138657 0.100523 0.566426 -0.040959
I8    I     I_    0.246622 0.068874 0.267379 -0.072811
I9    I     I_    0.131862 0.775950 0.778116 0.165154
I10   I     I_    0.027666 0.779213 0.512930 -0.163847
I11   I     I_    0.055613 0.188616 0.313200 0.016438
I12   I     I_    0.202520 0.254826 0.186392 0.149574
I13   I     I_    0.583999 0.302292 0.758891 0.052161
I14   I     I_    0.574624 0.353511 0.494631 -0.109821
I15   I     I_    0.540542 0.692248 0.558741 -0.113935
I16   I     I_    0.603440 0.686548 0.276710 0.072708
N13   N     N_R   0.987769 0.658451 0.136813 0.227190
O33   O     O_R   0.005128 0.673648 0.259472 -0.313756
O34   O     O_R   0.967625 0.723361 0.076005 -0.174233
N14   N     N_R   0.933166 0.638485 0.865445 0.226411
O35   O     O_R   0.983025 0.668766 0.780966 -0.231370
O36   O     O_R   0.866433 0.676190 0.898135 -0.225041
N15   N     N_R   0.937348 0.355574 0.136439 0.223114
O37   O     O_R   0.987156 0.333475 0.225839 -0.266269
O38   O     O_R   0.875475 0.307822 0.103529 -0.299655
N16   N     N_R   0.993576 0.341668 0.866317 0.234555
O39   O     O_R   0.006133 0.328543 0.742706 -0.243371
O40   O     O_R   0.980715 0.275181 0.928596 -0.166544
N17   N     N_R   0.503082 0.155364 0.135765 0.240905
O41   O     O_R   0.509203 0.175572 0.260487 -0.285845
O42   O     O_R   0.518394 0.214774 0.058763 -0.151341
N18   N     N_R   0.433345 0.146315 0.878884 0.232404
O43   O     O_R   0.471074 0.173261 0.778509 -0.273897
O44   O     O_R   0.381039 0.195109 0.939712 -0.229918
N19   N     N_R   0.442509 0.849236 0.128000 0.236499
O45   O     O_R   0.481911 0.826194 0.230292 -0.271837
O46   O     O_R   0.393207 0.795481 0.069435 -0.208875
N20   N     N_R   0.498332 0.844506 0.862101 0.233557
O47   O     O_R   0.499175 0.827264 0.737367 -0.282526
O48   O     O_R   0.518835 0.784783 0.934673 -0.149403
N21   N     N_R   0.145852 0.551791 0.155160 0.172063
O49   O     O_R   0.198324 0.523158 0.238155 -0.346444
O50   O     O_R   0.145064 0.630256 0.147630 -0.268354
N22   N     N_R   0.123445 0.593871 0.902356 0.147977
O51   O     O_R   0.083306 0.656620 0.945719 -0.243170
O52   O     O_R   0.202856 0.604564 0.905022 -0.222754
N23   N     N_R   0.127641 0.415745 0.092440 0.146987
O53   O     O_R   0.088058 0.348926 0.063848 -0.250536
O54   O     O_R   0.207027 0.412794 0.073504 -0.221604
N24   N     N_R   0.146341 0.455250 0.843181 0.171458
O55   O     O_R   0.200203 0.483285 0.760909 -0.340537
O56   O     O_R   0.143367 0.376538 0.850435 -0.278556
N25   N     N_R   0.645625 0.059895 0.151687 0.165123
O57   O     O_R   0.701150 0.037798 0.235399 -0.334546
O58   O     O_R   0.650356 0.135867 0.121204 -0.283058
N26   N     N_R   0.634977 0.081484 0.890692 0.162669
O59   O     O_R   0.714278 0.088034 0.908116 -0.208897
O60   O     O_R   0.598034 0.148381 0.875582 -0.246714
N27   N     N_R   0.636251 0.919189 0.108151 0.149506
O61   O     O_R   0.602427 0.848554 0.116108 -0.248792
O62   O     O_R   0.715462 0.917590 0.088107 -0.216391
N28   N     N_R   0.644532 0.941271 0.849109 0.170053
O63   O     O_R   0.645977 0.864474 0.874639 -0.238652
O64   O     O_R   0.702925 0.964777 0.771602 -0.317366

loop_
_geom_bond_atom_site_label_1
_geom_bond_atom_site_label_2
_geom_bond_distance
_ccdc_geom_bond_type
N28   O64   1.300924 A    
C43   C44   1.627580 S    
C44   H28   1.105871 S    
O14   Cu4   2.113777 S    
C49   C50   1.666760 S    
N15   O38   1.300639 A    
C13   C17   1.561054 S    
C49   N21   1.486523 S    
C14   H6    1.114293 S    
C25   I2    2.131820 S    
C28   C32   1.617377 S    
C15   C19   1.569913 S    
C22   C35   1.560089 S    
N11   O30   1.285606 A    
N17   O41   1.287662 A    
C51   N27   1.496224 S    
O7    Cu3   2.113432 S    
N18   O44   1.303235 A    
C27   I5    2.155020 S    
C9    C21   1.592943 S    
C41   C42   1.631437 S    
C12   N8    1.467635 S    
O13   C7    1.382169 A    
C21   H21   1.105427 S    
C18   H18   1.107514 S    
C49   N23   1.464518 S    
O10   C5    1.395100 A    
C9    N5    1.461751 S    
N18   O43   1.282069 A    
C42   H26   1.120302 S    
O5    C3    1.395386 A    
C16   N12   1.455208 S    
N5    O18   1.290361 A    
C19   H19   1.108666 S    
C20   H20   1.108736 S    
C9    C29   1.618649 S    
N20   O47   1.275282 A    
Cu4   N3    2.160961 S    
C20   C34   1.557217 S    
N7    O21   1.305158 A    
C4    C35   1.588704 S    
C5    C29   1.612567 S    
C21   H13   1.114153 S    
C10   H2    1.099047 S    
N26   O60   1.270056 A    
C11   N7    1.479049 S    
C45   H29   1.101715 S    
N8    O23   1.293532 A    
C12   C24   1.609409 S    
C24   H16   1.114373 S    
C39   I13   2.140340 S    
C41   H25   1.095781 S    
C48   N4    1.535843 S    
O11   C6    1.401526 A    
O6    Cu4   2.136720 S    
O16   C8    1.387336 A    
C48   N20   1.477766 S    
N7    O22   1.297561 A    
C43   H27   1.115194 S    
C26   C30   1.600431 S    
C50   N24   1.492800 S    
O12   C6    1.382551 A    
C25   C29   1.616587 S    
C14   C18   1.557137 S    
C44   N16   1.478737 S    
C26   C40   1.589845 S    
C24   H24   1.096323 S    
C36   C40   1.583152 S    
C14   C31   1.592382 S    
Cu3   Cu4   2.876825 S    
N22   O52   1.305783 A    
N28   O63   1.294720 A    
C10   C22   1.577745 S    
C19   H11   1.095483 S    
C17   H9    1.115043 S    
O5    Cu3   2.118496 S    
C16   C32   1.634525 S    
N23   O54   1.310273 A    
C26   I4    2.120615 S    
C14   N10   1.476311 S    
O9    Cu1   2.096156 S    
C42   N2    1.529245 S    
C41   N1    1.543968 S    
Cu2   N1    2.160961 S    
C45   N17   1.492191 S    
N6    O19   1.295612 A    
N17   O42   1.299259 A    
C2    C33   1.578418 S    
C13   C31   1.627447 S    
Cu1   N2    2.161009 S    
C27   I6    2.156893 S    
C41   N13   1.491863 S    
C40   I16   2.204035 S    
C49   N1    1.565130 S    
O7    C4    1.378373 A    
C52   N26   1.483609 S    
C15   C32   1.604087 S    
C27   C31   1.608855 S    
O14   C7    1.387012 A    
O13   Cu3   2.096156 S    
C47   N3    1.549129 S    
O3    Cu1   2.113432 S    
C16   C20   1.596662 S    
O1    C1    1.390644 A    
N19   O46   1.301477 A    
C7    C31   1.631784 S    
N19   O45   1.293716 A    
C10   C29   1.608876 S    
C8    C32   1.637459 S    
C11   C30   1.644187 S    
O16   Cu4   2.118841 S    
Cu1   Cu2   2.876825 S    
N21   O49   1.307538 A    
C21   C35   1.565713 S    
C46   N18   1.466565 S    
N26   O59   1.308583 A    
C22   H14   1.099009 S    
C13   N9    1.466296 S    
N12   O32   1.301712 A    
N27   O62   1.308415 A    
C25   C39   1.578704 S    
C42   N14   1.431729 S    
C51   N25   1.507300 S    
C39   I14   2.163447 S    
C44   N2    1.557197 S    
C34   C38   1.620525 S    
C43   N1    1.545877 S    
C33   C37   1.573720 S    
O8    C4    1.375019 A    
C37   I9    2.112687 S    
C18   H10   1.094082 S    
O9    C5    1.366355 A    
O2    Cu2   2.136720 S    
C23   H23   1.088528 S    
O10   Cu2   2.113777 S    
C15   N11   1.467667 S    
C22   H22   1.098240 S    
N9    O25   1.292198 A    
N21   O50   1.287696 A    
N6    O20   1.302040 A    
C38   I12   2.126487 S    
N22   O51   1.277947 A    
N14   O36   1.290144 A    
O6    C3    1.351237 A    
C26   I3    2.191209 S    
O8    Cu4   2.095812 S    
C43   N15   1.453372 S    
C16   H8    1.112293 S    
C23   H15   1.110185 S    
C6    C30   1.659819 S    
O4    C2    1.373623 A    
N11   O29   1.302481 A    
C52   N4    1.584005 S    
O15   Cu3   2.137066 S    
C48   H32   1.109368 S    
N10   O28   1.304057 A    
C40   I15   2.101760 S    
C47   N19   1.482313 S    
N27   O61   1.279557 A    
C20   H12   1.114124 S    
C37   I10   2.167187 S    
C12   C30   1.636633 S    
C25   I1    2.197280 S    
N24   O56   1.291583 A    
C11   C23   1.549825 S    
C38   I11   2.182718 S    
O12   Cu2   2.118841 S    
C18   C33   1.544170 S    
O4    Cu2   2.095812 S    
O1    Cu1   2.118496 S    
N23   O53   1.280475 A    
C51   N3    1.587451 S    
C13   H5    1.093932 S    
N13   O34   1.300172 A    
O15   C8    1.385532 A    
C15   H7    1.114906 S    
C46   N4    1.563240 S    
O3    C2    1.369458 A    
C24   C36   1.563974 S    
N13   O33   1.281039 A    
C35   C39   1.622266 S    
N16   O40   1.300095 A    
N25   O57   1.307635 A    
N16   O39   1.271452 A    
N20   O48   1.299628 A    
Cu3   N4    2.161009 S    
C23   C36   1.512597 S    
C17   H17   1.105894 S    
C11   H3    1.107733 S    
N12   O31   1.288906 A    
C1    C34   1.604960 S    
C12   H4    1.111257 S    
C10   N6    1.481656 S    
N8    O24   1.299731 A    
N9    O26   1.302249 A    
N25   O58   1.296244 A    
C3    C36   1.585387 S    
C45   N3    1.519327 S    
C28   I8    2.195733 S    
C51   C52   1.680281 S    
N14   O35   1.293014 A    
C28   I7    2.210341 S    
O11   Cu1   2.137066 S    
C50   N2    1.557848 S    
C9    H1    1.114009 S    
N15   O37   1.285141 A    
C52   N28   1.501229 S    
C17   C33   1.517261 S    
C19   C34   1.554548 S    
C47   H31   1.111103 S    
C45   C46   1.611862 S    
N5    O17   1.302908 A    
O2    C1    1.367559 A    
C50   N22   1.480901 S    
C46   H30   1.115419 S    
C28   C38   1.570861 S    
C47   C48   1.623281 S    
N24   O55   1.305827 A    
N10   O27   1.291409 A    
C27   C37   1.603650 S    
