data_mof_unit_39423.cif
_audit_creation_date              2012-12-10T20:31:05-0500
_audit_creation_method            fapswitch 2.2
_symmetry_space_group_name_H-M    P1
_symmetry_Int_Tables_number       1
_space_group_crystal_system       triclinic
_cell_length_a                    14.952118
_cell_length_b                    10.669552
_cell_length_c                    9.900716
_cell_angle_alpha                 89.988837
_cell_angle_beta                  90.320079
_cell_angle_gamma                 90.167276
_cell_volume                      1579.45358737

loop_
_atom_site_label
_atom_site_type_symbol
_atom_type_description
_atom_site_fract_x
_atom_site_fract_y
_atom_site_fract_z
_atom_type_partial_charge
C1    C     C_R   0.502754 0.260110 0.500111 0.871570
C2    C     C_R   0.907523 0.557758 0.607353 0.117768
C3    C     C_R   0.952426 0.382933 0.287964 -0.218891
C4    C     C_R   0.045382 0.382211 0.288314 -0.224576
C5    C     C_R   0.092506 0.440739 0.393427 0.115710
C6    C     C_R   0.046516 0.500501 0.499474 0.058936
C7    C     C_R   0.093621 0.561124 0.604817 0.123892
C8    C     C_R   0.047653 0.619242 0.710347 -0.219352
C9    C     C_R   0.954714 0.616983 0.711985 -0.219998
C10   C     C_R   0.185037 0.440262 0.394902 -0.252552
C11   C     C_R   0.231150 0.501077 0.498891 -0.056066
C12   C     C_R   0.326860 0.500299 0.499650 0.887061
C13   C     C_R   0.186102 0.562514 0.602460 -0.266678
C14   C     C_R   0.514348 0.063924 0.623086 0.140793
C15   C     C_R   0.516872 0.128728 0.501140 -0.100554
C16   C     C_R   0.536393 0.065018 0.380999 -0.231372
C17   C     C_R   0.536327 0.935393 0.380950 -0.222610
C18   C     C_R   0.516770 0.871443 0.501045 -0.104942
C19   C     C_R   0.514273 0.936129 0.623029 0.134643
C20   C     C_3   0.448334 0.928690 0.735785 -0.478107
C21   C     C_3   0.448447 0.070787 0.735877 -0.491806
C22   C     C_R   0.428733 0.545270 0.071032 0.173536
C23   C     C_R   0.502719 0.739923 0.500034 0.879447
C24   C     C_R   0.572247 0.458828 0.073075 -0.201512
C25   C     C_R   0.572355 0.457684 0.929370 0.147729
C26   C     C_R   0.427482 0.540694 0.928389 0.082804
C27   C     C_3   0.335160 0.483509 0.928582 -0.178090
C28   C     C_3   0.335272 0.497413 0.081404 -0.122073
C29   C     C_R   0.673145 0.499758 0.500301 0.888941
C30   C     C_R   0.814970 0.555932 0.607492 -0.262733
C31   C     C_R   0.768857 0.499071 0.500825 -0.061543
C32   C     C_R   0.813864 0.442179 0.394049 -0.263559
C33   C     C_R   0.906387 0.441230 0.393344 0.121229
C34   C     C_R   0.953482 0.499781 0.500090 0.059552
H1    H     H_    0.778769 0.600643 0.688946 0.154091
H2    H     H_    0.545424 0.886371 0.286224 0.173068
H3    H     H_    0.383237 0.887135 0.703922 0.200097
H4    H     H_    0.478086 0.887608 0.828886 0.204059
H5    H     H_    0.383397 0.111980 0.704102 0.200444
H6    H     H_    0.478344 0.111870 0.828976 0.201613
H7    H     H_    0.629682 0.423891 0.128148 0.150395
H8    H     H_    0.284004 0.540690 0.875770 0.164917
H9    H     H_    0.776815 0.397467 0.312640 0.146038
H10   H     H_    0.329850 0.408118 0.138840 0.182312
H11   H     H_    0.916585 0.337786 0.205805 0.144767
H12   H     H_    0.080381 0.336492 0.206469 0.149427
H13   H     H_    0.221154 0.391562 0.316294 0.148713
H14   H     H_    0.223064 0.612698 0.679796 0.138432
H15   H     H_    0.083549 0.665659 0.791639 0.141930
H16   H     H_    0.919780 0.661798 0.794462 0.146043
H17   H     H_    0.545538 0.114189 0.286301 0.169507
N1    N     N_R   0.499390 0.499140 0.142800 -0.121552
N2    N     N_R   0.499390 0.499180 0.857150 -0.104625
O1    O     O_R   0.500010 0.316790 0.614690 -0.613507
O2    O     O_R   0.500000 0.316760 0.385350 -0.629000
O3    O     O_R   0.367850 0.499990 0.614680 -0.641720
O4    O     O_R   0.367840 0.499950 0.385340 -0.603845
O5    O     O_R   0.500000 0.683240 0.614650 -0.618367
O6    O     O_R   0.499990 0.683210 0.385310 -0.613665
O7    O     O_R   0.632160 0.500050 0.614660 -0.596752
O8    O     O_R   0.632150 0.500010 0.385320 -0.632346
Zn1   Zn    Zn3+2 0.500010 0.500020 0.653130 0.948340
Zn2   Zn    Zn3+2 0.499990 0.499980 0.346870 0.946805
N3    N     N_3   0.647412 0.406541 0.860321 -0.390657
H18   H     H_    0.655612 0.313837 0.892196 0.157352
H19   H     H_    0.704317 0.456972 0.889802 0.162198
N4    N     N_3   0.333048 0.350820 0.889349 -0.450517
H20   H     H_    0.337768 0.343900 0.784670 0.234567
H21   H     H_    0.388045 0.303478 0.930509 0.186659
N5    N     N_3   0.273936 0.594140 0.129758 -0.430620
H22   H     H_    0.208664 0.561539 0.114290 0.190626
H23   H     H_    0.281041 0.676127 0.072632 0.178172

loop_
_geom_bond_atom_site_label_1
_geom_bond_atom_site_label_2
_ccdc_geom_bond_type
C24   N1    A    
C23   O5    A    
N5    H23   S    
C11   C12   S    
C29   O7    A    
C24   C25   A    
O5    Zn1   S    
C6    C7    A    
C1    C15   S    
C17   H2    S    
C13   H14   S    
C20   H4    S    
N2    Zn1   S    
C9    H16   S    
O6    Zn2   S    
C19   C20   S    
C21   H5    S    
C16   H17   S    
C2    C30   A    
C27   C28   S    
C32   C33   A    
C2    C34   A    
C17   C18   A    
C1    O2    A    
C3    H11   S    
C5    C10   A    
C29   C31   S    
C22   C28   S    
C4    C5    A    
N3    H18   S    
C23   O6    A    
C20   H3    S    
C11   C13   A    
C27   H8    S    
C26   C27   S    
C12   O3    A    
C21   H6    S    
C24   H7    S    
C30   H1    S    
C1    O1    A    
C5    C6    A    
C12   O4    A    
C14   C19   A    
C14   C21   S    
O7    Zn1   S    
N4    H20   S    
C32   H9    S    
C25   N2    A    
C33   C34   A    
O3    Zn1   S    
C30   C31   A    
C29   O8    A    
C27   N4    S    
C10   C11   A    
C3    C33   A    
C18   C23   S    
C26   N2    A    
C6    C34   A    
C7    C13   A    
N5    H22   S    
C20   C21   S    
C22   N1    A    
C18   C19   A    
C22   C26   A    
C10   H13   S    
O8    Zn2   S    
C7    C8    A    
C14   C15   A    
C16   C17   A    
C4    H12   S    
O1    Zn1   S    
C25   N3    S    
C2    C9    A    
C8    H15   S    
C28   H10   S    
C31   C32   A    
C28   N5    S    
C3    C4    A    
C15   C16   A    
O4    Zn2   S    
N3    H19   S    
C8    C9    A    
N4    H21   S    
N1    Zn2   S    
O2    Zn2   S    
