data_mof_unit_10067.cif
_audit_creation_date              2012-12-10T19:00:45-0500
_audit_creation_method            fapswitch 2.2
_symmetry_space_group_name_H-M    P1
_symmetry_Int_Tables_number       1
_space_group_crystal_system       triclinic
_cell_length_a                    15.016537
_cell_length_b                    10.842551
_cell_length_c                    9.70231
_cell_angle_alpha                 90.32715
_cell_angle_beta                  89.761517
_cell_angle_gamma                 93.050747
_cell_volume                      1577.43025299

loop_
_atom_site_label
_atom_site_type_symbol
_atom_type_description
_atom_site_fract_x
_atom_site_fract_y
_atom_site_fract_z
_atom_type_partial_charge
C1    C     C_R   0.497244 0.262837 0.499851 0.801355
C2    C     C_R   0.910431 0.619577 0.451355 0.058057
C3    C     C_R   0.944142 0.305761 0.591218 -0.150230
C4    C     C_R   0.036902 0.301008 0.589536 -0.025852
C5    C     C_R   0.089301 0.406290 0.544623 0.038494
C6    C     C_R   0.047585 0.513196 0.497653 0.050816
C7    C     C_R   0.099649 0.618263 0.449669 0.017631
C8    C     C_R   0.055856 0.727052 0.415457 -0.036845
C9    C     C_R   0.963091 0.722298 0.405743 -0.146881
C10   C     C_R   0.182321 0.409005 0.548671 -0.253773
C11   C     C_R   0.233374 0.509136 0.498034 -0.100066
C12   C     C_R   0.329570 0.501815 0.499799 0.777478
C13   C     C_R   0.193328 0.609713 0.437486 -0.077361
C14   C     C_R   0.498212 0.066146 0.624532 0.076466
C15   C     C_R   0.487711 0.129184 0.501473 -0.090736
C16   C     C_R   0.465603 0.060679 0.382183 -0.157607
C17   C     C_R   0.464159 0.932063 0.384714 -0.232693
C18   C     C_R   0.491121 0.870552 0.503028 -0.102349
C19   C     C_R   0.503153 0.939534 0.624611 0.071269
C20   C     C_3   0.576089 0.946880 0.730140 -0.256621
C21   C     C_3   0.567930 0.086373 0.732175 -0.394705
C22   C     C_R   0.572525 0.540964 0.070947 0.200191
C23   C     C_R   0.499105 0.737356 0.500707 0.741135
C24   C     C_R   0.433322 0.439383 0.075913 0.036624
C25   C     C_R   0.431747 0.440264 0.927143 0.187135
C26   C     C_R   0.576296 0.530012 0.926845 0.136975
C27   C     C_3   0.641326 0.639656 0.916176 -0.099253
C28   C     C_3   0.627354 0.660349 0.071589 -0.097425
C29   C     C_R   0.670571 0.503205 0.499527 0.776159
C30   C     C_R   0.815706 0.618685 0.452455 -0.037749
C31   C     C_R   0.767276 0.511091 0.497631 -0.143100
C32   C     C_R   0.810335 0.409604 0.545536 -0.229266
C33   C     C_R   0.902762 0.410258 0.546134 0.067062
C34   C     C_R   0.953640 0.514706 0.498792 0.039013
Cu1   Cu    Cu3+1 0.500000 0.499980 0.640670 0.926094
Cu2   Cu    Cu3+1 0.500000 0.500020 0.359330 0.957983
H1    H     H_    0.445028 0.881553 0.292974 0.183241
H2    H     H_    0.554990 0.903163 0.828173 0.146142
H3    H     H_    0.539329 0.120628 0.830197 0.182631
H4    H     H_    0.626796 0.142864 0.693831 0.223482
H5    H     H_    0.617276 0.711400 0.847252 0.168193
H6    H     H_    0.688584 0.653692 0.134260 0.142552
H7    H     H_    0.771084 0.328888 0.581165 0.153555
H8    H     H_    0.903326 0.225895 0.624907 0.208773
H9    H     H_    0.217375 0.332353 0.587887 0.121274
H10   H     H_    0.933253 0.802744 0.365973 0.239778
H11   H     H_    0.453139 0.105270 0.285874 0.223646
N1    N     N_R   0.500570 0.500930 0.147930 -0.228020
N2    N     N_R   0.500570 0.500890 0.852020 -0.213757
O1    O     O_R   0.500000 0.319640 0.618810 -0.603659
O2    O     O_R   0.500010 0.319680 0.381230 -0.543635
O3    O     O_R   0.370250 0.499950 0.618800 -0.579620
O4    O     O_R   0.370260 0.499990 0.381220 -0.601254
O5    O     O_R   0.499990 0.680320 0.618770 -0.589110
O6    O     O_R   0.500000 0.680360 0.381190 -0.591731
O7    O     O_R   0.629740 0.500010 0.618780 -0.587987
O8    O     O_R   0.629750 0.500050 0.381200 -0.583244
C35   C     C_2   0.765220 0.728345 0.413390 0.273000
H12   H     H_    0.700191 0.715997 0.366290 0.075732
O9    O     O_2   0.792260 0.833445 0.441717 -0.510748
C36   C     C_2   0.663752 0.905213 0.676285 0.444806
H13   H     H_    0.667803 0.811246 0.639261 0.070441
O10   O     O_2   0.730898 0.973912 0.677380 -0.496914
C37   C     C_2   0.363144 0.367397 0.151657 0.456755
H14   H     H_    0.302443 0.409793 0.182723 0.088803
O11   O     O_2   0.370068 0.257663 0.172056 -0.588361
C38   C     C_3   0.356068 0.363436 0.858946 -0.355632
C39   C     C_3   0.267019 0.426833 0.867336 -0.781406
H15   H     H_    0.269914 0.515639 0.811280 0.277954
H16   H     H_    0.213066 0.364510 0.824451 0.237620
H17   H     H_    0.247747 0.447598 0.974572 0.230535
H18   H     H_    0.370996 0.334108 0.753716 0.243118
H19   H     H_    0.347471 0.272425 0.910384 0.195180
C40   C     C_3   0.737338 0.603030 0.883550 -0.432490
C41   C     C_3   0.805502 0.711783 0.899381 -0.751985
H20   H     H_    0.789690 0.787456 0.828945 0.280457
H21   H     H_    0.806944 0.747237 0.006905 0.251563
H22   H     H_    0.872919 0.681320 0.872707 0.255878
H23   H     H_    0.756564 0.527009 0.952115 0.213634
H24   H     H_    0.741894 0.569074 0.776721 0.247656
C42   C     C_3   0.578848 0.780175 0.100126 -0.377188
C43   C     C_3   0.481591 0.778937 0.050662 -0.788823
H25   H     H_    0.458394 0.874453 0.052587 0.233608
H26   H     H_    0.474362 0.743685 0.943660 0.245966
H27   H     H_    0.437460 0.720963 0.118912 0.275719
H28   H     H_    0.582190 0.801736 0.211384 0.227919
H29   H     H_    0.617279 0.857706 0.049196 0.204853
C44   C     C_2   0.076012 0.183182 0.630636 0.408827
H30   H     H_    0.142191 0.160597 0.597871 0.062599
O12   O     O_2   0.033244 0.107335 0.700310 -0.509843
C45   C     C_2   0.249684 0.696058 0.351119 0.317194
H31   H     H_    0.314573 0.730432 0.387309 0.070649
O13   O     O_2   0.225455 0.724815 0.236240 -0.523000
C46   C     C_2   0.102978 0.851212 0.407666 0.503687
H32   H     H_    0.164717 0.870234 0.463306 0.039210
O14   O     O_2   0.072273 0.934674 0.341883 -0.515651

loop_
_geom_bond_atom_site_label_1
_geom_bond_atom_site_label_2
_ccdc_geom_bond_type
C22   N1    A    
C19   C20   S    
C25   C38   S    
C42   C43   S    
C7    C8    A    
C26   C27   S    
C5    C6    A    
C14   C21   S    
C18   C19   A    
C30   C31   A    
C3    C33   A    
C35   O9    D    
C15   C16   A    
C36   O10   D    
C38   H18   S    
C20   C36   S    
C41   H21   S    
Cu2   O4    S    
Cu1   Cu2   S    
C8    C9    A    
Cu1   N2    S    
C1    C15   S    
C27   C40   S    
C1    O1    A    
C42   H28   S    
C2    C34   A    
Cu1   O7    S    
C9    H10   S    
C24   C37   S    
C40   H24   S    
C13   C45   S    
Cu1   O5    S    
C36   H13   S    
Cu1   O1    S    
C16   H11   S    
C12   O3    A    
C17   C18   A    
C3    H8    S    
C40   C41   S    
C38   C39   S    
C24   N1    A    
C8    C46   S    
C24   C25   A    
Cu2   O8    S    
C26   N2    A    
C45   H31   S    
C39   H15   S    
C35   H12   S    
C18   C23   S    
C37   O11   D    
C41   H20   S    
C45   O13   D    
C20   H2    S    
C27   H5    S    
C31   C32   A    
C21   H3    S    
C10   H9    S    
C33   C34   A    
C17   H1    S    
C20   C21   S    
C46   O14   D    
C1    O2    A    
C42   H29   S    
Cu2   O2    S    
C38   H19   S    
C29   O8    A    
C43   H26   S    
C40   H23   S    
C3    C4    A    
Cu1   O3    S    
C23   O5    A    
C28   C42   S    
C14   C19   A    
C12   O4    A    
C44   O12   D    
C4    C5    A    
C11   C12   S    
C23   O6    A    
C6    C7    A    
C4    C44   S    
C29   O7    A    
C43   H27   S    
C2    C30   A    
C37   H14   S    
C5    C10   A    
C29   C31   S    
Cu2   O6    S    
C32   C33   A    
C11   C13   A    
C16   C17   A    
C21   H4    S    
C39   H17   S    
C30   C35   S    
C28   H6    S    
C32   H7    S    
Cu2   N1    S    
C46   H32   S    
C41   H22   S    
C25   N2    A    
C10   C11   A    
C6    C34   A    
C7    C13   A    
C44   H30   S    
C39   H16   S    
C43   H25   S    
C22   C26   A    
C27   C28   S    
C14   C15   A    
C22   C28   S    
C2    C9    A    
