data_mof_unit_56248.cif
_audit_creation_date              2012-12-11T15:52:28-0500
_audit_creation_method            fapswitch 2.2
_symmetry_space_group_name_H-M    P1
_symmetry_Int_Tables_number       1
_space_group_crystal_system       triclinic
_cell_length_a                    6.925124
_cell_length_b                    14.572223
_cell_length_c                    15.98678
_cell_angle_alpha                 90.280483
_cell_angle_beta                  90.035199
_cell_angle_gamma                 90.051172
_cell_volume                      1613.27684756

loop_
_atom_site_label
_atom_site_type_symbol
_atom_type_description
_atom_site_fract_x
_atom_site_fract_y
_atom_site_fract_z
_atom_type_partial_charge
O1    O     O_R   0.494400 0.415640 0.412830 -0.516984
O2    O     O_R   0.823920 0.405510 0.586560 -0.549126
O3    O     O_R   0.994250 0.584360 0.587170 -0.544333
C1    C     C_R   0.654850 0.383150 0.615341 0.672418
O4    O     O_R   0.824110 0.404610 0.413450 -0.537586
O5    O     O_R   0.994440 0.583460 0.412820 -0.540201
C2    C     C_R   0.655003 0.382667 0.384028 0.727286
O6    O     O_R   0.494210 0.416540 0.587180 -0.542936
O7    O     O_3   0.660810 0.558680 0.500000 -0.376285
V1    V     V_3+5 0.935650 0.489110 0.500000 1.452473
O8    O     O_R   0.324150 0.594490 0.413440 -0.538128
C3    C     C_R   0.155071 0.616660 0.384341 0.724349
O9    O     O_R   0.323970 0.595390 0.586550 -0.549135
C4    C     C_R   0.155369 0.616388 0.616561 0.660325
V2    V     V_3+5 0.435660 0.510890 0.500000 1.447917
O10   O     O_3   0.160630 0.441320 0.500000 -0.359559
C5    C     C_3   0.014698 0.648005 0.760433 -0.315225
H1    H     H_    0.871886 0.626031 0.735411 0.136553
H2    H     H_    0.083320 0.586497 0.788599 0.183272
C6    C     C_3   0.982181 0.723110 0.828401 0.045906
H3    H     H_    0.832534 0.749701 0.820760 0.114702
H4    H     H_    0.912360 0.768270 0.636419 0.148752
H5    H     H_    0.922491 0.882471 0.735737 0.140654
C7    C     C_3   0.063507 0.777802 0.658550 -0.332240
C8    C     C_3   0.349537 0.702697 0.725952 -0.294276
C9    C     C_3   0.145676 0.684637 0.688646 0.040824
H6    H     H_    0.442014 0.735864 0.677759 0.122584
H7    H     H_    0.420445 0.636206 0.740190 0.178091
C10   C     C_3   0.125490 0.804852 0.815009 0.002231
C11   C     C_3   0.067357 0.849895 0.730479 -0.383107
C12   C     C_3   0.337753 0.767135 0.803912 -0.127697
H8    H     H_    0.434525 0.826422 0.790742 0.077697
H9    H     H_    0.149269 0.803652 0.604731 0.142768
H10   H     H_    0.171514 0.905409 0.714770 0.150476
C13   C     C_R   0.953895 0.770559 0.213265 -0.090834
H11   H     H_    0.813427 0.786953 0.187607 0.128770
C14   C     C_R   0.964806 0.707691 0.279095 -0.119313
H12   H     H_    0.832230 0.677346 0.301886 0.124264
C15   C     C_R   0.144007 0.684226 0.314791 -0.049329
C16   C     C_R   0.312051 0.725137 0.282511 -0.114180
H13   H     H_    0.452556 0.708645 0.308074 0.121947
C17   C     C_R   0.301115 0.788091 0.216745 -0.112920
H14   H     H_    0.433694 0.818426 0.193938 0.125513
C18   C     C_R   0.121827 0.811876 0.181322 -0.035828
C19   C     C_R   0.812216 0.273788 0.715758 -0.144754
H15   H     H_    0.952938 0.292007 0.691437 0.118382
C20   C     C_R   0.801301 0.209115 0.779997 -0.140987
H16   H     H_    0.934126 0.179403 0.803152 0.118133
C21   C     C_R   0.621694 0.183157 0.813705 -0.044023
C22   C     C_R   0.453292 0.223553 0.781364 -0.144376
H17   H     H_    0.312559 0.205316 0.805661 0.118234
C23   C     C_R   0.464210 0.288235 0.717136 -0.131588
H18   H     H_    0.331384 0.317942 0.693975 0.119347
C24   C     C_R   0.643818 0.314213 0.683453 -0.042069
C25   C     C_R   0.746249 0.227710 0.322780 -0.069013
C26   C     C_R   0.732202 0.160990 0.257767 0.172150
C27   C     C_R   0.621481 0.179388 0.185314 -0.140475
C28   C     C_R   0.520616 0.262285 0.180100 -0.165862
H19   H     H_    0.435780 0.276949 0.124795 0.150984
C29   C     C_R   0.530807 0.327946 0.244089 0.186926
C30   C     C_R   0.643720 0.311846 0.316277 -0.185070
O11   O     O_R   0.771300 0.080930 0.910090 -0.543773
O12   O     O_R   0.441270 0.092800 0.083770 -0.534528
O13   O     O_R   0.271080 0.913920 0.084380 -0.543698
C31   C     C_R   0.610127 0.113094 0.114376 0.754931
O14   O     O_R   0.441580 0.091910 0.910670 -0.546988
O15   O     O_R   0.271390 0.913020 0.910040 -0.558458
C32   C     C_R   0.610655 0.114257 0.881868 0.675676
O16   O     O_R   0.770990 0.081830 0.084440 -0.522975
O17   O     O_3   0.604750 0.938760 0.997250 -0.379725
V3    V     V_3+5 0.329850 0.008280 0.997210 1.440516
O18   O     O_R   0.941680 0.901940 0.910610 -0.539961
C33   C     C_R   0.111521 0.877168 0.883838 0.658828
O19   O     O_R   0.941370 0.902830 0.083720 -0.531593
C34   C     C_R   0.110549 0.880225 0.112442 0.745388
V4    V     V_3+5 0.829860 0.986420 0.997150 1.456186
O20   O     O_3   0.104830 0.056030 0.997180 -0.362019
C35   C     C_2   0.860513 0.208752 0.399439 0.481988
H20   H     H_    0.806376 0.230175 0.460169 0.003566
O21   O     O_2   0.019644 0.173082 0.395347 -0.503975
I1    I     I_    0.850579 0.026402 0.274365 -0.373256
I2    I     I_    0.381990 0.453172 0.222755 -0.351886
I3    I     I_    0.976904 0.665196 0.952524 -0.339723
C36   C     C_2   0.417929 0.723461 0.882853 0.419272
H21   H     H_    0.449068 0.766059 0.936972 0.081497
O22   O     O_2   0.449784 0.641217 0.887552 -0.501778

loop_
_geom_bond_atom_site_label_1
_geom_bond_atom_site_label_2
_ccdc_geom_bond_type
C8    C12   S    
O14   C32   A    
C25   C26   A    
O12   C31   A    
C21   C32   S    
C13   H11   S    
O18   V4    S    
C26   I1    S    
C20   C21   A    
C19   H15   S    
C8    H7    S    
C10   C11   S    
O19   V4    S    
C5    C9    S    
C13   C14   A    
C7    C9    S    
O5    C3    A    
C35   O21   D    
C10   C33   S    
C28   C29   A    
V2    O10   S    
C5    C6    S    
C26   C27   A    
O16   V4    S    
O13   V3    S    
C2    C30   S    
O8    V2    S    
C20   H16   S    
C22   C23   A    
O17   V3    S    
O15   C33   A    
O7    V1    S    
C1    O6    A    
C16   C17   A    
O9    C4    A    
O11   V4    S    
C17   C18   A    
C23   C24   A    
C22   H17   S    
C6    C10   S    
C19   C20   A    
O19   C34   A    
C11   H10   S    
H5    C11   S    
C36   H21   S    
C27   C31   S    
C15   C16   A    
O4    C2    A    
C25   C35   S    
C35   H20   S    
C28   H19   S    
C4    C9    S    
C12   C36   S    
C29   C30   A    
C18   C34   S    
O2    C1    A    
C14   H12   S    
O14   V3    S    
C5    H1    S    
V4    O20   S    
C13   C18   A    
O3    C4    A    
C29   I2    S    
O1    V2    S    
C16   H13   S    
O12   V3    S    
C19   C24   A    
O6    V2    S    
O9    V2    S    
O17   V4    S    
H4    C7    S    
C17   H14   S    
O2    V1    S    
V3    O20   S    
C23   H18   S    
C1    C24   S    
O1    C2    A    
C12   H8    S    
C36   O22   D    
O18   C33   A    
O5    V1    S    
O8    C3    A    
C8    H6    S    
C7    H9    S    
O11   C32   A    
C3    C15   S    
C8    C9    S    
O4    V1    S    
C10   C12   S    
O3    V1    S    
V1    O10   S    
C27   C28   A    
C31   O16   A    
C25   C30   A    
C5    H2    S    
O13   C34   A    
O15   V3    S    
O7    V2    S    
C7    C11   S    
C6    H3    S    
C14   C15   A    
C21   C22   A    
C6    I3    S    
