data_mof_unit_33752.cif
_audit_creation_date              2012-12-10T17:02:15-0500
_audit_creation_method            fapswitch 2.2
_symmetry_space_group_name_H-M    P1
_symmetry_Int_Tables_number       1
_space_group_crystal_system       triclinic
_cell_length_a                    10.666936
_cell_length_b                    10.650412
_cell_length_c                    10.139693
_cell_angle_alpha                 87.13864
_cell_angle_beta                  89.39325
_cell_angle_gamma                 89.324519
_cell_volume                      1150.36894616

loop_
_atom_site_label
_atom_site_type_symbol
_atom_type_description
_atom_site_fract_x
_atom_site_fract_y
_atom_site_fract_z
_atom_type_partial_charge
C1    C     C_R   0.491909 0.263092 0.503315 0.864155
C2    C     C_R   0.066248 0.390702 0.569836 -0.011418
C3    C     C_R   0.127686 0.491436 0.500692 -0.114482
C4    C     C_R   0.061191 0.585648 0.428757 0.262968
C5    C     C_R   0.933202 0.581457 0.427059 -0.233616
C6    C     C_R   0.871084 0.486640 0.499036 -0.079218
C7    C     C_2   0.428084 0.936276 0.419173 -0.232962
C8    C     C_2   0.516732 0.870097 0.485244 0.413897
C9    C     C_2   0.432840 0.071559 0.408075 -0.107657
C10   C     C_2   0.465869 0.132306 0.513489 -0.241560
C11   C     C_2   0.537522 0.591695 0.923276 0.396031
C12   C     C_R   0.260594 0.498701 0.500474 0.881195
C13   C     C_2   0.497572 0.598725 0.065312 0.364225
C14   C     C_R   0.502810 0.737065 0.496613 0.816373
C15   C     C_R   0.738887 0.494935 0.499747 0.855106
C16   C     C_R   0.132217 0.291791 0.637144 -0.305346
C17   C     C_R   0.069484 0.198868 0.713282 0.447836
C18   C     C_R   0.937227 0.193527 0.708875 0.462899
C19   C     C_R   0.871655 0.289183 0.638743 -0.273558
C20   C     C_R   0.935015 0.389130 0.570433 0.019645
H1    H     H_    0.473255 0.084246 0.610422 0.203088
H2    H     H_    0.232994 0.285881 0.632467 0.168525
H3    H     H_    0.770553 0.282962 0.637307 0.194806
H4    H     H_    0.881456 0.655025 0.372617 0.169773
H5    H     H_    0.352801 0.890276 0.369978 0.198636
H6    H     H_    0.412137 0.119836 0.313738 0.189502
N1    N     N_2   0.501340 0.501330 0.852150 0.054451
N2    N     N_2   0.501380 0.501360 0.147810 -0.012404
O1    O     O_R   0.499980 0.319060 0.613040 -0.666674
O2    O     O_R   0.500020 0.319100 0.386900 -0.568191
O3    O     O_R   0.316750 0.499980 0.613090 -0.594853
O4    O     O_R   0.316790 0.500020 0.386950 -0.569329
O5    O     O_R   0.499980 0.680900 0.613100 -0.567786
O6    O     O_R   0.500020 0.680940 0.386960 -0.602950
O7    O     O_R   0.683210 0.499980 0.613050 -0.603327
O8    O     O_R   0.683250 0.500020 0.386910 -0.577730
Zn1   Zn    Zn3+2 0.499970 0.499970 0.650990 1.031235
Zn2   Zn    Zn3+2 0.500030 0.500030 0.349010 1.070798
Br1   Br    Br    0.138814 0.726794 0.336829 -0.502650
Br2   Br    Br    0.652633 0.714714 0.853129 -0.458462
O9    O     O_3   0.405668 0.434850 0.908025 -0.561820
C21   C     C_3   0.424363 0.307297 0.882593 -0.023283
H7    H     H_    0.523387 0.281996 0.858349 0.178627
H8    H     H_    0.361085 0.280681 0.803792 0.164563
H9    H     H_    0.397933 0.249890 0.972664 0.145637
Br3   Br    Br    0.422471 0.753460 0.114381 -0.420101
Br4   Br    Br    0.621440 0.375090 0.109312 -0.419800
O10   O     O_3   0.139494 0.112278 0.788064 -0.625221
C22   C     C_3   0.132883 0.144572 0.921292 -0.270576
H10   H     H_    0.037862 0.127234 0.963988 0.211007
H11   H     H_    0.159098 0.244268 0.933268 0.169871
H12   H     H_    0.200223 0.084235 0.978937 0.207880
O11   O     O_3   0.867861 0.101995 0.778166 -0.606109
C23   C     C_3   0.911082 0.979624 0.752070 -0.124220
H13   H     H_    0.972620 0.942872 0.832974 0.209607
H14   H     H_    0.829054 0.917013 0.750666 0.222767
H15   H     H_    0.960739 0.973348 0.655287 0.127569
O12   O     O_3   0.622254 0.926992 0.534206 -0.595543
C24   C     C_3   0.732083 0.870640 0.483965 -0.260214
H16   H     H_    0.755443 0.783056 0.543146 0.167171
H17   H     H_    0.810598 0.936833 0.491736 0.193378
H18   H     H_    0.724592 0.851101 0.377325 0.167840

loop_
_geom_bond_atom_site_label_1
_geom_bond_atom_site_label_2
_ccdc_geom_bond_type
C14   O6    A    
C19   H3    S    
C17   O10   S    
C13   N2    D    
N2    Zn2   S    
C2    C16   A    
C9    C10   D    
N1    O9    S    
C19   C20   A    
C7    H5    S    
C4    Br1   S    
C11   N1    D    
C22   H12   S    
C14   O5    A    
O8    Zn2   S    
C17   C18   A    
C6    C15   S    
C24   H16   S    
N2    Br4   S    
C12   O3    A    
O11   C23   S    
C12   O4    A    
C11   C13   S    
C5    C6    A    
C5    H4    S    
C21   H8    S    
N1    Zn1   S    
C1    O1    A    
C1    O2    A    
O7    Zn1   S    
C9    H6    S    
C2    C3    A    
O4    Zn2   S    
C10   H1    S    
C13   Br3   S    
C23   H14   S    
C24   H17   S    
O1    Zn1   S    
C21   H7    S    
C2    C20   A    
C11   Br2   S    
O3    Zn1   S    
C15   O8    A    
C7    C8    D    
C6    C20   A    
O2    Zn2   S    
C22   H10   S    
O9    C21   S    
C15   O7    A    
C7    C9    S    
C18   C19   A    
C23   H13   S    
O10   C22   S    
C24   H18   S    
C16   H2    S    
C3    C12   S    
C8    C14   S    
C18   O11   S    
C8    O12   S    
O12   C24   S    
O6    Zn2   S    
C21   H9    S    
O5    Zn1   S    
C1    C10   S    
C3    C4    A    
C16   C17   A    
C4    C5    A    
C22   H11   S    
C23   H15   S    
