data_mof_unit_36796.cif
_audit_creation_date              2012-12-10T17:09:51-0500
_audit_creation_method            fapswitch 2.2
_symmetry_space_group_name_H-M    P1
_symmetry_Int_Tables_number       1
_space_group_crystal_system       triclinic
_cell_length_a                    10.757005
_cell_length_b                    13.011461
_cell_length_c                    11.775819
_cell_angle_alpha                 99.93103
_cell_angle_beta                  92.196631
_cell_angle_gamma                 91.566691
_cell_volume                      1621.34008422

loop_
_atom_site_label
_atom_site_type_symbol
_atom_type_description
_atom_site_fract_x
_atom_site_fract_y
_atom_site_fract_z
_atom_type_partial_charge
C1    C     C_R   0.497012 0.299555 0.478540 0.788979
C2    C     C_R   0.065036 0.417118 0.559228 0.094948
C3    C     C_R   0.128735 0.488626 0.502249 -0.095740
C4    C     C_R   0.063690 0.552502 0.438902 -0.205273
C5    C     C_R   0.935838 0.551477 0.436266 -0.236765
C6    C     C_R   0.870263 0.485309 0.495494 -0.097550
C7    C     C_R   0.496164 0.814115 0.531442 -0.099757
C8    C     C_R   0.488475 0.186447 0.465346 -0.092356
C9    C     C_R   0.424065 0.018927 0.349823 0.244671
C10   C     C_R   0.440382 0.127219 0.362093 -0.236412
C11   C     C_R   0.526658 0.137870 0.556350 -0.266791
C12   C     C_R   0.262761 0.495573 0.501012 0.785113
C13   C     C_R   0.515010 0.030069 0.545937 0.099280
C14   C     C_R   0.460117 0.968507 0.443617 0.047022
C15   C     C_R   0.443854 0.859512 0.440645 0.184583
C16   C     C_R   0.551102 0.876746 0.629706 -0.250890
C17   C     C_R   0.558162 0.983945 0.637931 -0.201439
C18   C     C_R   0.369514 0.406882 0.025960 0.159076
C19   C     C_R   0.383443 0.419218 0.148879 -0.010276
C20   C     C_R   0.558855 0.534702 0.150186 0.298903
C21   C     C_R   0.535497 0.537570 0.031116 -0.037433
C22   C     C_R   0.448282 0.467057 0.966342 -0.039325
C23   C     C_R   0.498207 0.700539 0.521185 0.829750
C24   C     C_R   0.444105 0.459699 0.843616 -0.018837
C25   C     C_R   0.601159 0.593023 0.854192 0.476569
C26   C     C_R   0.603101 0.606607 0.974261 -0.370669
C27   C     C_R   0.736918 0.495000 0.498169 0.788809
C28   C     C_R   0.128454 0.345088 0.615727 -0.181905
C29   C     C_R   0.062793 0.274489 0.669493 -0.124704
C30   C     C_R   0.933351 0.272428 0.665710 -0.142096
C31   C     C_R   0.868764 0.341075 0.608308 -0.192435
C32   C     C_R   0.933332 0.415150 0.555429 0.095155
Cu1   Cu    Cu3+1 0.509250 0.507730 0.615930 0.948162
Cu2   Cu    Cu3+1 0.490750 0.492270 0.384070 0.941888
H1    H     H_    0.112478 0.604993 0.392649 0.156651
H2    H     H_    0.600541 0.030865 0.715517 0.137598
H3    H     H_    0.414969 0.165642 0.290456 0.167564
H4    H     H_    0.566741 0.184130 0.635470 0.151615
H5    H     H_    0.378353 0.406415 0.790090 0.138159
H6    H     H_    0.660443 0.670485 0.021956 0.159615
H7    H     H_    0.323016 0.376086 0.196308 0.151394
H8    H     H_    0.228609 0.340775 0.617160 0.139273
H9    H     H_    0.112574 0.220021 0.712698 0.132087
H10   H     H_    0.882654 0.216304 0.705913 0.128768
H11   H     H_    0.768338 0.333685 0.603983 0.149896
H12   H     H_    0.888501 0.605131 0.390540 0.155042
H13   H     H_    0.590044 0.842769 0.700061 0.161943
N1    N     N_R   0.523180 0.519350 0.790130 -0.194341
N2    N     N_R   0.476820 0.480650 0.209890 -0.207367
O1    O     O_R   0.506570 0.354460 0.582000 -0.606878
O2    O     O_R   0.490940 0.341410 0.386200 -0.591412
O3    O     O_R   0.327470 0.506530 0.597920 -0.587674
O4    O     O_R   0.311840 0.493480 0.402120 -0.580278
O5    O     O_R   0.509060 0.658590 0.613800 -0.568233
O6    O     O_R   0.493430 0.645540 0.418000 -0.547404
O7    O     O_R   0.688160 0.506520 0.597880 -0.556153
O8    O     O_R   0.672530 0.493470 0.402080 -0.590659
N3    N     N_2   0.679555 0.657303 0.799623 -0.383016
H14   H     H_    0.663429 0.735444 0.825012 0.214370
C33   C     C_3   0.810867 0.637175 0.810618 -0.676067
H15   H     H_    0.863150 0.680229 0.753046 0.227092
H16   H     H_    0.827458 0.552534 0.785366 0.251980
H17   H     H_    0.846827 0.663862 0.900940 0.196475
N4    N     N_2   0.277821 0.335793 0.961742 -0.430545
H18   H     H_    0.311524 0.284652 0.893983 0.239982
C34   C     C_3   0.179783 0.291428 0.021030 -0.709295
H19   H     H_    0.109990 0.249073 0.956561 0.227518
H20   H     H_    0.131697 0.354161 0.077206 0.238850
H21   H     H_    0.218556 0.235107 0.072794 0.210246
C35   C     C_3   0.689250 0.573270 0.198123 -0.317534
C36   C     C_3   0.695312 0.684295 0.267742 -0.797286
H22   H     H_    0.615116 0.729658 0.244566 0.239111
H23   H     H_    0.698986 0.683330 0.361423 0.255986
H24   H     H_    0.781918 0.725845 0.249467 0.205628
H25   H     H_    0.739269 0.514937 0.236792 0.207404
H26   H     H_    0.754032 0.573185 0.127051 0.149632
N5    N     N_2   0.367234 0.795163 0.353713 -0.396761
H27   H     H_    0.396180 0.785118 0.270351 0.270622
C37   C     C_3   0.234748 0.801491 0.368636 -0.638629
H28   H     H_    0.184096 0.746953 0.298052 0.212035
H29   H     H_    0.203742 0.881786 0.366731 0.237083
H30   H     H_    0.211504 0.779579 0.452613 0.210967
N6    N     N_2   0.383041 0.961207 0.240237 -0.437013
H31   H     H_    0.454563 0.941417 0.185629 0.241576
C38   C     C_3   0.274190 0.996774 0.184078 -0.712663
H32   H     H_    0.233988 0.931820 0.118161 0.234892
H33   H     H_    0.299955 0.062688 0.140024 0.212852
H34   H     H_    0.202214 0.021342 0.247511 0.233049

loop_
_geom_bond_atom_site_label_1
_geom_bond_atom_site_label_2
_ccdc_geom_bond_type
C6    C32   A    
C21   C26   A    
C1    C8    S    
C34   H20   S    
C18   N4    S    
N5    H27   S    
Cu1   O3    S    
Cu2   O2    S    
C20   N2    A    
C10   H3    S    
C33   H16   S    
C28   C29   A    
C5    C6    A    
C34   H21   S    
N3    C33   S    
C24   H5    S    
C2    C32   A    
C18   C19   A    
C3    C12   S    
C6    C27   S    
C16   C17   A    
Cu2   O8    S    
C35   C36   S    
C17   H2    S    
C1    O1    A    
C12   O4    A    
Cu1   O7    S    
N5    C37   S    
C34   H19   S    
C4    H1    S    
Cu2   O6    S    
C21   C22   A    
C29   H9    S    
C30   H10   S    
C16   H13   S    
C12   O3    A    
C38   H33   S    
C24   N1    A    
C27   O8    A    
C37   H29   S    
C27   O7    A    
C7    C15   A    
C25   C26   A    
C38   H32   S    
C33   H15   S    
N4    C34   S    
C11   H4    S    
C9    C14   A    
C29   C30   A    
C36   H24   S    
C19   N2    A    
C31   C32   A    
C30   C31   A    
Cu1   Cu2   S    
C1    O2    A    
C25   N1    A    
C9    N6    S    
C7    C16   A    
N6    C38   S    
C33   H17   S    
C35   H26   S    
C22   C24   A    
N6    H31   S    
C25   N3    S    
C3    C4    A    
C20   C35   S    
C23   O5    A    
C36   H23   S    
C9    C10   A    
C38   H34   S    
Cu1   O5    S    
Cu2   N2    S    
C18   C22   A    
C4    C5    A    
C37   H30   S    
C23   O6    A    
C5    H12   S    
C13   C17   A    
N4    H18   S    
C2    C3    A    
Cu1   O1    S    
C36   H22   S    
C11   C13   A    
C26   H6    S    
C15   N5    S    
C8    C11   A    
C7    C23   S    
C28   H8    S    
N3    H14   S    
C37   H28   S    
C20   C21   A    
Cu2   O4    S    
C8    C10   A    
C31   H11   S    
C35   H25   S    
Cu1   N1    S    
C14   C15   A    
C2    C28   A    
C13   C14   A    
C19   H7    S    
