data_mof_unit_47198.cif
_audit_creation_date              2013-03-05T15:50:47-0500
_audit_creation_method            fapswitch 2.2
_symmetry_space_group_name_H-M    P1
_symmetry_Int_Tables_number       1
_space_group_crystal_system       triclinic
_cell_length_a                    14.301399
_cell_length_b                    14.795152
_cell_length_c                    33.221238
_cell_angle_alpha                 97.818273
_cell_angle_beta                  90.37964
_cell_angle_gamma                 118.685925
_cell_volume                      6088.30055951

loop_
_atom_site_label
_atom_site_type_symbol
_atom_site_description
_atom_site_fract_x
_atom_site_fract_y
_atom_site_fract_z
_atom_type_partial_charge
O1    O     O_R   0.318160 0.824460 0.443680 -0.528018
O2    O     O_R   0.525040 0.857250 0.449830 -0.505303
C1    C     C_R   0.617021 0.909713 0.437220 0.534366
O3    O     O_R   0.684760 0.998800 0.456360 -0.519592
O4    O     O_R   0.647540 0.166310 0.470260 -0.513589
C2    C     C_R   0.594149 0.205805 0.456553 0.552444
O5    O     O_R   0.500960 0.181750 0.467450 -0.481205
O6    O     O_R   0.331100 0.981120 0.457080 -0.498935
C3    C     C_R   0.295335 0.892668 0.434451 0.532612
O7    O     O_R   0.315560 0.821140 0.532010 -0.526621
O8    O     O_R   0.522630 0.854180 0.531710 -0.497870
C4    C     C_R   0.613303 0.905713 0.551962 0.537198
O9    O     O_R   0.682160 0.995480 0.544690 -0.511526
O10   O     O_R   0.645130 0.163230 0.552140 -0.460504
C5    C     C_R   0.589295 0.198679 0.571196 0.545603
O11   O     O_R   0.498360 0.178430 0.555780 -0.523899
O12   O     O_R   0.328690 0.978040 0.538950 -0.463862
C6    C     C_R   0.288169 0.886733 0.548395 0.553135
Cr1   Cr    Cr6+3 0.424820 0.846020 0.489780 1.002912
Cr2   Cr    Cr6+3 0.657880 0.078580 0.505700 1.020989
Cr3   Cr    Cr6+3 0.417280 0.075360 0.504550 1.027964
O13   O     O_3   0.499990 0.999990 0.500010 -0.241567
C7    C     C_R   0.739778 0.451730 0.105889 -0.004183
C8    C     C_R   0.653423 0.434799 0.129390 -0.137830
C9    C     C_R   0.659042 0.423420 0.170059 -0.155671
C10   C     C_R   0.750899 0.428736 0.188058 0.053635
C11   C     C_R   0.836150 0.440716 0.164182 0.142790
C12   C     C_R   0.829221 0.450813 0.123120 -0.116987
C13   C     C_R   0.774332 0.345272 0.244737 -0.086290
C14   C     C_R   0.766472 0.331083 0.285415 -0.117236
C15   C     C_R   0.739278 0.392903 0.313577 0.030158
C16   C     C_R   0.725832 0.472881 0.300858 -0.117145
C17   C     C_R   0.733665 0.486983 0.260152 -0.126451
C18   C     C_R   0.755351 0.421565 0.231703 0.045396
C19   C     C_R   0.617976 0.356727 0.369768 -0.098508
C20   C     C_R   0.580377 0.311273 0.404818 0.099601
C21   C     C_R   0.737730 0.289172 0.410848 -0.157227
C22   C     C_R   0.774149 0.334725 0.376210 -0.137057
C23   C     C_R   0.712568 0.365022 0.354513 0.010262
C24   C     C_R   0.638564 0.272435 0.424588 0.045247
H1    H     H_    0.583365 0.435020 0.116939 0.136945
H2    H     H_    0.897003 0.464543 0.105507 0.126325
H3    H     H_    0.848432 0.342239 0.365354 0.106441
H4    H     H_    0.775604 0.267808 0.294312 0.106904
H5    H     H_    0.790182 0.293522 0.223102 0.129806
H6    H     H_    0.592196 0.412496 0.187841 0.112309
H7    H     H_    0.706045 0.522235 0.322128 0.100322
H8    H     H_    0.720088 0.547165 0.250581 0.107022
H9    H     H_    0.570171 0.380394 0.353121 0.098000
H10   H     H_    0.785361 0.262363 0.425700 0.131837
H11   H     H_    0.202365 0.747283 0.099027 0.141764
H12   H     H_    0.214028 0.719814 0.377503 0.125007
C25   C     C_R   0.244421 0.877509 0.393431 -0.017946
C26   C     C_R   0.243331 0.962086 0.379128 -0.133160
C27   C     C_R   0.220604 0.957193 0.337841 -0.137376
C28   C     C_R   0.197882 0.867707 0.310235 0.057777
C29   C     C_R   0.189966 0.778475 0.324234 0.177859
C30   C     C_R   0.213410 0.784662 0.366182 -0.100791
C31   C     C_R   0.208678 0.814790 0.161077 0.106110
C32   C     C_R   0.178339 0.794852 0.119332 -0.076278
C33   C     C_R   0.081234 0.891343 0.131016 -0.140181
C34   C     C_R   0.109761 0.910082 0.172769 -0.138443
C35   C     C_R   0.169780 0.868640 0.188111 0.038950
C36   C     C_1   0.180951 0.871917 0.231389 -0.039290
C37   C     C_1   0.187934 0.870616 0.267386 -0.023298
C38   C     C_R   0.110789 0.829104 0.104232 -0.010603
H13   H     H_    0.266560 0.034628 0.399378 0.152443
H14   H     H_    0.079804 0.951872 0.193306 0.110190
H15   H     H_    0.028344 0.917854 0.120261 0.131505
H16   H     H_    0.225229 0.025163 0.327166 0.112723
H17   H     H_    0.868590 0.962860 0.121687 0.120641
H18   H     H_    0.841004 0.990157 0.194039 0.103342
C39   C     C_R   0.630700 0.881333 0.394369 -0.031002
C40   C     C_R   0.543357 0.850732 0.366194 -0.126920
C41   C     C_R   0.552585 0.839413 0.324445 0.079933
C42   C     C_R   0.652350 0.859236 0.310211 0.019010
C43   C     C_R   0.739621 0.883582 0.337997 0.158711
C44   C     C_R   0.728796 0.894307 0.380314 0.149732
C45   C     C_R   0.777839 0.925670 0.173634 -0.117239
C46   C     C_R   0.793012 0.910223 0.132362 -0.130660
C47   C     C_R   0.618334 0.755220 0.121172 -0.123061
C48   C     C_R   0.603156 0.771194 0.162339 -0.110734
C49   C     C_R   0.684493 0.854068 0.188750 0.038114
C50   C     C_1   0.675746 0.859179 0.231664 -0.042313
C51   C     C_1   0.666651 0.859785 0.267528 -0.034148
C52   C     C_R   0.715284 0.822121 0.106174 0.021941
H19   H     H_    0.467686 0.840489 0.376652 0.160408
H20   H     H_    0.530425 0.715804 0.173934 0.110784
H21   H     H_    0.556978 0.687001 0.101654 0.122173
H22   H     H_    0.847756 0.391095 0.908407 0.141244
H23   H     H_    0.814240 0.312672 0.691237 0.100619
C53   C     C_R   0.618751 0.243158 0.615095 0.007870
C54   C     C_R   0.536113 0.234194 0.639788 -0.124215
C55   C     C_R   0.551293 0.248807 0.682197 0.137269
C56   C     C_R   0.651582 0.274827 0.700690 0.010736
C57   C     C_R   0.736599 0.290736 0.676715 -0.141627
C58   C     C_R   0.721628 0.276152 0.633954 0.124924
C59   C     C_R   0.766856 0.325698 0.848307 0.111652
C60   C     C_R   0.773556 0.362689 0.890118 -0.146039
C61   C     C_R   0.590092 0.330977 0.884680 0.129068
C62   C     C_R   0.582247 0.292981 0.842692 0.095640
C63   C     C_R   0.672450 0.297586 0.824390 0.049557
C64   C     C_1   0.670739 0.286449 0.780550 -0.000911
C65   C     C_1   0.665499 0.281171 0.744080 -0.034473
C66   C     C_R   0.688765 0.371424 0.908212 -0.012983
H24   H     H_    0.456808 0.209318 0.626197 0.157416
C67   C     C_R   0.067010 0.753102 0.908267 0.000998
C68   C     C_R   0.101013 0.851243 0.896831 -0.142126
C69   C     C_R   0.120265 0.864935 0.856582 -0.168400
C70   C     C_R   0.105960 0.780795 0.827362 0.049946
C71   C     C_R   0.077033 0.682997 0.838898 0.142821
C72   C     C_R   0.059564 0.670512 0.879609 -0.119557
C73   C     C_R   0.196445 0.783730 0.764162 -0.079674
C74   C     C_R   0.204728 0.792489 0.722862 0.079325
C75   C     C_R   0.129945 0.809887 0.701792 0.076227
C76   C     C_R   0.049996 0.821876 0.722607 0.079340
C77   C     C_R   0.045046 0.815405 0.764254 -0.125288
C78   C     C_R   0.117039 0.794963 0.784676 0.001360
C79   C     C_R   0.164918 0.915310 0.646184 -0.105494
C80   C     C_R   0.202837 0.935832 0.607905 0.117353
C81   C     C_R   0.179797 0.760146 0.593148 -0.160202
C82   C     C_R   0.140275 0.740240 0.630842 -0.112657
C83   C     C_R   0.139915 0.820107 0.658488 0.036475
C84   C     C_R   0.218830 0.860121 0.582454 0.037632
H25   H     H_    0.107733 0.916002 0.918612 0.126894
H26   H     H_    0.031839 0.593946 0.887996 0.124159
H27   H     H_    0.118307 0.665244 0.639785 0.134210
H28   H     H_    0.252318 0.769012 0.780532 0.123498
H29   H     H_    0.142978 0.940327 0.847885 0.108672
H30   H     H_    0.983246 0.823119 0.780597 0.100729
H31   H     H_    0.161379 0.976027 0.667304 0.128360
H32   H     H_    0.187064 0.699224 0.573699 0.133819
C85   C     C_R   0.669718 0.739459 0.908566 0.039547
C86   C     C_R   0.559131 0.683281 0.896955 -0.182070
C87   C     C_R   0.520177 0.678947 0.857417 -0.138410
C88   C     C_R   0.591821 0.729960 0.829175 -0.000358
C89   C     C_R   0.701244 0.785312 0.840439 -0.111082
C90   C     C_R   0.741126 0.791531 0.879631 0.131402
C91   C     C_R   0.551686 0.815726 0.778310 -0.122187
C92   C     C_R   0.560983 0.837934 0.738580 -0.128398
C93   C     C_R   0.576623 0.773508 0.707318 0.030491
C94   C     C_R   0.574350 0.682069 0.715856 -0.116741
C95   C     C_R   0.565729 0.660294 0.755709 -0.115135
C96   C     C_R   0.557898 0.728891 0.787322 0.024282
C97   C     C_R   0.548469 0.730942 0.631238 -0.114046
C98   C     C_R   0.561429 0.762696 0.593047 -0.122580
C99   C     C_R   0.684460 0.940242 0.624266 -0.125721
C100  C     C_R   0.670818 0.908559 0.662537 -0.121259
C101  C     C_R   0.599705 0.804365 0.666471 0.031511
C102  C     C_R   0.626377 0.868297 0.589383 0.020135
H33   H     H_    0.503170 0.642386 0.918370 0.109988
H34   H     H_    0.713199 0.966227 0.689247 0.106102
H35   H     H_    0.560078 0.907671 0.732568 0.104499
H36   H     H_    0.548346 0.870762 0.802565 0.112904
H37   H     H_    0.434998 0.635547 0.848817 0.116719
H38   H     H_    0.586399 0.631250 0.692315 0.104101
H39   H     H_    0.573981 0.594720 0.762453 0.109236
H40   H     H_    0.493695 0.650156 0.633415 0.107709
H41   H     H_    0.515412 0.705718 0.566605 0.115242
H42   H     H_    0.756595 0.824051 0.818399 0.108329
H43   H     H_    0.734043 0.022256 0.622421 0.133502
O14   O     O_R   0.828710 0.851830 0.052170 -0.524421
O15   O     O_R   0.005980 0.823990 0.047210 -0.501181
C103  C     C_R   0.052459 0.781417 0.063674 0.537669
O16   O     O_R   0.031900 0.688850 0.050170 -0.517638
O17   O     O_R   0.830940 0.518420 0.048680 -0.501891
C104  C     C_R   0.744221 0.486972 0.066253 0.546850
O18   O     O_R   0.668160 0.499860 0.053480 -0.516177
O19   O     O_R   0.689170 0.693840 0.050110 -0.501645
C105  C     C_R   0.742899 0.789475 0.066276 0.539737
O20   O     O_R   0.803860 0.812940 0.962540 -0.479023
O21   O     O_R   0.982950 0.787950 0.964120 -0.486937
C106  C     C_R   0.021548 0.731929 0.947428 0.547220
O22   O     O_R   0.007050 0.649970 0.960540 -0.525721
O23   O     O_R   0.807910 0.482370 0.965590 -0.515750
C107  C     C_R   0.712123 0.437075 0.949108 0.560029
O24   O     O_R   0.643310 0.460980 0.963840 -0.477629
O25   O     O_R   0.666140 0.657800 0.967020 -0.517240
C108  C     C_R   0.712758 0.738064 0.949043 0.555155
Cr4   Cr    Cr6+3 0.903360 0.812540 0.006510 1.016893
Cr5   Cr    Cr6+3 0.914630 0.587050 0.006280 1.003063
Cr6   Cr    Cr6+3 0.673560 0.582680 0.008540 1.009204
O26   O     O_3   0.830520 0.660760 0.007110 -0.238364
N1    N     N_3   0.481615 0.300864 0.419180 -0.607567
H44   H     H_    0.444646 0.324946 0.399076 0.209757
H45   H     H_    0.500668 0.352048 0.446687 0.227248
N2    N     N_2   0.931401 0.448677 0.181645 -0.534010
H46   H     H_    0.967889 0.418535 0.161528 0.242949
C109  C     C_3   0.006154 0.552138 0.202306 -0.297901
H47   H     H_    0.078784 0.552220 0.214266 0.136002
H48   H     H_    0.970259 0.576174 0.228300 0.186587
H49   H     H_    0.029957 0.609330 0.180763 0.154307
N3    N     N_3   0.274672 0.775478 0.175455 -0.647401
H50   H     H_    0.232832 0.723805 0.195510 0.217329
H51   H     H_    0.342865 0.838207 0.191763 0.241622
N4    N     N_2   0.162463 0.686021 0.295634 -0.525913
H52   H     H_    0.201230 0.697997 0.269234 0.245416
C110  C     C_3   0.140568 0.590167 0.309997 -0.325728
H53   H     H_    0.109332 0.525102 0.283926 0.143254
H54   H     H_    0.078649 0.570632 0.332233 0.158646
H55   H     H_    0.215118 0.597545 0.324025 0.129029
N5    N     N_2   0.839098 0.898165 0.323806 -0.495716
H56   H     H_    0.832586 0.851240 0.296787 0.245086
C111  C     C_3   0.918731 0.006002 0.324299 -0.288074
H57   H     H_    0.891770 0.041407 0.302600 0.128828
H58   H     H_    0.995018 0.010156 0.315062 0.134233
H59   H     H_    0.933743 0.051257 0.355418 0.175302
N6    N     N_2   0.816155 0.915201 0.407883 -0.501129
H60   H     H_    0.826619 0.963872 0.434766 0.263830
C112  C     C_3   0.822566 0.823422 0.414127 -0.296107
H61   H     H_    0.896110 0.847086 0.433849 0.137968
H62   H     H_    0.826404 0.780438 0.384590 0.177397
H63   H     H_    0.751873 0.771122 0.429271 0.125230
N7    N     N_3   0.459916 0.812104 0.297778 -0.625149
H64   H     H_    0.474682 0.807770 0.267073 0.235494
H65   H     H_    0.401187 0.737241 0.301499 0.223414
N8    N     N_2   0.856046 0.323603 0.829431 -0.526967
H66   H     H_    0.838392 0.277527 0.801249 0.250048
C113  C     C_3   0.938886 0.322240 0.854249 -0.323679
H67   H     H_    0.995667 0.310945 0.834295 0.131183
H68   H     H_    0.903280 0.257149 0.872259 0.144593
H69   H     H_    0.985464 0.398056 0.874649 0.140596
N9    N     N_2   0.809160 0.291042 0.610305 -0.492178
H70   H     H_    0.867962 0.282824 0.624865 0.238200
C114  C     C_3   0.852783 0.384560 0.591724 -0.295419
H71   H     H_    0.916943 0.387440 0.572416 0.133010
H72   H     H_    0.887371 0.454934 0.615658 0.129591
H73   H     H_    0.789973 0.385020 0.572044 0.150850
N10   N     N_3   0.484543 0.254647 0.817636 -0.651163
H74   H     H_    0.465260 0.314447 0.818099 0.231240
H75   H     H_    0.423402 0.192626 0.829420 0.224992
N11   N     N_2   0.500320 0.331924 0.902665 -0.495110
H76   H     H_    0.430621 0.261353 0.897823 0.238665
C115  C     C_3   0.484995 0.419977 0.897771 -0.266714
H77   H     H_    0.419448 0.396414 0.873852 0.100397
H78   H     H_    0.559210 0.485981 0.889494 0.165017
H79   H     H_    0.462300 0.447445 0.926905 0.161899
N12   N     N_2   0.463004 0.232217 0.705592 -0.522176
H80   H     H_    0.482603 0.283104 0.732648 0.272349
C116  C     C_3   0.395811 0.124607 0.710622 -0.301376
H81   H     H_    0.323512 0.116411 0.725552 0.146236
H82   H     H_    0.439839 0.099370 0.729987 0.160068
H83   H     H_    0.370088 0.073204 0.680540 0.151688
N13   N     N_3   0.289755 0.785552 0.702253 -0.635199
H84   H     H_    0.343076 0.860044 0.696140 0.227536
H85   H     H_    0.332590 0.764930 0.721239 0.233860
N14   N     N_3   0.973707 0.839070 0.701178 -0.644562
H86   H     H_    0.925652 0.770943 0.680705 0.230945
H87   H     H_    0.922885 0.850190 0.721304 0.224904
N15   N     N_2   0.231171 0.034755 0.596685 -0.494439
H88   H     H_    0.253803 0.094222 0.621079 0.239331
C117  C     C_3   0.153300 0.032740 0.568051 -0.280504
H89   H     H_    0.077024 0.012252 0.582342 0.133446
H90   H     H_    0.137947 0.975128 0.540188 0.153147
H91   H     H_    0.184260 0.110964 0.558920 0.134010
N16   N     N_2   0.059669 0.595684 0.809508 -0.519409
H92   H     H_    0.077410 0.543937 0.821114 0.250465
C118  C     C_3   0.955680 0.543045 0.786905 -0.284027
H93   H     H_    0.948302 0.475566 0.765107 0.145792
H94   H     H_    0.945031 0.596325 0.769221 0.156524
H95   H     H_    0.891317 0.514204 0.808025 0.166812
N17   N     N_2   0.853970 0.845426 0.888720 -0.480912
H96   H     H_    0.893523 0.823835 0.866880 0.242732
C119  C     C_3   0.899998 0.957649 0.897978 -0.285652
H97   H     H_    0.986505 0.993251 0.907479 0.128554
H98   H     H_    0.860719 0.979373 0.923342 0.168474
H99   H     H_    0.890828 0.989418 0.870656 0.115194

loop_
_geom_bond_atom_site_label_1
_geom_bond_atom_site_label_2
_geom_bond_distance
_ccdc_geom_bond_type
C74   N13   1.438649 S    
C27   C28   1.397228 A    
C62   C63   1.405636 A    
C97   H40   1.083003 S    
C77   C78   1.399044 A    
O19   C105  1.274733 A    
C118  H94   1.108967 S    
C56   C57   1.398989 A    
C61   C62   1.413650 A    
C90   N17   1.422704 S    
C14   H4    1.083038 S    
C43   N5    1.426404 S    
C70   C78   1.460108 S    
C47   C48   1.392326 A    
C93   C101  1.479400 S    
C87   C88   1.400989 A    
C73   H28   1.084075 S    
C25   C26   1.404365 A    
C76   C77   1.399733 A    
C4    O9    1.275489 A    
O8    Cr1   1.917791 S    
C10   C11   1.410893 A    
C34   C35   1.398919 A    
O15   Cr4   1.919236 S    
N5    C111  1.446065 S    
C49   C50   1.426856 S    
O4    C2    1.275924 A    
C103  O16   1.268026 A    
C21   C22   1.389805 A    
C80   N15   1.423480 S    
H18   C45   1.083692 S    
C97   C98   1.395175 A    
C14   C15   1.405937 A    
N2    C109  1.445885 S    
N7    H65   1.045485 S    
C95   C96   1.402237 A    
C86   H33   1.082827 S    
N15   C117  1.446522 S    
C5    O11   1.272295 A    
C59   C60   1.406807 A    
N4    H52   1.030740 S    
C114  H73   1.110717 S    
C87   H37   1.082805 S    
C68   C69   1.389166 A    
C67   C72   1.402882 A    
C12   H2    1.083582 S    
C82   H27   1.083684 S    
C109  H48   1.110532 S    
N14   H86   1.045525 S    
Cr6   O26   1.975483 S    
C53   C54   1.406871 A    
C81   C84   1.406644 A    
C46   C52   1.406877 A    
O10   C5    1.277464 A    
N10   H75   1.044903 S    
O21   C106  1.271781 A    
H23   C57   1.084146 S    
C98   C102  1.406649 A    
O15   C103  1.276171 A    
C80   C84   1.418744 A    
C33   C38   1.405018 A    
C55   N12   1.423380 S    
C99   C100  1.397107 A    
N13   H85   1.045395 S    
O6    C3    1.274366 A    
N3    H51   1.045587 S    
C66   C107  1.491433 S    
N16   C118  1.447850 S    
C19   H9    1.083225 S    
C79   H31   1.083735 S    
C67   C68   1.401356 A    
C76   N14   1.437824 S    
C8    C9    1.390549 A    
C110  H53   1.109756 S    
C20   N1    1.437501 S    
C40   H19   1.084751 S    
N13   H84   1.045710 S    
N17   H96   1.031652 S    
C72   H26   1.083615 S    
C47   C52   1.405785 A    
O9    Cr2   2.036453 S    
Cr4   O26   1.973582 S    
C43   C44   1.411149 A    
C92   H35   1.083260 S    
O23   Cr5   1.920719 S    
C47   H21   1.083185 S    
O21   Cr4   1.921077 S    
N14   H87   1.045812 S    
C5    C53   1.483902 S    
C32   C38   1.405142 A    
C85   C90   1.421144 A    
C35   C36   1.437195 S    
Cr3   O13   1.971877 S    
C57   C58   1.406646 A    
C8    H1    1.083033 S    
O20   C108  1.263839 A    
O17   C104  1.274726 A    
C55   C56   1.405948 A    
O17   Cr5   1.921562 S    
C115  H78   1.112492 S    
C19   C20   1.404052 A    
O22   Cr5   2.037844 S    
N11   C115  1.450141 S    
H17   C46   1.082899 S    
N10   H74   1.043866 S    
C10   C18   1.471324 S    
C53   C58   1.417948 A    
C95   H39   1.083546 S    
C44   N6    1.425575 S    
C42   C43   1.415016 A    
Cr5   O26   1.971960 S    
C39   C40   1.402741 A    
C60   C66   1.409774 A    
N12   C116  1.446340 S    
O1    Cr1   2.035451 S    
C75   C83   1.467674 S    
C40   C41   1.389082 A    
C29   N4    1.432997 S    
C38   C103  1.473275 S    
C63   C64   1.441975 S    
O10   Cr2   1.918146 S    
C61   N11   1.425014 S    
C99   C102  1.403137 A    
C17   C18   1.403338 A    
C92   C93   1.405574 A    
N9    H70   1.031861 S    
N4    C110  1.447999 S    
C99   H43   1.083402 S    
N6    H60   1.028764 S    
C104  O18   1.270712 A    
O4    Cr2   1.921069 S    
N7    H64   1.042740 S    
C119  H97   1.109798 S    
N17   C119  1.447001 S    
C26   H13   1.083116 S    
C67   C106  1.462857 S    
C91   H36   1.083491 S    
C9    C10   1.402539 A    
C106  O22   1.267546 A    
C39   C44   1.413345 A    
C13   C18   1.400301 A    
C116  H83   1.110067 S    
C31   N3    1.433108 S    
C45   C46   1.394829 A    
C13   H5    1.083173 S    
C115  H79   1.109540 S    
O3    Cr2   2.036019 S    
C109  H49   1.111561 S    
C19   C23   1.403067 A    
C41   C42   1.410767 A    
C13   C14   1.392642 A    
O25   C108  1.284345 A    
C4    C102  1.473217 S    
C54   H24   1.083038 S    
C113  H68   1.111181 S    
C91   C96   1.400705 A    
N1    H45   1.045517 S    
O23   C107  1.278434 A    
O14   C105  1.270868 A    
C111  H59   1.110805 S    
C20   C24   1.417232 A    
O7    Cr1   2.040272 S    
C91   C92   1.395018 A    
N16   H92   1.031843 S    
Cr1   O13   1.973330 S    
C110  H55   1.110712 S    
C116  H82   1.111506 S    
O12   C6    1.274917 A    
C61   C66   1.417045 A    
O1    C3    1.272024 A    
C109  H47   1.109033 S    
C70   C71   1.410676 A    
C54   C55   1.395262 A    
C11   N2    1.422321 S    
C7    C12   1.404710 A    
C50   C51   1.198681 T    
C79   C80   1.399823 A    
C77   H30   1.084102 S    
C81   C82   1.387168 A    
C2    O5    1.272782 A    
H12   C30   1.080886 S    
C117  H91   1.110333 S    
C7    C104  1.471692 S    
N6    C112  1.446097 S    
C107  O24   1.275365 A    
C111  H58   1.110613 S    
C48   C49   1.396743 A    
C112  H62   1.111208 S    
C69   H29   1.083641 S    
C85   C86   1.408417 A    
C68   H25   1.082977 S    
C16   H7    1.083159 S    
C2    C24   1.481738 S    
O20   Cr4   2.035087 S    
C118  H95   1.111112 S    
C3    C25   1.477976 S    
N5    H56   1.031340 S    
C81   H32   1.083092 S    
C1    O3    1.272039 A    
H22   C60   1.079685 S    
C113  H67   1.110867 S    
C56   C65   1.437970 S    
C117  H90   1.111111 S    
C73   C74   1.396082 A    
C33   H15   1.083065 S    
C71   N16   1.424584 S    
C28   C29   1.412912 A    
C21   C24   1.408251 A    
C26   C27   1.391640 A    
C89   H42   1.085133 S    
C114  H71   1.110367 S    
O2    Cr1   1.923520 S    
C52   C105  1.470365 S    
O14   Cr4   2.038619 S    
C15   C16   1.403243 A    
C85   C108  1.481974 S    
C100  H34   1.083115 S    
Cr2   O13   1.974962 S    
C88   C89   1.392177 A    
O6    Cr3   1.917380 S    
C62   N10   1.436080 S    
C25   C30   1.405245 A    
N9    C114  1.446861 S    
O11   Cr3   2.033904 S    
C74   C75   1.415429 A    
C86   C87   1.404559 A    
C98   H41   1.083342 S    
C28   C37   1.438156 S    
C79   C83   1.397834 A    
O25   Cr6   1.917666 S    
C112  H63   1.111590 S    
C89   C90   1.391461 A    
C41   N7    1.441351 S    
C31   C35   1.410059 A    
N8    C113  1.448528 S    
C34   H14   1.083841 S    
O16   Cr5   2.037730 S    
C36   C37   1.202910 T    
C110  H54   1.111059 S    
O2    C1    1.274340 A    
N8    H66   1.031038 S    
C22   H3    1.083353 S    
C88   C96   1.465111 S    
C59   C63   1.408522 A    
C93   C94   1.404998 A    
C16   C17   1.393232 A    
C113  H69   1.109558 S    
C116  H81   1.110222 S    
C21   H10   1.083037 S    
C29   C30   1.411530 A    
C22   C23   1.398062 A    
C71   C72   1.397787 A    
O7    C6    1.271060 A    
C119  H99   1.111621 S    
C48   H20   1.083871 S    
O5    Cr3   2.041530 S    
C9    H6    1.083578 S    
N12   H80   1.031118 S    
N11   H76   1.030853 S    
C114  H72   1.111808 S    
C15   C23   1.474362 S    
C118  H93   1.110608 S    
C100  C101  1.406860 A    
C112  H61   1.110426 S    
C33   C34   1.395188 A    
C1    C39   1.470054 S    
O18   Cr6   2.035861 S    
O12   Cr3   1.923533 S    
O19   Cr6   1.920246 S    
N15   H88   1.031856 S    
C27   H16   1.083938 S    
C7    C8    1.402309 A    
C73   C78   1.393679 A    
C45   C49   1.397336 A    
C58   N9    1.424149 S    
C31   C32   1.398724 A    
C94   H38   1.082956 S    
C111  H57   1.111595 S    
N2    H46   1.031857 S    
C119  H98   1.111210 S    
N3    H50   1.044546 S    
C115  H77   1.110268 S    
C59   N8    1.436826 S    
C64   C65   1.202935 T    
C17   H8    1.083433 S    
C94   C95   1.397123 A    
N1    H44   1.045672 S    
H11   C32   1.083743 S    
C75   C76   1.410246 A    
C82   C83   1.396589 A    
C69   C70   1.399277 A    
C42   C51   1.434546 S    
C97   C101  1.401975 A    
O24   Cr6   2.037306 S    
O8    C4    1.270933 A    
C6    C84   1.476421 S    
C117  H89   1.111687 S    
C11   C12   1.400300 A    
