data_mof_unit_18948.cif
_audit_creation_date              2012-12-11T21:12:30-0500
_audit_creation_method            fapswitch 2.2
_symmetry_space_group_name_H-M    P1
_symmetry_Int_Tables_number       1
_space_group_crystal_system       triclinic
_cell_length_a                    8.509385
_cell_length_b                    19.017339
_cell_length_c                    27.313164
_cell_angle_alpha                 101.689825
_cell_angle_beta                  92.040578
_cell_angle_gamma                 87.52236
_cell_volume                      4322.62581151

loop_
_atom_site_label
_atom_site_type_symbol
_atom_type_description
_atom_site_fract_x
_atom_site_fract_y
_atom_site_fract_z
_atom_type_partial_charge
Ba1   Ba    Ba6+2 0.160810 0.465630 0.521640 1.736043
Ba2   Ba    Ba6+2 0.649380 0.534380 0.478400 1.733839
C1    C     C_3   0.315848 0.246005 0.676504 -0.327423
C2    C     C_3   0.310683 0.282153 0.631718 0.354417
C3    C     C_3   0.485314 0.311822 0.394241 0.247553
C4    C     C_3   0.550862 0.235738 0.372385 -0.192740
C5    C     C_3   0.894974 0.726009 0.361617 0.231369
C6    C     C_3   0.783064 0.793134 0.374652 -0.254608
C7    C     C_3   0.461583 0.679700 0.355760 0.309260
C8    C     C_3   0.450194 0.691408 0.302281 -0.316032
C9    C     C_R   0.982216 0.042899 0.465573 0.025813
C10   C     C_R   0.054863 0.087608 0.437192 0.028070
C11   C     C_R   0.201775 0.950926 0.461746 -0.091365
C12   C     C_3   0.888907 0.292455 0.678740 0.224992
C13   C     C_R   0.044606 0.973458 0.472129 0.048209
C14   C     C_R   0.258415 0.882059 0.464375 -0.017759
C15   C     C_R   0.163970 0.833140 0.480670 -0.003570
C16   C     C_R   0.012889 0.857180 0.499146 -0.009425
C17   C     C_R   0.953903 0.928106 0.495100 0.021753
C18   C     C_R   0.219584 0.761971 0.480695 0.060501
C19   C     C_R   0.123385 0.715380 0.498229 -0.224811
C20   C     C_R   0.977082 0.736461 0.519113 0.026994
C21   C     C_R   0.924846 0.811850 0.523357 -0.098083
C22   C     C_R   0.834977 0.068107 0.486158 0.018490
C23   C     C_3   0.906912 0.277759 0.732955 -0.188249
C24   C     C_R   0.777560 0.140112 0.485826 0.007726
C25   C     C_R   0.873214 0.189338 0.468824 -0.053053
C26   C     C_R   0.008114 0.160948 0.442734 -0.033077
C27   C     C_R   0.800551 0.847321 0.554056 0.027614
C28   C     C_R   0.747407 0.919047 0.551999 0.001845
C29   C     C_R   0.808801 0.954883 0.516227 0.018750
C30   C     C_R   0.742498 0.021533 0.506580 0.047054
C31   C     C_R   0.582576 0.041758 0.514446 -0.108666
C32   C     C_R   0.624733 0.162954 0.503029 0.006388
C33   C     C_R   0.525935 0.111541 0.514226 -0.066903
C34   C     C_3   0.898710 0.650858 0.644398 0.290562
C35   C     C_R   0.574007 0.235817 0.506921 0.052012
C36   C     C_R   0.673584 0.283724 0.493038 -0.199876
C37   C     C_R   0.823371 0.263652 0.475428 0.070256
C38   C     C_R   0.370271 0.465534 0.175808 0.601359
C39   C     C_R   0.213513 0.575048 0.181356 0.606338
C40   C     C_2   0.062304 0.530405 0.268603 -0.057791
C41   C     C_3   0.008377 0.520676 0.319619 -0.089977
C42   C     C_1   0.278500 0.482286 0.336671 -0.080977
C43   C     C_2   0.320329 0.478597 0.290144 -0.088260
C44   C     C_2   0.213898 0.511090 0.253622 0.179973
C45   C     C_3   0.005579 0.676147 0.690264 -0.349684
C46   C     C_R   0.341735 0.520822 0.102743 -0.080977
C47   C     C_R   0.394268 0.463150 0.124815 -0.034451
C48   C     C_R   0.465435 0.401691 0.095298 -0.046789
C49   C     C_R   0.260798 0.580384 0.132306 -0.078984
C50   C     C_2   0.145565 0.512823 0.355073 -0.313564
C51   C     C_2   0.652974 0.483545 0.645466 -0.243886
C52   C     C_R   0.511210 0.464377 0.974938 0.015511
C53   C     C_R   0.348894 0.574981 0.977009 0.001639
C54   C     C_R   0.452730 0.520677 0.951450 0.062440
C55   C     C_R   0.632770 0.418645 0.951589 -0.124711
C56   C     C_3   0.982144 0.368669 0.366828 0.346300
C57   C     C_R   0.673320 0.417315 0.902363 -0.005277
C58   C     C_R   0.597086 0.466464 0.875939 -0.063688
C59   C     C_R   0.498884 0.522201 0.902091 -0.064284
C60   C     C_R   0.450061 0.579726 0.879050 -0.081961
C61   C     C_R   0.515664 0.582322 0.832102 0.642932
C62   C     C_R   0.613398 0.461598 0.824086 0.651974
C63   C     C_2   0.766414 0.498109 0.733879 -0.070727
C64   C     C_3   0.799916 0.487887 0.678547 -0.139996
C65   C     C_1   0.520639 0.519449 0.661823 -0.015147
C66   C     C_2   0.487757 0.528937 0.711067 -0.013495
C67   C     C_3   0.972179 0.346684 0.309042 -0.126446
C68   C     C_2   0.616372 0.516688 0.749627 0.236877
C69   C     C_R   0.457145 0.458991 0.022865 0.035412
C70   C     C_R   0.374058 0.519243 0.051467 0.047232
C71   C     C_R   0.323761 0.577914 0.029180 0.041954
C72   C     C_R   0.484698 0.396498 0.044160 0.025202
C73   C     C_R   0.227136 0.642223 0.111084 -0.030190
C74   C     C_R   0.273624 0.623829 0.949319 -0.094312
C75   C     C_R   0.334888 0.630676 0.902647 -0.078249
C76   C     C_R   0.260225 0.640039 0.060701 -0.079188
C77   C     C_3   0.316438 0.683253 0.593437 0.292754
C78   C     C_3   0.277899 0.762721 0.614109 -0.347725
H1    H     H_    0.189087 0.284258 0.615928 0.114933
H2    H     H_    0.974050 0.732441 0.708497 0.149287
H3    H     H_    0.995260 0.641039 0.717872 0.098204
H4    H     H_    0.129613 0.673714 0.679317 0.133543
H5    H     H_    0.106381 0.377363 0.379158 0.009303
H6    H     H_    0.911502 0.419366 0.379129 0.032646
H7    H     H_    0.031755 0.386516 0.292815 0.067590
H8    H     H_    0.206796 0.656490 0.578785 0.002540
H9    H     H_    0.402813 0.678378 0.563263 0.075383
H10   H     H_    0.270179 0.283790 0.709666 0.132587
H11   H     H_    0.165009 0.769447 0.633857 0.146555
H12   H     H_    0.268531 0.793313 0.583582 0.064416
H13   H     H_    0.370944 0.786325 0.641223 0.178434
H14   H     H_    0.349225 0.338538 0.644748 0.064357
H15   H     H_    0.440451 0.231555 0.684841 0.153318
H16   H     H_    0.585513 0.342765 0.413140 0.004130
H17   H     H_    0.394395 0.308799 0.421896 0.037130
H18   H     H_    0.670150 0.238884 0.358165 0.068818
H19   H     H_    0.563475 0.204021 0.402209 -0.037747
H20   H     H_    0.245532 0.196609 0.668690 0.121694
H21   H     H_    0.885241 0.329239 0.759871 0.224858
H22   H     H_    0.932550 0.713402 0.398067 0.031527
H23   H     H_    0.837111 0.830995 0.406330 0.072517
H24   H     H_    0.671518 0.779848 0.388619 0.085983
H25   H     H_    0.406529 0.628192 0.355741 0.038880
H26   H     H_    0.583280 0.672384 0.367827 0.111060
H27   H     H_    0.337071 0.672424 0.284540 0.161018
H28   H     H_    0.544995 0.659805 0.279895 0.154304
H29   H     H_    0.457792 0.748961 0.301392 0.178004
H30   H     H_    0.168146 0.661523 0.497649 0.099334
H31   H     H_    0.379124 0.868365 0.454238 0.097022
H32   H     H_    0.071267 0.194138 0.422908 0.132121
H33   H     H_    0.403803 0.124416 0.522857 0.107444
H34   H     H_    0.628369 0.336961 0.492482 0.092019
H35   H     H_    0.285836 0.986878 0.452859 0.066754
H36   H     H_    0.500182 0.003837 0.521956 0.076496
H37   H     H_    0.400988 0.432656 0.277097 0.149658
H38   H     H_    0.495447 0.354696 0.111335 0.130319
H39   H     H_    0.703556 0.385715 0.972413 0.111455
H40   H     H_    0.971065 0.544245 0.242247 0.140468
H41   H     H_    0.243118 0.689546 0.047068 0.104427
H42   H     H_    0.030892 0.260805 0.739942 0.117799
H43   H     H_    0.940975 0.596138 0.627501 0.112021
N1    N     N_R   0.266685 0.517067 0.203182 -0.426828
N2    N     N_R   0.579123 0.520435 0.802448 -0.418206
O1    O     O_2   0.106080 0.324280 0.466820 -0.459957
O2    O     O_3   0.380704 0.652749 0.632271 -0.650457
O3    O     O_3   0.007319 0.342154 0.674934 -0.628601
O4    O     O_2   0.704230 0.675760 0.533200 -0.442819
O5    O     O_3   0.951180 0.586390 0.529420 -0.458735
O6    O     O_3   0.434080 0.629720 0.443130 -0.461259
O7    O     O_3   0.907689 0.698427 0.612047 -0.629351
O8    O     O_3   0.351080 0.462080 0.440130 -0.438157
O9    O     O_3   0.839200 0.593040 0.416790 -0.451170
O10   O     O_2   0.688628 0.547318 0.330313 -0.500679
O11   O     O_3   0.819053 0.667568 0.330127 -0.598124
O12   O     O_3   0.859130 0.413620 0.470620 -0.499190
O13   O     O_3   0.459240 0.537930 0.559910 -0.457948
O14   O     O_2   0.583120 0.462390 0.379940 -0.463356
O15   O     O_3   0.418266 0.344361 0.356357 -0.654387
O16   O     O_2   0.557130 0.759121 0.474165 -0.512905
O17   O     O_3   0.394492 0.739131 0.388783 -0.599520
O18   O     O_2   0.444193 0.421056 0.195254 -0.610097
O19   O     O_2   0.655811 0.404619 0.798099 -0.563499
O20   O     O_2   0.121534 0.621538 0.203901 -0.521030
O21   O     O_2   0.518684 0.639304 0.818211 -0.563512
O22   O     O_3   0.376230 0.370290 0.556910 -0.450344
O23   O     O_2   0.242082 0.242771 0.516046 -0.503119
O24   O     O_3   0.925396 0.313535 0.387314 -0.657699
O25   O     O_3   0.411253 0.241768 0.595736 -0.608186
O26   O     O_2   0.227190 0.537650 0.620070 -0.477208
O27   O     O_3   0.971110 0.406970 0.583250 -0.440186
O28   O     O_2   0.114419 0.458357 0.666970 -0.451563
P1    P     P_3+3 0.929380 0.335110 0.452880 1.001916
P2    P     P_3+3 0.398530 0.559060 0.613740 0.990164
P3    P     P_3+3 0.960779 0.420095 0.649997 1.051298
P4    P     P_3+3 0.880940 0.664900 0.547160 1.046557
P5    P     P_3+3 0.843569 0.583868 0.350163 0.960100
P6    P     P_3+3 0.395902 0.275123 0.540599 0.990009
P7    P     P_3+3 0.406835 0.437787 0.377373 0.955128
P8    P     P_3+3 0.405604 0.722955 0.449983 0.989169
C79   C     C_3   0.059085 0.275013 0.289786 -0.313868
H44   H     H_    0.184919 0.279741 0.301173 0.159796
H45   H     H_    0.008905 0.230825 0.304542 0.158538
H46   H     H_    0.051528 0.261422 0.248231 0.123935
C80   C     C_3   0.801612 0.344862 0.288929 -0.319607
H47   H     H_    0.738504 0.301508 0.300409 0.156918
H48   H     H_    0.738750 0.396929 0.302720 0.137909
H49   H     H_    0.799000 0.335145 0.247420 0.134452
C81   C     C_2   0.447988 0.195728 0.331498 0.929712
O29   O     O_2   0.495864 0.179124 0.288881 -0.594236
O30   O     O_R   0.299001 0.176564 0.342417 -0.795107
H50   H     H_    0.241958 0.148924 0.311868 0.300789
C82   C     C_2   0.033069 0.747019 0.335336 0.850259
O31   O     O_2   0.060201 0.716550 0.292507 -0.531581
O32   O     O_R   0.122981 0.804707 0.358956 -0.762253
H51   H     H_    0.205785 0.816533 0.336455 0.327377
C83   C     C_2   0.751646 0.833233 0.332894 0.902427
O33   O     O_2   0.709369 0.801531 0.291474 -0.565324
O34   O     O_R   0.775276 0.906997 0.341761 -0.747573
H52   H     H_    0.751236 0.928408 0.311082 0.324205
C84   C     C_2   0.924571 0.224943 0.639463 0.816894
O35   O     O_2   0.936752 0.164710 0.649755 -0.639421
O36   O     O_R   0.943379 0.231390 0.590099 -0.729390
H53   H     H_    0.980214 0.184510 0.567892 0.308018
C85   C     C_2   0.752276 0.820738 0.597914 0.889281
O37   O     O_2   0.623305 0.795127 0.597992 -0.634721
O38   O     O_R   0.844962 0.835908 0.641868 -0.754731
H54   H     H_    0.792280 0.823763 0.671627 0.308920
C86   C     C_3   0.158130 0.057905 0.393528 -0.361622
H55   H     H_    0.281295 0.073820 0.402553 0.136256
H56   H     H_    0.151835 0.998860 0.381245 0.145242
H57   H     H_    0.114434 0.079352 0.360600 0.144576
C87   C     C_3   0.649685 0.961319 0.594996 -0.377306
H58   H     H_    0.654760 0.020305 0.599148 0.142130
H59   H     H_    0.525898 0.944400 0.590543 0.121119
H60   H     H_    0.697419 0.952913 0.631707 0.148256
C88   C     C_2   0.723996 0.318279 0.668247 0.745588
O39   O     O_2   0.631535 0.338072 0.700816 -0.615045
O40   O     O_R   0.680107 0.320436 0.619594 -0.743384
H61   H     H_    0.578140 0.348193 0.618755 0.312107
C89   C     C_2   0.900524 0.502144 0.770868 0.900359
O41   O     O_2   0.012949 0.459452 0.763332 -0.575530
O42   O     O_R   0.898259 0.554839 0.814559 -0.723937
H62   H     H_    0.994237 0.551262 0.837148 0.334376
C90   C     C_2   0.807508 0.368922 0.882298 0.909506
O43   O     O_2   0.907732 0.390147 0.858237 -0.583684
O44   O     O_R   0.822881 0.300021 0.893006 -0.763369
H63   H     H_    0.919493 0.272374 0.877669 0.313384
C91   C     C_3   0.510697 0.320941 0.013878 -0.381619
H64   H     H_    0.473910 0.316611 0.973897 0.144566
H65   H     H_    0.636012 0.302996 0.017607 0.135808
H66   H     H_    0.436996 0.282737 0.028078 0.129070
C92   C     C_2   0.167794 0.712336 0.140443 0.971791
O45   O     O_2   0.063879 0.746671 0.122401 -0.569124
O46   O     O_R   0.234733 0.740647 0.187646 -0.697819
H67   H     H_    0.182812 0.788369 0.203813 0.336620
C93   C     C_2   0.111452 0.653724 0.962951 0.869046
O47   O     O_2   0.070789 0.715256 0.959669 -0.544851
O48   O     O_R   0.004598 0.610158 0.979393 -0.742386
H68   H     H_    0.897898 0.635452 0.987019 0.331101
C94   C     C_3   0.799720 0.220929 0.745740 -0.353588
H69   H     H_    0.771402 0.234929 0.786349 0.160945
H70   H     H_    0.687778 0.216707 0.723559 0.146887
H71   H     H_    0.861631 0.167141 0.738570 0.164101
C95   C     C_2   0.264160 0.685516 0.876087 0.987851
O49   O     O_2   0.192139 0.666880 0.836286 -0.615075
O50   O     O_R   0.280767 0.758445 0.896786 -0.681312
H72   H     H_    0.228005 0.790844 0.875356 0.330375
C96   C     C_3   0.338349 0.568692 0.731314 -0.253266
H73   H     H_    0.297485 0.547599 0.763437 0.144353
H74   H     H_    0.358623 0.627076 0.741977 0.157206
H75   H     H_    0.238471 0.563453 0.705016 0.140830
C97   C     C_2   0.149732 0.564618 0.402026 0.876234
O51   O     O_2   0.123352 0.546804 0.441083 -0.544559
O52   O     O_R   0.154069 0.636400 0.400551 -0.792152
H76   H     H_    0.160472 0.643775 0.365251 0.225284
C98   C     C_2   0.689572 0.470909 0.592936 0.852670
O53   O     O_2   0.639317 0.420400 0.563343 -0.604688
O54   O     O_R   0.785827 0.516885 0.576939 -0.785482
H77   H     H_    0.830293 0.492580 0.544251 0.381636
C99   C     C_3   0.730912 0.655759 0.661417 -0.262462
H78   H     H_    0.691416 0.712376 0.675586 0.137081
H79   H     H_    0.659052 0.634491 0.628094 0.124490
H80   H     H_    0.717129 0.626310 0.691839 0.039913

loop_
_geom_bond_atom_site_label_1
_geom_bond_atom_site_label_2
_ccdc_geom_bond_type
O13   P2    S    
C87   H59   S    
C53   C54   A    
O16   P8    D    
C86   H55   S    
C54   C59   A    
C32   C35   A    
C60   C75   A    
C8    H28   S    
C1    H15   S    
C41   P5    S    
C17   C29   A    
C23   H42   S    
Ba2   O4    S    
O17   P8    S    
O4    P4    D    
C83   O33   D    
C50   C97   S    
C5    C6    S    
C28   C87   S    
C43   C44   S    
O36   H53   S    
C13   C17   A    
C12   C88   S    
C24   C25   A    
C60   C61   A    
C89   O42   S    
C10   C26   A    
C1    H10   S    
Ba2   O14   S    
C21   C27   A    
C39   N1    Am   
C35   C36   A    
C49   C73   A    
Ba1   Ba2   S    
C48   C72   A    
C3    C4    S    
C36   H34   S    
C90   O44   S    
C41   C50   S    
C55   C57   A    
C87   H60   S    
C14   C15   A    
C81   O29   D    
O6    P8    S    
C7    H25   S    
C38   C47   A    
C5    C82   S    
C9    C22   A    
C15   C18   A    
C12   O3    S    
C27   C85   S    
Ba1   O27   S    
C65   P2    S    
C32   C33   A    
C40   C44   D    
C45   H2    S    
Ba1   P2    S    
C76   H41   S    
C67   C80   S    
O50   H72   S    
C86   H57   S    
Ba2   O5    S    
C82   O31   D    
C9    C13   A    
C1    H20   S    
C24   C32   A    
C46   C49   A    
C52   C69   A    
O27   P3    S    
C25   C37   A    
O40   H61   S    
C90   O43   D    
C5    H22   S    
C15   C16   A    
Ba1   O26   S    
C99   H79   S    
C71   C76   A    
O32   H51   S    
C88   O39   D    
O26   P2    D    
C7    C8    S    
C61   O21   D    
C59   C60   A    
C67   H7    S    
C56   O24   S    
C55   H39   S    
O11   P5    S    
C8    H29   S    
C42   C50   D    
C87   H58   S    
C85   O37   D    
O22   P6    S    
C57   C58   A    
O10   P5    D    
C19   C20   A    
C80   H48   S    
O42   H62   S    
C44   N1    S    
C8    H27   S    
C94   H69   S    
C97   O52   S    
C46   C70   A    
Ba1   O8    S    
C56   H6    S    
C73   C76   A    
O48   H68   S    
C12   C84   S    
C66   C96   S    
Ba2   O6    S    
C79   H45   S    
C38   N1    Am   
C98   O54   S    
C99   H80   S    
C89   O41   D    
C63   C89   S    
C37   P1    S    
C74   C93   S    
C16   C21   A    
Ba2   O8    S    
C34   H43   S    
C74   C75   A    
Ba1   O5    S    
O25   P6    S    
O44   H63   S    
C92   O45   D    
C16   C17   A    
C62   O19   D    
C94   H71   S    
C7    H26   S    
C26   H32   S    
C65   C66   D    
O38   H54   S    
O23   P6    D    
Ba2   O13   S    
C78   H12   S    
C96   H74   S    
O24   P1    S    
C22   C30   A    
C27   C28   A    
C79   H46   S    
C77   C78   S    
O52   H76   S    
C93   O48   S    
C29   C30   A    
C28   C29   A    
C7    O17   S    
O46   H67   S    
C99   H78   S    
C39   O20   D    
C23   C94   S    
C56   C67   S    
Ba2   O9    S    
C45   H4    S    
C67   C79   S    
O28   P3    D    
C94   H70   S    
C51   C64   S    
C6    H24   S    
C11   H35   S    
C77   H8    S    
C80   H49   S    
C2    H14   S    
C53   C74   A    
O1    P1    D    
C68   N2    S    
C96   H75   S    
O9    P5    S    
C3    H17   S    
O14   P7    D    
C91   H64   S    
C62   N2    Am   
C91   H65   S    
O5    P4    S    
Ba1   O1    S    
C80   H47   S    
C42   P7    S    
C47   C48   A    
C34   C45   S    
Ba1   O22   S    
C97   O51   D    
C85   O38   S    
C1    C2    S    
C56   H5    S    
C4    H18   S    
C3    H16   S    
Ba1   O12   S    
O30   H50   S    
C57   C90   S    
C3    O15   S    
C79   H44   S    
C4    C81   S    
C43   H37   S    
Ba1   O13   S    
C84   O35   D    
C77   O2    S    
C98   O53   D    
C46   C47   A    
C31   H36   S    
C86   H56   S    
C34   O7    S    
C48   H38   S    
Ba2   O12   S    
C42   C43   D    
C22   C24   A    
C70   C71   A    
C51   C98   S    
C69   C72   A    
C83   O34   S    
C9    C10   A    
C52   C54   A    
C20   P4    S    
C91   H66   S    
C2    O25   S    
C73   C92   S    
C95   O50   S    
O7    P4    S    
C58   C62   A    
O8    P7    S    
C34   C99   S    
C4    H19   S    
C35   P6    S    
C78   H11   S    
C11   C13   A    
C11   C14   A    
C96   H73   S    
C30   C31   A    
C64   P3    S    
C23   H21   S    
C93   O47   D    
C36   C37   A    
C81   O30   S    
Ba2   P4    S    
O2    P2    S    
C18   P8    S    
C2    H1    S    
O54   H77   S    
C31   C33   A    
C82   O32   S    
O12   P1    S    
C33   H33   S    
C92   O46   S    
C10   C86   S    
C63   C64   S    
C12   C23   S    
Ba1   P1    S    
C51   C65   D    
C6    H23   S    
C84   O36   S    
C77   H9    S    
C5    O11   S    
O3    P3    S    
C45   H3    S    
C53   C71   A    
C6    C83   S    
C75   C95   S    
C69   C70   A    
C18   C19   A    
C61   N2    Am   
C66   C68   S    
C95   O49   D    
C40   C41   S    
C38   O18   D    
C25   C26   A    
C40   H40   S    
C20   C21   A    
C58   C59   A    
C19   H30   S    
C88   O40   S    
C72   C91   S    
C78   H13   S    
C39   C49   A    
O15   P7    S    
O34   H52   S    
C63   C68   D    
C14   H31   S    
C52   C55   A    
