data_mof_unit_11600.cif
_audit_creation_date              2013-03-05T15:43:10-0500
_audit_creation_method            fapswitch 2.2
_symmetry_space_group_name_H-M    P1
_symmetry_Int_Tables_number       1
_space_group_crystal_system       triclinic
_cell_length_a                    12.955695
_cell_length_b                    10.789173
_cell_length_c                    10.12048
_cell_angle_alpha                 91.321073
_cell_angle_beta                  97.665612
_cell_angle_gamma                 91.589901
_cell_volume                      1400.96008795

loop_
_atom_site_label
_atom_site_type_symbol
_atom_site_description
_atom_site_fract_x
_atom_site_fract_y
_atom_site_fract_z
_atom_type_partial_charge
O1    O     O_R   0.499980 0.319060 0.613040 -0.594156
O2    O     O_R   0.500020 0.319100 0.386900 -0.566288
C1    C     C_R   0.494026 0.263856 0.497048 0.927139
O3    O     O_R   0.346340 0.499960 0.594380 -0.544595
O4    O     O_R   0.346380 0.500000 0.368250 -0.590028
C2    C     C_R   0.298408 0.507889 0.473394 0.930651
Zn1   Zn    Zn3+2 0.499980 0.499970 0.650990 1.091423
Zn2   Zn    Zn3+2 0.500020 0.500030 0.349010 1.046827
O5    O     O_R   0.499980 0.680900 0.613100 -0.587555
O6    O     O_R   0.500020 0.680940 0.386960 -0.560249
O7    O     O_R   0.653620 0.500000 0.631750 -0.588499
O8    O     O_R   0.653660 0.500040 0.405620 -0.585983
C3    C     C_R   0.495049 0.736985 0.501170 0.875391
C4    C     C_R   0.702003 0.499120 0.526478 0.893833
C5    C     C_R   0.814986 0.511783 0.541079 -0.263392
C6    C     C_R   0.186363 0.529348 0.456011 -0.331267
C7    C     C_R   0.018634 0.507064 0.318569 0.263190
C8    C     C_R   0.127063 0.511296 0.329287 0.344175
C9    C     C_R   0.137614 0.565447 0.567450 0.234677
C10   C     C_R   0.028760 0.563043 0.556330 -0.205593
C11   C     C_R   0.969931 0.527099 0.432646 -0.120647
C12   C     C_R   0.863226 0.506354 0.426140 -0.168671
C13   C     C_R   0.874223 0.539279 0.664465 0.366471
C14   C     C_R   0.976664 0.583146 0.669036 0.430164
H1    H     H_    0.817607 0.479538 0.331918 0.245172
C15   C     C_2   0.455839 0.930962 0.395381 0.324124
C16   C     C_2   0.490101 0.869956 0.506842 0.116331
C17   C     C_2   0.485373 0.061590 0.389735 0.436443
C18   C     C_2   0.461881 0.137218 0.486422 -0.430971
H2    H     H_    0.413398 0.106361 0.558471 0.138626
C19   C     C_2   0.545272 0.587170 0.935354 0.416062
N1    N     N_2   0.501130 0.501330 0.852280 -0.023190
C20   C     C_2   0.550514 0.583415 0.086758 0.241868
N2    N     N_2   0.501160 0.501360 0.147950 -0.236512
H3    H     H_    0.444529 0.445228 0.095568 0.194476
O9    O     O_3   0.578916 0.694972 0.880141 -0.618183
C21   C     C_3   0.688205 0.712155 0.908949 0.176951
H4    H     H_    0.729511 0.623707 0.924853 0.207851
H5    H     H_    0.708669 0.772626 0.999005 0.195441
C22   C     C_3   0.728885 0.780317 0.796065 -0.738648
H6    H     H_    0.695442 0.873529 0.786508 0.265340
H7    H     H_    0.814157 0.792681 0.819704 0.204588
H8    H     H_    0.709694 0.727757 0.700235 0.270516
N3    N     N_R   0.489090 0.381501 0.897115 0.223646
O10   O     O_R   0.405803 0.315914 0.851128 -0.362320
O11   O     O_R   0.566596 0.327178 0.965270 -0.481758
N4    N     N_R   0.604831 0.683006 0.164773 0.223473
O12   O     O_R   0.571014 0.794977 0.151176 -0.378368
O13   O     O_R   0.697438 0.666782 0.227694 -0.408196
O14   O     O_3   0.834583 0.514964 0.781128 -0.603463
C23   C     C_3   0.870250 0.398246 0.825864 0.150735
H9    H     H_    0.943564 0.412570 0.895497 0.235123
H10   H     H_    0.885917 0.332917 0.743872 0.090871
C24   C     C_3   0.788102 0.334836 0.896915 -0.648113
H11   H     H_    0.717606 0.312971 0.824169 0.253593
H12   H     H_    0.818027 0.246967 0.939944 0.210213
H13   H     H_    0.767270 0.396029 0.978258 0.292839
N5    N     N_R   0.959186 0.470883 0.193541 0.183473
O15   O     O_R   0.969469 0.361024 0.142234 -0.425567
O16   O     O_R   0.899408 0.549859 0.127905 -0.436550
O17   O     O_3   0.024080 0.640925 0.785809 -0.571179
C25   C     C_3   0.025040 0.770791 0.767807 0.146537
H14   H     H_    0.951567 0.802705 0.710378 0.100613
H15   H     H_    0.089811 0.799378 0.712508 0.175956
C26   C     C_3   0.040128 0.837812 0.903299 -0.832649
H16   H     H_    0.118574 0.820733 0.956494 0.246935
H17   H     H_    0.032793 0.939209 0.890004 0.213383
H18   H     H_    0.980589 0.804615 0.964773 0.269327
O18   O     O_3   0.175209 0.486366 0.217596 -0.564976
C27   C     C_3   0.161530 0.585358 0.127816 0.176315
H19   H     H_    0.136563 0.673215 0.172811 0.081819
H20   H     H_    0.101783 0.556818 0.042664 0.241775
C28   C     C_3   0.263498 0.612532 0.073929 -0.704698
H21   H     H_    0.253529 0.685434 0.998405 0.236792
H22   H     H_    0.324314 0.644804 0.156057 0.263908
H23   H     H_    0.288792 0.527301 0.026194 0.277187
N6    N     N_R   0.197860 0.589162 0.695545 0.257072
O19   O     O_R   0.259464 0.687076 0.716118 -0.467174
O20   O     O_R   0.202281 0.503620 0.784453 -0.358819
O21   O     O_3   0.405175 0.868505 0.282475 -0.572904
C29   C     C_3   0.309546 0.924351 0.237282 0.083756
H24   H     H_    0.285807 0.997990 0.305529 0.113557
H25   H     H_    0.246910 0.851431 0.228804 0.141170
C30   C     C_3   0.313267 0.977131 0.099849 -0.726988
H26   H     H_    0.334982 0.904079 0.030419 0.255028
H27   H     H_    0.235623 0.011797 0.060159 0.204291
H28   H     H_    0.371158 0.055456 0.106368 0.293862
O22   O     O_3   0.535547 0.932632 0.622720 -0.661592
C31   C     C_3   0.465995 0.930302 0.719940 0.081435
H29   H     H_    0.463529 0.839342 0.766986 0.259178
H30   H     H_    0.384296 0.949171 0.677508 0.121020
C32   C     C_3   0.502831 0.027016 0.829134 -0.658225
H31   H     H_    0.518414 0.117507 0.784750 0.290552
H32   H     H_    0.442189 0.038715 0.895470 0.231953
H33   H     H_    0.575389 0.997489 0.889510 0.242809
O23   O     O_3   0.536333 0.103340 0.286378 -0.561757
C33   C     C_3   0.643447 0.080120 0.316670 0.141598
H34   H     H_    0.656570 0.978618 0.319202 0.187326
H35   H     H_    0.676615 0.124045 0.414545 0.108502
C34   C     C_3   0.701360 0.135390 0.209586 -0.704256
H36   H     H_    0.691315 0.237296 0.206961 0.274754
H37   H     H_    0.785734 0.116985 0.231672 0.198299
H38   H     H_    0.670741 0.093189 0.110485 0.265577

loop_
_geom_bond_atom_site_label_1
_geom_bond_atom_site_label_2
_geom_bond_distance
_ccdc_geom_bond_type
C14   O17   1.383376 S    
C28   H21   1.107513 S    
C9    C10   1.399184 A    
C30   H28   1.109080 S    
C33   C34   1.521490 S    
C29   H24   1.117055 S    
N4    O13   1.299467 A    
N6    O19   1.301965 A    
Zn1   O7    2.025691 S    
C15   C16   1.348928 D    
C21   H4    1.111473 S    
C17   C18   1.331285 D    
C5    C12   1.392840 A    
C30   H27   1.110479 S    
C21   C22   1.517110 S    
C19   O9    1.386299 S    
O4    C2    1.304237 A    
O7    C4    1.306185 A    
N5    O16   1.300991 A    
C1    C18   1.414752 S    
N2    H3    1.021219 S    
C9    N6    1.434911 S    
O5    C3    1.291470 A    
C34   H36   1.111249 S    
C25   H15   1.109688 S    
C33   H35   1.115314 S    
C22   H8    1.107464 S    
C25   H14   1.114575 S    
C10   C14   1.416240 A    
C26   H17   1.110446 S    
C12   H1    1.081555 S    
C13   C14   1.391172 A    
C19   C20   1.526230 S    
C27   H19   1.116652 S    
C31   H30   1.113977 S    
O17   C25   1.417021 S    
C7    N5    1.430805 S    
C8    O18   1.386558 S    
C22   H7    1.102438 S    
C11   C12   1.386886 A    
C28   H22   1.108872 S    
O18   C27   1.417737 S    
O3    Zn1   1.996528 S    
C34   H37   1.110511 S    
C29   H25   1.108035 S    
N3    O11   1.301585 A    
C33   H34   1.113242 S    
N6    O20   1.300833 A    
C24   H12   1.110455 S    
C23   H9    1.109481 S    
N4    O12   1.300496 A    
C30   H26   1.110674 S    
O3    C2    1.302735 A    
C13   O14   1.376642 S    
O14   C23   1.416725 S    
N5    O15   1.300433 A    
C34   H38   1.110568 S    
C7    C11   1.402908 A    
O1    C1    1.296064 A    
C18   H2    1.076504 S    
C19   N1    1.303110 D    
Zn2   O8    1.996528 S    
C26   H18   1.110557 S    
O23   C33   1.411347 S    
C27   C28   1.518769 S    
C32   H32   1.107348 S    
C7    C8    1.393850 A    
N1    N3    1.391556 S    
Zn2   N2    2.037224 S    
C10   C11   1.415930 A    
C31   C32   1.521937 S    
Zn2   O6    1.980590 S    
C22   H6    1.107222 S    
O8    C4    1.298068 A    
C20   N4    1.429636 S    
C28   H23   1.106731 S    
C29   C30   1.521211 S    
N3    O10   1.300057 A    
Zn1   O5    1.998048 S    
C24   H11   1.110180 S    
O9    C21   1.413151 S    
Zn1   N1    2.034930 S    
C25   C26   1.521945 S    
O1    Zn1   1.980591 S    
O2    Zn2   1.998050 S    
O21   C29   1.417811 S    
O6    C3    1.302147 A    
O4    Zn2   2.025692 S    
C15   C17   1.454519 S    
C17   O23   1.386515 S    
C23   C24   1.517972 S    
O2    C1    1.286518 A    
C21   H5    1.106867 S    
C6    C9    1.416329 A    
C5    C13   1.396755 A    
C32   H31   1.108707 S    
C20   N2    1.294466 D    
C32   H33   1.109455 S    
C16   O22   1.391540 S    
C15   O21   1.389410 S    
C2    C6    1.464292 S    
O22   C31   1.420248 S    
C6    C8    1.410789 A    
C26   H16   1.107111 S    
C4    C5    1.453750 S    
C3    C16   1.438020 S    
C27   H20   1.110513 S    
C23   H10   1.119145 S    
C31   H29   1.102129 S    
C24   H13   1.109302 S    
