data_mof_unit_56695.cif
_audit_creation_date              2013-03-05T15:41:00-0500
_audit_creation_method            fapswitch 2.2
_symmetry_space_group_name_H-M    P1
_symmetry_Int_Tables_number       1
_space_group_crystal_system       triclinic
_cell_length_a                    28.163503
_cell_length_b                    7.187234
_cell_length_c                    17.205196
_cell_angle_alpha                 90.000535
_cell_angle_beta                  101.933813
_cell_angle_gamma                 89.994376
_cell_volume                      3407.36616999

loop_
_atom_site_label
_atom_site_type_symbol
_atom_site_description
_atom_site_fract_x
_atom_site_fract_y
_atom_site_fract_z
_atom_type_partial_charge
O1    O     O_R   0.000700 0.436510 0.857920 -0.553969
O2    O     O_R   0.999300 0.563490 0.142080 -0.553581
O3    O     O_R   0.999300 0.936510 0.642080 -0.553583
O4    O     O_R   0.000700 0.063490 0.357920 -0.553971
O5    O     O_R   0.930080 0.766380 0.721890 -0.559702
O6    O     O_R   0.069920 0.233620 0.278110 -0.560508
O7    O     O_R   0.069920 0.266380 0.778110 -0.560481
O8    O     O_R   0.930080 0.733620 0.221890 -0.559662
C1    C     C_R   0.910569 0.597566 0.709252 0.816529
C2    C     C_R   0.089491 0.402355 0.291046 0.818561
C3    C     C_R   0.089490 0.097628 0.791044 0.818554
C4    C     C_R   0.910570 0.902453 0.209263 0.816508
O9    O     O_R   0.996180 0.766230 0.862310 -0.558083
O10   O     O_R   0.003820 0.233770 0.137690 -0.557533
O11   O     O_R   0.003820 0.266230 0.637690 -0.557536
O12   O     O_R   0.996180 0.733770 0.362310 -0.558094
O13   O     O_R   0.065870 0.936460 0.783500 -0.557168
O14   O     O_R   0.934130 0.063540 0.216500 -0.556911
O15   O     O_R   0.934130 0.436460 0.716500 -0.556927
O16   O     O_R   0.065870 0.563540 0.283500 -0.557167
C5    C     C_R   0.998486 0.596445 0.894503 0.843609
C6    C     C_R   0.001513 0.403555 0.105496 0.845185
C7    C     C_R   0.001512 0.096444 0.605496 0.845168
C8    C     C_R   0.998486 0.903556 0.394503 0.843576
O17   O     O_3   0.022790 0.603020 0.723980 -0.283778
O18   O     O_3   0.977210 0.396980 0.276020 -0.284035
O19   O     O_3   0.977210 0.103020 0.776020 -0.284053
O20   O     O_3   0.022790 0.896980 0.223980 -0.283786
V1    V     V_3+5 0.995770 0.877900 0.754830 1.130608
V2    V     V_3+5 0.004230 0.122100 0.245170 1.130471
V3    V     V_3+5 0.004230 0.377900 0.745170 1.130465
V4    V     V_3+5 0.995770 0.622100 0.254830 1.130626
C9    C     C_2   0.001703 0.082695 0.519579 -0.246736
C10   C     C_2   0.998291 0.917306 0.480419 -0.246852
C11   C     C_2   0.998291 0.582696 0.980419 -0.246859
C12   C     C_2   0.001704 0.417304 0.019578 -0.246744
H1    H     H_    0.004497 0.211682 0.487931 0.107695
H2    H     H_    0.995497 0.788318 0.512066 0.107637
H3    H     H_    0.995494 0.711685 0.012068 0.107633
H4    H     H_    0.004500 0.288314 0.987930 0.107692
C13   C     C_R   0.683395 0.092683 0.056693 0.587642
C14   C     C_R   0.315687 0.967051 0.968029 0.581602
C15   C     C_R   0.315698 0.532111 0.468160 0.581495
C16   C     C_R   0.683420 0.407906 0.556299 0.587494
O21   O     O_2   0.713335 0.206590 0.026964 -0.558358
O22   O     O_2   0.285098 0.887583 0.009152 -0.548236
O23   O     O_2   0.285111 0.611045 0.509442 -0.548138
O24   O     O_2   0.713378 0.294363 0.526411 -0.558350
N1    N     N_R   0.702411 0.954373 0.109040 -0.444509
N2    N     N_R   0.297423 0.058401 0.898207 -0.446688
N3    N     N_R   0.297430 0.441277 0.398214 -0.446708
N4    N     N_R   0.702417 0.545897 0.608822 -0.444485
C17   C     C_R   0.672330 0.833829 0.137747 0.571480
C18   C     C_R   0.327942 0.142020 0.856114 0.573378
C19   C     C_R   0.327948 0.358121 0.355983 0.573314
C20   C     C_R   0.672318 0.666125 0.637669 0.571360
C21   C     C_R   0.781863 0.091632 0.170960 -0.012284
C22   C     C_R   0.221640 0.241290 0.861078 -0.007496
C23   C     C_R   0.221658 0.258472 0.360754 -0.007456
C24   C     C_R   0.781868 0.408341 0.670578 -0.012341
C25   C     C_R   0.832341 0.079542 0.194727 -0.127455
C26   C     C_R   0.171196 0.251133 0.834950 -0.121592
C27   C     C_R   0.171214 0.248708 0.334625 -0.121624
C28   C     C_R   0.832342 0.420373 0.694399 -0.127457
C29   C     C_R   0.829375 0.758986 0.150711 -0.127617
C30   C     C_R   0.167515 0.915135 0.824670 -0.123604
C31   C     C_R   0.167503 0.584806 0.325011 -0.123567
C32   C     C_R   0.829370 0.741314 0.650882 -0.127645
C33   C     C_R   0.778854 0.772269 0.125687 -0.009827
C34   C     C_R   0.217965 0.905722 0.850468 -0.003632
C35   C     C_R   0.217953 0.594144 0.350810 -0.003644
C36   C     C_R   0.778852 0.728102 0.625805 -0.009816
C37   C     C_R   0.754580 0.938917 0.135477 0.262144
C38   C     C_R   0.245453 0.068541 0.869331 0.271008
C39   C     C_R   0.245457 0.431230 0.369342 0.271001
C40   C     C_R   0.754583 0.561288 0.635315 0.262259
C41   C     C_R   0.601540 0.994689 0.062213 -0.065868
C42   C     C_R   0.397882 0.045648 0.956304 -0.068950
C43   C     C_R   0.397895 0.454045 0.456244 -0.069115
C44   C     C_R   0.601552 0.505489 0.561966 -0.065903
C45   C     C_R   0.632771 0.116316 0.033014 -0.075920
C46   C     C_R   0.366180 0.957530 0.997888 -0.081538
C47   C     C_R   0.366194 0.541675 0.497981 -0.081577
C48   C     C_R   0.632801 0.384203 0.532612 -0.075910
C49   C     C_R   0.613004 0.263312 0.983281 -0.081635
C50   C     C_R   0.385289 0.868749 0.070024 -0.072522
C51   C     C_R   0.385310 0.630021 0.570213 -0.072629
C52   C     C_R   0.613056 0.237426 0.482736 -0.081529
C53   C     C_R   0.621495 0.850867 0.114446 -0.022876
C54   C     C_R   0.378593 0.138374 0.884582 -0.032718
C55   C     C_R   0.378602 0.361735 0.384425 -0.032801
C56   C     C_R   0.621485 0.649063 0.614347 -0.022978
C57   C     C_R   0.856799 0.913157 0.184886 -0.097599
C58   C     C_R   0.143342 0.088022 0.816793 -0.099561
C59   C     C_R   0.143344 0.411904 0.316800 -0.099568
C60   C     C_R   0.856797 0.586920 0.684834 -0.097608
H5    H     H_    0.847028 0.629063 0.141921 0.098377
H6    H     H_    0.147519 0.786468 0.811056 0.100734
H7    H     H_    0.147496 0.713549 0.311671 0.100656
H8    H     H_    0.847016 0.871387 0.642306 0.098360
H9    H     H_    0.758639 0.653075 0.098003 0.116935
H10   H     H_    0.235716 0.771258 0.856056 0.088382
H11   H     H_    0.235690 0.728629 0.356661 0.088205
H12   H     H_    0.758636 0.847497 0.598299 0.116702
H13   H     H_    0.636812 0.365910 0.965387 0.163395
H14   H     H_    0.361023 0.811498 0.105200 0.171244
H15   H     H_    0.361048 0.686840 0.605501 0.171294
H16   H     H_    0.636882 0.135059 0.464705 0.163365
C61   C     C_R   0.480149 0.142738 0.947030 0.055048
C62   C     C_R   0.519269 0.900768 0.073160 0.086981
C63   C     C_R   0.519272 0.598918 0.573084 0.086649
C64   C     C_R   0.480171 0.357437 0.446771 0.054995
C65   C     C_R   0.468209 0.933327 0.054655 -0.035335
C66   C     C_R   0.530689 0.151743 0.981298 -0.043045
C67   C     C_R   0.530721 0.348533 0.480968 -0.042973
C68   C     C_R   0.468224 0.566135 0.554629 -0.035625
C69   C     C_R   0.448846 0.040768 0.986208 0.035921
C70   C     C_R   0.550392 0.016205 0.038974 0.037141
C71   C     C_R   0.550409 0.483855 0.538749 0.037254
C72   C     C_R   0.448863 0.459006 0.486092 0.035795
C73   C     C_R   0.460175 0.223142 0.872574 0.030159
C74   C     C_R   0.540142 0.750026 0.120929 0.036711
C75   C     C_R   0.540117 0.749501 0.620972 0.036163
C76   C     C_R   0.460185 0.277335 0.372259 0.030328
C77   C     C_R   0.410302 0.222620 0.842301 -0.000138
C78   C     C_R   0.590295 0.726701 0.141832 -0.035407
C79   C     C_R   0.590265 0.772930 0.641872 -0.035349
C80   C     C_R   0.410308 0.277872 0.342024 0.000254
O25   O     O_2   0.309425 0.227682 0.786675 -0.541154
O26   O     O_2   0.691399 0.699772 0.189825 -0.553028
O27   O     O_2   0.691365 0.799876 0.689916 -0.553099
O28   O     O_2   0.309429 0.272967 0.286427 -0.541147
C81   C     C_R   0.562661 0.287025 0.959477 0.292367
C82   C     C_R   0.435462 0.860575 0.100212 0.297648
C83   C     C_R   0.435489 0.638339 0.600334 0.297472
C84   C     C_R   0.562720 0.213567 0.458973 0.292382
H17   H     H_    0.154049 0.386707 0.829906 0.096753
H18   H     H_    0.852174 0.200537 0.221413 0.103590
H19   H     H_    0.852174 0.299178 0.720903 0.103573
H20   H     H_    0.154082 0.113108 0.329307 0.096758
H21   H     H_    0.242205 0.368363 0.875786 0.089820
H22   H     H_    0.763915 0.220740 0.179986 0.107507
H23   H     H_    0.763925 0.279084 0.679392 0.107268
H24   H     H_    0.242234 0.131312 0.375197 0.089675
H25   H     H_    0.396730 0.288650 0.785439 0.146490
H26   H     H_    0.604499 0.610140 0.179445 0.129074
H27   H     H_    0.604452 0.889315 0.679605 0.129211
H28   H     H_    0.396730 0.212152 0.285099 0.146423
H29   H     H_    0.482926 0.282138 0.835504 0.150673
H30   H     H_    0.518045 0.644048 0.140395 0.117362
H31   H     H_    0.517997 0.855236 0.640571 0.117344
H32   H     H_    0.482931 0.218633 0.335105 0.150298
N5    N     N_R   0.545229 0.460577 0.922584 0.079457
O29   O     O_R   0.510411 0.549626 0.945887 -0.378624
O30   O     O_R   0.568950 0.544142 0.875291 -0.322850
N6    N     N_R   0.451617 0.801655 0.181220 0.070417
O31   O     O_R   0.483058 0.901500 0.229890 -0.327529
O32   O     O_R   0.429562 0.666450 0.209607 -0.362136
N7    N     N_R   0.451674 0.696810 0.681396 0.070501
O33   O     O_R   0.429551 0.831511 0.710011 -0.361745
O34   O     O_R   0.483206 0.596935 0.729893 -0.328043
N8    N     N_R   0.545323 0.040116 0.421961 0.079474
O35   O     O_R   0.568993 0.957122 0.374426 -0.322902
O36   O     O_R   0.510631 0.950532 0.445373 -0.378097

loop_
_geom_bond_atom_site_label_1
_geom_bond_atom_site_label_2
_geom_bond_distance
_ccdc_geom_bond_type
O17   V3    1.761541 S    
C47   C51   1.400304 A    
N1    C17   1.373124 A    
C22   C26   1.400457 A    
O1    C5    1.318178 A    
O19   V1    1.761441 S    
O13   V1    1.978786 S    
C27   H20   1.082970 S    
O3    C7    1.318188 A    
C11   C12   1.359929 D    
C14   C46   1.410232 A    
C44   C48   1.404690 A    
O4    V2    2.007553 S    
O15   V3    1.978705 S    
C62   C70   1.419860 A    
C78   H26   1.083294 S    
C61   C69   1.419341 A    
C68   C83   1.427344 A    
C84   N8    1.439002 S    
C42   C54   1.408797 A    
O7    C3    1.331724 A    
C41   C53   1.408187 A    
C32   C60   1.408014 A    
C21   H22   1.083064 S    
C81   N5    1.439061 S    
C74   H30   1.079794 S    
C63   C71   1.419857 A    
N6    O31   1.301430 A    
N3    C39   1.446999 S    
C18   C54   1.409460 A    
N2    C38   1.446968 S    
C24   H23   1.083133 S    
C52   H16   1.083408 S    
C25   C57   1.407569 A    
C25   H18   1.083096 S    
C31   C35   1.399840 A    
C67   C84   1.427291 A    
C27   C59   1.409330 A    
O1    V3    2.007542 S    
C15   C47   1.410200 A    
O2    V4    2.007542 S    
C14   O22   1.349501 S    
C21   C37   1.404978 A    
O3    V1    2.007553 S    
C34   C38   1.403673 A    
C19   C55   1.409467 A    
C73   C77   1.393425 A    
C1    O15   1.327496 A    
C82   N6    1.437574 S    
C2    O16   1.328766 A    
C7    C9    1.482650 S    
O2    C6    1.318178 A    
N7    O34   1.301383 A    
C33   C37   1.406324 A    
C63   C68   1.426381 A    
O14   V2    1.978786 S    
N5    O30   1.301551 A    
C79   H27   1.083327 S    
O5    V1    1.988216 S    
C31   H7    1.082951 S    
C76   C80   1.393437 A    
C16   N4    1.373529 A    
O11   C7    1.336132 A    
C76   H32   1.079948 S    
C44   C71   1.421442 A    
O12   C8    1.336131 A    
C31   C59   1.409819 A    
C50   H14   1.083427 S    
O10   V2    2.013725 S    
C49   H13   1.083347 S    
C13   N1    1.373526 A    
C50   C82   1.402276 A    
N8    O36   1.301682 A    
C53   C78   1.400679 A    
C75   H31   1.079862 S    
C83   N7    1.437585 S    
C55   C80   1.400765 A    
C63   C75   1.412404 A    
O8    V4    1.988074 S    
C51   C83   1.402316 A    
C12   H4    1.086222 S    
C42   C69   1.421508 A    
O7    V3    1.988077 S    
C28   C60   1.407588 A    
C41   C70   1.421478 A    
C64   C72   1.419370 A    
O18   V4    1.761543 S    
C80   H28   1.083386 S    
C36   H12   1.083031 S    
N4    C40   1.449691 S    
C46   C50   1.400302 A    
O11   V3    2.013710 S    
C24   C40   1.404991 A    
C8    C10   1.482645 S    
C68   C72   1.419439 A    
C32   C36   1.401992 A    
C74   C78   1.393697 A    
C11   H3    1.086223 S    
C32   H8    1.083122 S    
O5    C1    1.331184 A    
C54   C77   1.400744 A    
C42   C46   1.405159 A    
C75   C79   1.393703 A    
N7    O33   1.301764 A    
C1    C60   1.487505 S    
C41   C45   1.404674 A    
O8    C4    1.331187 A    
C13   C45   1.409716 A    
C43   C72   1.421468 A    
C9    C10   1.359924 D    
O9    C5    1.336123 A    
C36   C40   1.406330 A    
N2    C18   1.371859 A    
C21   C25   1.398355 A    
C44   C56   1.408206 A    
C62   C65   1.426406 A    
C52   C84   1.402380 A    
C66   C70   1.419066 A    
C61   C66   1.425060 A    
C14   N2    1.372283 A    
C65   C69   1.419454 A    
C3    C58   1.491092 S    
O6    V2    1.988216 S    
C23   H24   1.083126 S    
C67   C71   1.419084 A    
C65   C82   1.427378 A    
C26   C58   1.409300 A    
C17   C53   1.410008 A    
O10   C6    1.336125 A    
N1    C37   1.449680 S    
C4    C57   1.487449 S    
C56   C79   1.400698 A    
C23   C39   1.404276 A    
C22   C38   1.404256 A    
N8    O35   1.301701 A    
O16   V4    1.978705 S    
O9    V1    2.013724 S    
C18   O25   1.349305 S    
C35   H11   1.083161 S    
C3    O13   1.328754 A    
C10   H2    1.086213 S    
C43   C55   1.408780 A    
C48   C52   1.400437 A    
C17   O26   1.349249 S    
C16   C48   1.409693 A    
O6    C2    1.331715 A    
C34   H10   1.083132 S    
C64   C76   1.411877 A    
C5    C11   1.482650 S    
C33   H9    1.082963 S    
O12   V4    2.013711 S    
C6    C12   1.482654 S    
C23   C27   1.400454 A    
C30   C58   1.409808 A    
C24   C28   1.398325 A    
C30   H6    1.082933 S    
N6    O32   1.301645 A    
C29   H5    1.083063 S    
C77   H25   1.083394 S    
C62   C74   1.412423 A    
C35   C39   1.403702 A    
C22   H21   1.083099 S    
C15   N3    1.372278 A    
C30   C34   1.399845 A    
C2    C59   1.491123 S    
O4    C8    1.318188 A    
C29   C33   1.402010 A    
O20   V2    1.761442 S    
C29   C57   1.407969 A    
C66   C81   1.427285 A    
C73   H29   1.079902 S    
N3    C19   1.371873 A    
C26   H17   1.082949 S    
C9    H1    1.086213 S    
C20   O27   1.349286 S    
C43   C47   1.405176 A    
N4    C20   1.373113 A    
C20   C56   1.409992 A    
C51   H15   1.083416 S    
C19   O28   1.349309 S    
C4    O14   1.327475 A    
C13   O21   1.349596 S    
C61   C73   1.411878 A    
N5    O29   1.301673 A    
C15   O23   1.349566 S    
C64   C67   1.425025 A    
C45   C49   1.400418 A    
C16   O24   1.349644 S    
C49   C81   1.402423 A    
C28   H19   1.083157 S    
