data_mof_unit_52630.cif
_audit_creation_date              2012-12-10T19:53:41-0500
_audit_creation_method            fapswitch 2.2
_symmetry_space_group_name_H-M    P1
_symmetry_Int_Tables_number       1
_space_group_crystal_system       triclinic
_cell_length_a                    15.060995
_cell_length_b                    14.145258
_cell_length_c                    10.5277
_cell_angle_alpha                 89.966885
_cell_angle_beta                  90.011928
_cell_angle_gamma                 90.020186
_cell_volume                      2242.8381218

loop_
_atom_site_label
_atom_site_type_symbol
_atom_type_description
_atom_site_fract_x
_atom_site_fract_y
_atom_site_fract_z
_atom_type_partial_charge
C1    C     C_R   0.327201 0.499990 0.499960 0.960347
C2    C     C_R   0.672175 0.500009 0.499980 1.009350
C3    C     C_R   0.471195 0.105011 0.393267 -0.248178
C4    C     C_R   0.477140 0.895034 0.609571 -0.259611
C5    C     C_R   0.528748 0.104911 0.606666 -0.250402
C6    C     C_R   0.522692 0.895150 0.390395 -0.262856
C7    C     C_R   0.471505 0.204405 0.395403 0.144150
C8    C     C_R   0.477281 0.795643 0.607415 0.050301
C9    C     C_R   0.528600 0.204312 0.604503 0.098232
C10   C     C_R   0.522703 0.795754 0.392595 0.075495
C11   C     C_R   0.499918 0.053298 0.499980 0.137634
C12   C     C_R   0.499890 0.946754 0.499975 0.129491
C13   C     C_R   0.499728 0.499964 0.257039 0.933921
C14   C     C_R   0.499776 0.500040 0.742959 0.935469
C15   C     C_3   0.427437 0.544877 0.041675 -0.188997
C16   C     C_3   0.573369 0.455096 0.958127 -0.067491
C17   C     C_3   0.500539 0.589980 0.958913 -0.146325
C18   C     C_3   0.500236 0.410045 0.041079 -0.140600
C19   C     C_3   0.427305 0.455362 0.958233 -0.192537
C20   C     C_3   0.573500 0.544717 0.041953 -0.073183
C21   C     C_3   0.500294 0.500305 0.877870 -0.006709
C22   C     C_3   0.500255 0.499717 0.122125 -0.009809
C23   C     C_R   0.090812 0.576736 0.449323 -0.199784
C24   C     C_R   0.906485 0.438942 0.419331 -0.217130
C25   C     C_R   0.906535 0.561154 0.580744 -0.198161
C26   C     C_R   0.090761 0.423367 0.550611 -0.222259
C27   C     C_R   0.182698 0.577596 0.445427 0.418140
C28   C     C_R   0.814614 0.439054 0.416202 0.329129
C29   C     C_R   0.814654 0.560981 0.583913 0.413102
C30   C     C_R   0.182633 0.422440 0.554348 0.336046
C31   C     C_R   0.230298 0.499993 0.499879 -0.332184
C32   C     C_R   0.767992 0.500019 0.500031 -0.324504
C33   C     C_R   0.046182 0.500068 0.500007 -0.004709
C34   C     C_R   0.951229 0.500067 0.500017 -0.002136
H1    H     H_    0.367016 0.419132 0.922980 0.214867
H2    H     H_    0.632935 0.581231 0.080520 0.180859
H3    H     H_    0.367255 0.581298 0.076828 0.216295
H4    H     H_    0.632702 0.418422 0.919619 0.180582
H5    H     H_    0.500719 0.663472 0.921794 0.160763
H6    H     H_    0.500139 0.336556 0.078218 0.169962
H7    H     H_    0.052895 0.635142 0.410658 0.209085
H8    H     H_    0.943966 0.392659 0.357326 0.202343
H9    H     H_    0.944070 0.607425 0.642758 0.207392
H10   H     H_    0.052834 0.364963 0.589320 0.204005
H11   H     H_    0.447241 0.069018 0.309263 0.142979
H12   H     H_    0.457925 0.931021 0.696008 0.155931
H13   H     H_    0.552659 0.068831 0.690669 0.144906
H14   H     H_    0.541857 0.931236 0.303941 0.151947
H15   H     H_    0.448382 0.243061 0.313182 0.115583
H16   H     H_    0.458753 0.757103 0.692043 0.136469
H17   H     H_    0.551732 0.242899 0.686739 0.125010
H18   H     H_    0.541212 0.757300 0.307947 0.137086
N1    N     N_R   0.500000 0.252470 0.500000 -0.077085
N2    N     N_R   0.500000 0.747530 0.500000 -0.088060
O1    O     O_R   0.369060 0.579480 0.500010 -0.551463
O2    O     O_R   0.630940 0.420520 0.499990 -0.579055
O3    O     O_R   0.630940 0.579480 0.499990 -0.569484
O4    O     O_R   0.369060 0.420520 0.500010 -0.558586
O5    O     O_R   0.499980 0.579460 0.313950 -0.632527
O6    O     O_R   0.500020 0.420540 0.686050 -0.629953
O7    O     O_R   0.500020 0.579460 0.686050 -0.631541
O8    O     O_R   0.499980 0.420540 0.313950 -0.622639
Zn1   Zn    Zn3+2 0.500000 0.606140 0.500000 1.040703
Zn2   Zn    Zn3+2 0.500000 0.393860 0.500000 1.059216
S1    S     S_3+6 0.232316 0.676688 0.368685 0.041185
O9    O     O_2   0.303936 0.644290 0.279657 -0.340053
O10   O     O_2   0.164217 0.731181 0.294150 -0.273716
O11   O     O_3   0.276379 0.748473 0.479324 -0.524821
H19   H     H_    0.305959 0.799486 0.430625 0.380252
S2    S     S_3+6 0.761942 0.365186 0.302250 0.046031
O12   O     O_2   0.692540 0.420760 0.232352 -0.312248
O13   O     O_2   0.828110 0.328156 0.207660 -0.268342
O14   O     O_3   0.713209 0.273049 0.375370 -0.513880
H20   H     H_    0.760820 0.243947 0.427188 0.349002
S3    S     S_3+6 0.761981 0.634612 0.697939 0.035494
O15   O     O_2   0.692180 0.579021 0.767143 -0.362961
O16   O     O_2   0.828372 0.671189 0.792596 -0.266332
O17   O     O_3   0.714525 0.727024 0.623724 -0.521721
H21   H     H_    0.675973 0.756782 0.688586 0.373044
S4    S     S_3+6 0.232128 0.323190 0.630914 0.052561
O18   O     O_2   0.303411 0.355566 0.720512 -0.293106
O19   O     O_2   0.164304 0.268192 0.705307 -0.269753
O20   O     O_3   0.277275 0.251393 0.521308 -0.518179
H22   H     H_    0.228140 0.236610 0.462006 0.348710

loop_
_geom_bond_atom_site_label_1
_geom_bond_atom_site_label_2
_ccdc_geom_bond_type
C16   C21   S    
C24   H8    S    
O14   H20   S    
C9    H17   S    
C4    C8    A    
C10   H18   S    
C25   H9    S    
C2    O3    A    
C26   H10   S    
C4    H12   S    
C15   C19   S    
C5    H13   S    
C6    H14   S    
C14   C21   S    
C19   C21   S    
C5    C11   A    
C29   C32   A    
C3    C7    A    
C6    C12   A    
C30   C31   A    
N1    Zn2   S    
N2    Zn1   S    
C1    C31   S    
C17   C20   S    
C2    C32   S    
C18   C19   S    
C17   H5    S    
O7    Zn1   S    
C18   H6    S    
C15   H3    S    
O8    Zn2   S    
C15   C22   S    
C13   O8    A    
O11   H19   S    
S1    O10   D    
O1    Zn1   S    
O2    Zn2   S    
S2    O12   D    
C23   C27   A    
C4    C12   A    
C25   C34   A    
C30   S4    S    
O4    Zn2   S    
S4    O20   S    
O3    Zn1   S    
C25   C29   A    
C27   C31   A    
C28   C32   A    
C7    H15   S    
S4    O19   D    
C8    N2    A    
O17   H21   S    
C23   C33   A    
C14   O7    A    
C3    H11   S    
C17   C21   S    
S3    O15   D    
C5    C9    A    
C27   S1    S    
C26   C33   A    
O20   H22   S    
C16   C20   S    
S1    O11   S    
S2    O14   S    
C33   C34   S    
S3    O16   D    
C13   O5    A    
C20   C22   S    
C19   H1    S    
C26   C30   A    
C9    N1    A    
C7    N1    A    
C8    H16   S    
C15   C17   S    
C18   C22   S    
C28   S2    S    
C24   C28   A    
S4    O18   D    
C6    C10   A    
C11   C12   S    
C29   S3    S    
C14   O6    A    
O5    Zn1   S    
C23   H7    S    
O6    Zn2   S    
C1    O1    A    
C2    O2    A    
C1    O4    A    
C13   C22   S    
C10   N2    A    
S3    O17   S    
C24   C34   A    
C3    C11   A    
C20   H2    S    
C16   C18   S    
S1    O9    D    
S2    O13   D    
C16   H4    S    
