data_mof_unit_60142.cif
_audit_creation_date              2012-12-10T19:49:59-0500
_audit_creation_method            fapswitch 2.2
_symmetry_space_group_name_H-M    P1
_symmetry_Int_Tables_number       1
_space_group_crystal_system       triclinic
_cell_length_a                    14.302751
_cell_length_b                    14.961684
_cell_length_c                    15.468428
_cell_angle_alpha                 91.805521
_cell_angle_beta                  66.921739
_cell_angle_gamma                 89.663525
_cell_volume                      3043.11992788

loop_
_atom_site_label
_atom_site_type_symbol
_atom_type_description
_atom_site_fract_x
_atom_site_fract_y
_atom_site_fract_z
_atom_type_partial_charge
Br1   Br    Br    0.672661 0.634310 0.651032 -0.447539
Br2   Br    Br    0.321909 0.349330 0.367154 -0.443096
Br3   Br    Br    0.794992 0.360723 0.355815 -0.288764
Br4   Br    Br    0.210208 0.658275 0.622304 -0.322412
Br5   Br    Br    0.421994 0.609721 0.238190 -0.335338
Br6   Br    Br    0.568015 0.360134 0.744238 -0.391004
Br7   Br    Br    0.815523 0.531474 0.205470 -0.365690
Br8   Br    Br    0.183143 0.505586 0.797195 -0.356905
C1    C     C_R   0.499364 0.671915 0.500610 0.987467
C2    C     C_R   0.578515 0.181716 0.511072 0.687185
C3    C     C_R   0.494473 0.767621 0.508342 -0.274396
C4    C     C_R   0.494069 0.231593 0.513099 -0.290793
C5    C     C_R   0.523089 0.810917 0.575252 -0.315492
C6    C     C_R   0.401749 0.189211 0.528900 -0.309018
C7    C     C_R   0.514673 0.902992 0.586492 0.699350
C8    C     C_R   0.394685 0.097824 0.539038 0.691717
C9    C     C_R   0.478689 0.951600 0.529579 -0.071736
C10   C     C_R   0.480389 0.048101 0.532486 -0.072121
C11   C     C_R   0.867555 0.552574 0.564139 -0.238486
C12   C     C_R   0.499230 0.327602 0.502297 0.977104
C13   C     C_R   0.127660 0.433855 0.448891 -0.233770
C14   C     C_R   0.770244 0.553971 0.562279 0.377366
C15   C     C_R   0.226274 0.436295 0.447969 0.374224
C16   C     C_R   0.435879 0.494276 0.676128 0.927464
C17   C     C_R   0.564060 0.505662 0.323656 0.943024
C18   C     C_R   0.822146 0.444384 0.438573 0.434163
C19   C     C_R   0.181665 0.564646 0.549726 0.416120
C20   C     C_R   0.921661 0.444820 0.435740 -0.238794
C21   C     C_R   0.083981 0.566047 0.548502 -0.235875
C22   C     C_R   0.946912 0.498973 0.499402 0.075012
C23   C     C_R   0.384375 0.466080 0.105491 -0.188965
C24   C     C_R   0.053573 0.499371 0.499134 0.083554
C25   C     C_R   0.395418 0.477688 0.777543 -0.203181
C26   C     C_R   0.604604 0.514161 0.220648 -0.203654
C27   C     C_R   0.263298 0.479847 0.935067 -0.120030
C28   C     C_R   0.738612 0.502533 0.064202 -0.119325
C29   C     C_R   0.291710 0.488202 0.838518 0.246601
C30   C     C_R   0.709216 0.510325 0.161573 0.251709
C31   C     C_R   0.465135 0.449625 0.815015 0.206660
C32   C     C_R   0.533860 0.524211 0.179327 0.218322
C33   C     C_R   0.441385 0.463568 0.911282 -0.003762
C34   C     C_R   0.620887 0.483183 0.890266 -0.183913
C35   C     C_R   0.560960 0.497644 0.084779 -0.019247
C36   C     C_R   0.337473 0.470606 0.972321 -0.085534
C37   C     C_R   0.665427 0.493887 0.025322 -0.084090
C38   C     C_R   0.517219 0.472941 0.948408 0.002615
C39   C     C_R   0.487137 0.479656 0.047094 -0.004292
C40   C     C_R   0.309735 0.466316 0.069200 0.673250
C41   C     C_R   0.694493 0.488290 0.927899 0.667812
C42   C     C_R   0.448985 0.907978 0.463288 -0.216610
C43   C     C_R   0.571621 0.090133 0.519736 -0.224725
C44   C     C_R   0.455830 0.815803 0.453263 0.666131
F1    F     F_    0.210571 0.462724 0.128978 -0.626727
F2    F     F_    0.793812 0.492733 0.868733 -0.625298
F3    F     F_    0.427661 0.773949 0.388364 -0.591782
F4    F     F_    0.667930 0.220392 0.499592 -0.583845
F5    F     F_    0.541305 0.944604 0.652542 -0.605614
F6    F     F_    0.304949 0.057766 0.554031 -0.607602
H1    H     H_    0.878747 0.593664 0.617678 0.196925
H2    H     H_    0.638431 0.051603 0.513715 0.225363
H3    H     H_    0.549698 0.773424 0.620022 0.241285
H4    H     H_    0.334778 0.226483 0.533333 0.242531
H5    H     H_    0.111097 0.380000 0.409434 0.191947
H6    H     H_    0.977662 0.402113 0.383117 0.193602
H7    H     H_    0.033711 0.620902 0.585908 0.187051
H8    H     H_    0.183479 0.484694 0.981140 0.236730
H9    H     H_    0.818780 0.502964 0.019165 0.237703
H10   H     H_    0.360453 0.457755 0.180200 0.216692
H11   H     H_    0.646493 0.489142 0.815220 0.218907
H12   H     H_    0.422985 0.945485 0.417858 0.223877
N1    N     N_R   0.747530 0.500020 0.500000 -0.146501
N2    N     N_R   0.252470 0.499980 0.500000 -0.144828
O1    O     O_R   0.420530 0.630930 0.499990 -0.543791
O2    O     O_R   0.579470 0.369070 0.500010 -0.528326
O3    O     O_R   0.579480 0.630940 0.499990 -0.604278
O4    O     O_R   0.420520 0.369060 0.500010 -0.610720
O5    O     O_R   0.375120 0.499990 0.632240 -0.578788
O6    O     O_R   0.624880 0.500010 0.367760 -0.576207
O7    O     O_R   0.534080 0.500000 0.632240 -0.569562
O8    O     O_R   0.465920 0.500000 0.367760 -0.563242
Zn1   Zn    Zn3+2 0.393860 0.499990 0.500000 1.085602
Zn2   Zn    Zn3+2 0.606140 0.500010 0.500000 1.090605

loop_
_geom_bond_atom_site_label_1
_geom_bond_atom_site_label_2
_ccdc_geom_bond_type
C19   C21   A    
C17   O8    A    
C28   H9    S    
C31   C33   A    
C25   C31   A    
C26   C32   A    
C27   C29   A    
C21   C24   A    
C41   F2    S    
C6    H4    S    
C12   O4    A    
C34   C38   A    
C3    C44   A    
C32   C35   A    
C42   C44   A    
C33   C38   A    
O5    Zn1   S    
C2    F4    S    
N2    Zn1   S    
C44   F3    S    
C17   C26   S    
N1    Zn2   S    
Br1   C14   S    
C23   C39   A    
C18   N1    A    
C7    F5    S    
C23   H10   S    
C1    O1    A    
O2    Zn2   S    
C2    C43   A    
O1    Zn1   S    
C10   C43   A    
C13   C15   A    
C40   F1    S    
C13   C24   A    
C17   O6    A    
C11   C14   A    
C27   H8    S    
C11   H1    S    
C34   H11   S    
C25   C29   A    
C9    C42   A    
C35   C37   A    
O6    Zn2   S    
C16   O7    A    
C37   C41   A    
C4    C12   S    
C9    C10   S    
C12   O2    A    
C28   C37   A    
C8    F6    S    
C27   C36   A    
C1    C3    S    
C2    C4    A    
C21   H7    S    
C20   H6    S    
C4    C6    A    
C23   C40   A    
C5    C7    A    
C33   C36   A    
C6    C8    A    
Br8   C29   S    
C14   N1    A    
Br4   C19   S    
C7    C9    A    
C38   C39   A    
C26   C30   A    
C15   N2    A    
Br3   C18   S    
O8    Zn1   S    
O4    Zn1   S    
O7    Zn2   S    
O3    Zn2   S    
C18   C20   A    
C16   C25   S    
C28   C30   A    
C42   H12   S    
C22   C24   S    
C3    C5    A    
C20   C22   A    
Br7   C30   S    
C13   H5    S    
C34   C41   A    
C16   O5    A    
C5    H3    S    
C8    C10   A    
Br5   C32   S    
Br2   C15   S    
Br6   C31   S    
C43   H2    S    
C1    O3    A    
C11   C22   A    
C35   C39   A    
C19   N2    A    
C36   C40   A    
