data_mof_unit_30390.cif
_audit_creation_date              2012-12-10T17:35:01-0500
_audit_creation_method            fapswitch 2.2
_symmetry_space_group_name_H-M    P1
_symmetry_Int_Tables_number       1
_space_group_crystal_system       triclinic
_cell_length_a                    12.328057
_cell_length_b                    12.991754
_cell_length_c                    13.863707
_cell_angle_alpha                 105.116385
_cell_angle_beta                  74.11122
_cell_angle_gamma                 116.422328
_cell_volume                      1887.47812814

loop_
_atom_site_label
_atom_site_type_symbol
_atom_type_description
_atom_site_fract_x
_atom_site_fract_y
_atom_site_fract_z
_atom_type_partial_charge
C1    C     C_R   0.144162 0.715537 0.510063 0.764252
C2    C     C_1   0.974659 0.505055 0.791294 -0.182898
C3    C     C_R   0.731654 0.982005 0.346213 -0.221178
C4    C     C_R   0.777735 0.161661 0.466200 -0.102994
C5    C     C_R   0.182625 0.930183 0.574415 0.095295
C6    C     C_R   0.268727 0.043387 0.599336 -0.187968
C7    C     C_R   0.393809 0.071182 0.570631 -0.162448
C8    C     C_R   0.438872 0.988336 0.510018 0.081593
C9    C     C_R   0.353249 0.877067 0.474107 0.048203
C10   C     C_R   0.567139 0.017245 0.476285 0.055283
C11   C     C_R   0.606885 0.945671 0.391325 0.120665
C12   C     C_R   0.984305 0.503938 0.686344 0.809345
C13   C     C_R   0.521191 0.840827 0.350092 -0.226225
C14   C     C_R   0.396586 0.806231 0.391486 -0.179159
C15   C     C_R   0.657627 0.117231 0.522233 0.189689
C16   C     C_R   0.815549 0.091865 0.380545 -0.243376
C17   C     C_R   0.225667 0.842287 0.517268 -0.145225
C18   C     C_R   0.630416 0.661423 0.675520 -0.012644
C19   C     C_R   0.248937 0.347917 0.366237 0.005551
C20   C     C_R   0.336824 0.302031 0.346114 -0.267157
C21   C     C_R   0.431794 0.349915 0.402477 0.270338
C22   C     C_R   0.444161 0.453619 0.475110 -0.085781
C23   C     C_R   0.856548 0.285479 0.486628 0.785731
C24   C     C_R   0.345365 0.491159 0.497966 0.257428
C25   C     C_R   0.546043 0.518841 0.529367 -0.060185
C26   C     C_R   0.536470 0.604511 0.615668 0.156803
C27   C     C_R   0.434819 0.633332 0.639064 -0.296642
C28   C     C_R   0.344365 0.580690 0.580193 -0.157573
C29   C     C_R   0.659997 0.507066 0.499037 -0.007528
C30   C     C_R   0.734730 0.636133 0.644725 0.033160
C31   C     C_R   0.015766 0.496158 0.313655 0.812790
C32   C     C_1   0.025905 0.495645 0.208733 -0.187077
C33   C     C_2   0.044740 0.495742 0.015104 -0.163123
C34   C     C_2   0.956799 0.506048 0.984974 -0.165443
C35   C     C_1   0.965997 0.505721 0.879746 -0.001388
C36   C     C_1   0.035109 0.495535 0.120301 -0.002695
Cu1   Cu    Cu3+1 0.899780 0.525060 0.522890 0.919860
Cu2   Cu    Cu3+1 0.100220 0.474940 0.477110 0.923349
H1    H     H_    0.877435 0.514412 0.039020 0.152827
H2    H     H_    0.334220 0.727117 0.352938 0.168597
H3    H     H_    0.806130 0.675475 0.690183 0.122296
H4    H     H_    0.424436 0.699535 0.702262 0.156506
H5    H     H_    0.680881 0.455280 0.428295 0.161644
H6    H     H_    0.173587 0.306135 0.324720 0.140461
H7    H     H_    0.324824 0.223068 0.291350 0.150670
H8    H     H_    0.273068 0.611726 0.604165 0.203934
H9    H     H_    0.124122 0.487368 0.961081 0.153537
H10   H     H_    0.908916 0.123874 0.338197 0.157111
H11   H     H_    0.550396 0.785910 0.284579 0.142403
H12   H     H_    0.762747 0.928876 0.280216 0.142935
H13   H     H_    0.453710 0.161267 0.590145 0.171842
H14   H     H_    0.239118 0.112294 0.641093 0.140712
N1    N     N_R   0.748810 0.563010 0.557590 -0.187989
N2    N     N_R   0.250540 0.437620 0.443020 -0.199202
O1    O     O_R   0.025040 0.682470 0.528790 -0.579486
O2    O     O_R   0.194310 0.640150 0.490130 -0.595106
O3    O     O_R   0.903380 0.524130 0.659910 -0.581024
O4    O     O_R   0.072660 0.481800 0.621240 -0.586101
O5    O     O_R   0.805690 0.359850 0.509870 -0.581931
O6    O     O_R   0.974960 0.317530 0.471210 -0.576478
O7    O     O_R   0.927340 0.518200 0.378760 -0.577413
O8    O     O_R   0.096620 0.475870 0.340090 -0.582037
C37   C     C_3   0.623583 0.748554 0.771801 -0.441474
C38   C     C_3   0.533788 0.687075 0.860517 -0.323969
C39   C     C_3   0.524191 0.774765 0.956597 -0.854327
H15   H     H_    0.615687 0.826361 0.979456 0.252120
H16   H     H_    0.489380 0.834607 0.943548 0.253378
H17   H     H_    0.459144 0.727852 0.019453 0.241484
H18   H     H_    0.440506 0.634667 0.841330 0.220574
H19   H     H_    0.566651 0.626983 0.876019 0.218296
H20   H     H_    0.715979 0.798117 0.793673 0.187922
H21   H     H_    0.598093 0.814901 0.758352 0.199767
N3    N     N_2   0.494602 0.279348 0.399569 -0.435632
H22   H     H_    0.525980 0.287375 0.463886 0.248564
C40   C     C_3   0.567430 0.251732 0.303268 -0.687623
H23   H     H_    0.614877 0.200854 0.313269 0.230456
H24   H     H_    0.637804 0.332651 0.274604 0.217910
H25   H     H_    0.507756 0.197998 0.246111 0.230252
N4    N     N_2   0.632159 0.164249 0.627310 -0.448831
H26   H     H_    0.691958 0.247772 0.650454 0.263782
C41   C     C_3   0.607441 0.087332 0.697041 -0.707866
H27   H     H_    0.584254 0.128828 0.776180 0.226769
H28   H     H_    0.690084 0.070129 0.690235 0.223902
H29   H     H_    0.528147 0.003488 0.681653 0.240605
C42   C     C_3   0.048172 0.912784 0.604137 -0.384480
C43   C     C_3   0.998456 0.905767 0.511126 -0.315687
C44   C     C_3   0.876680 0.920319 0.542026 -0.844504
H30   H     H_    0.807718 0.854916 0.589715 0.256321
H31   H     H_    0.890439 0.008927 0.585139 0.250868
H32   H     H_    0.840516 0.908326 0.473030 0.256604
H33   H     H_    0.066135 0.976049 0.467016 0.218853
H34   H     H_    0.984857 0.821027 0.460374 0.237198
H35   H     H_    0.991198 0.836774 0.643613 0.197181
H36   H     H_    0.038776 0.987732 0.661405 0.182251

loop_
_geom_bond_atom_site_label_1
_geom_bond_atom_site_label_2
_ccdc_geom_bond_type
C2    C35   T    
C44   H30   S    
N3    H22   S    
C31   O7    A    
C19   C20   A    
C18   C26   A    
C40   H23   S    
C2    C12   S    
C16   H10   S    
C41   H27   S    
C7    C8    A    
C42   C43   S    
C23   O5    A    
C28   H8    S    
C26   C27   A    
C32   C36   T    
C1    O2    A    
C10   C15   A    
C5    C6    A    
C18   C37   S    
C5    C17   A    
C24   N2    A    
C21   N3    S    
C33   C36   S    
C34   C35   S    
Cu2   O4    S    
C42   H35   S    
C15   N4    S    
C8    C9    A    
C39   H16   S    
C22   C25   A    
C30   H3    S    
C18   C30   A    
C38   H19   S    
C20   H7    S    
C12   O4    A    
C13   C14   A    
C29   H5    S    
Cu1   N1    S    
N3    C40   S    
C31   O8    A    
C41   H28   S    
C3    H12   S    
C25   C29   A    
C23   O6    A    
C30   N1    A    
C34   H1    S    
N4    C41   S    
C4    C23   S    
C43   C44   S    
C25   C26   A    
N4    H26   S    
C4    C16   A    
C9    C14   A    
Cu1   Cu2   S    
C42   H36   S    
C31   C32   S    
Cu2   N2    S    
C39   H17   S    
C33   C34   D    
C38   H18   S    
C37   H21   S    
C40   H24   S    
Cu1   O5    S    
C13   H11   S    
C12   O3    A    
C19   N2    A    
C9    C17   A    
C37   H20   S    
C44   H31   S    
C33   H9    S    
Cu2   O6    S    
C41   H29   S    
C19   H6    S    
C24   C28   A    
Cu1   O7    S    
C6    C7    A    
C1    C17   S    
C43   H33   S    
C38   C39   S    
C4    C15   A    
C1    O1    A    
C7    H13   S    
C43   H34   S    
C11   C13   A    
C27   H4    S    
C29   N1    A    
C22   C24   A    
C40   H25   S    
C3    C11   A    
C10   C11   A    
C14   H2    S    
C37   C38   S    
Cu1   O1    S    
Cu2   O2    S    
C20   C21   A    
C8    C10   A    
C39   H15   S    
C44   H32   S    
C27   C28   A    
C6    H14   S    
C21   C22   A    
C5    C42   S    
Cu1   O3    S    
C3    C16   A    
Cu2   O8    S    
