data_mof_unit_9172.cif
_audit_creation_date              2012-10-26T21:26:51-0400
_audit_creation_method            fapswitch 2.2
_symmetry_space_group_name_H-M    P1
_symmetry_Int_Tables_number       1
_space_group_crystal_system       triclinic
_cell_length_a                    16.535715
_cell_length_b                    16.535756
_cell_length_c                    28.844204
_cell_angle_alpha                 90.000367
_cell_angle_beta                  89.999664
_cell_angle_gamma                 90.009549
_cell_volume                      7886.88641167

loop_
_atom_site_label
_atom_site_type_symbol
_atom_type_description
_atom_site_fract_x
_atom_site_fract_y
_atom_site_fract_z
_atom_type_partial_charge
C1    C     C_1   0.998153 0.129575 0.195015 -0.028343
C2    C     C_3   0.999385 0.999388 0.750001 0.009020
C3    C     C_R   0.790564 0.724078 0.073743 -0.091010
C4    C     C_R   0.729508 0.724173 0.040177 -0.115011
C5    C     C_R   0.748516 0.738913 0.993700 -0.103080
C6    C     C_R   0.828574 0.753787 0.980744 -0.090428
C7    C     C_R   0.889793 0.753174 0.014131 -0.055926
C8    C     C_R   0.128590 0.374095 0.867084 0.047998
C9    C     C_R   0.202560 0.358663 0.889165 -0.065666
C10   C     C_R   0.264792 0.415829 0.887405 -0.110009
C11   C     C_R   0.253785 0.488109 0.863066 -0.108267
C12   C     C_R   0.180761 0.502986 0.840158 -0.111198
C13   C     C_R   0.999016 0.196078 0.162807 0.006320
C14   C     C_R   0.118419 0.445952 0.841936 -0.089324
C15   C     C_R   0.261954 0.871234 0.561170 0.048433
C16   C     C_R   0.275756 0.790529 0.574065 -0.091052
C17   C     C_R   0.275579 0.729495 0.540486 -0.114979
C18   C     C_R   0.260810 0.748540 0.494016 -0.102994
C19   C     C_R   0.245984 0.828614 0.481083 -0.090412
C20   C     C_R   0.246668 0.889807 0.514484 -0.055979
C21   C     C_R   0.625901 0.128511 0.367171 0.048195
C22   C     C_R   0.641449 0.202758 0.388924 -0.066092
C23   C     C_R   0.584270 0.264945 0.387013 -0.110253
C24   C     C_R   0.998919 0.804014 0.837678 0.006350
C25   C     C_R   0.511864 0.253615 0.362844 -0.108441
C26   C     C_R   0.496866 0.180305 0.340259 -0.111235
C27   C     C_R   0.553904 0.118002 0.342198 -0.088955
C28   C     C_R   0.131610 0.735090 0.935222 0.049343
C29   C     C_R   0.201195 0.689343 0.925842 -0.059453
C30   C     C_R   0.265756 0.689263 0.957128 -0.108875
C31   C     C_R   0.261707 0.735935 0.997467 -0.107740
C32   C     C_R   0.193191 0.782940 0.006483 -0.110765
C33   C     C_R   0.128356 0.782787 0.975396 -0.091029
C34   C     C_R   0.871643 0.378538 0.134120 0.046692
C35   C     C_R   0.804008 0.998925 0.662328 0.006348
C36   C     C_R   0.790181 0.354808 0.131241 -0.096251
C37   C     C_R   0.728615 0.412661 0.133614 -0.115645
C38   C     C_R   0.747795 0.494414 0.139265 -0.107130
C39   C     C_R   0.828562 0.518406 0.142843 -0.094409
C40   C     C_R   0.890195 0.460738 0.140518 -0.054157
C41   C     C_R   0.737954 0.871293 0.439189 0.048541
C42   C     C_R   0.724090 0.790596 0.426289 -0.090967
C43   C     C_R   0.724205 0.729557 0.459865 -0.114997
C44   C     C_R   0.738983 0.748589 0.506335 -0.103051
C45   C     C_R   0.753872 0.828653 0.519273 -0.090442
C46   C     C_R   0.196068 0.999005 0.337200 0.006322
C47   C     C_R   0.753234 0.889855 0.485877 -0.055979
C48   C     C_R   0.374040 0.128634 0.632887 0.048057
C49   C     C_R   0.358499 0.202644 0.610876 -0.065784
C50   C     C_R   0.415637 0.264903 0.612622 -0.110040
C51   C     C_R   0.487999 0.253883 0.636878 -0.108268
C52   C     C_R   0.502985 0.180819 0.659721 -0.111145
C53   C     C_R   0.445981 0.118449 0.657955 -0.089128
C54   C     C_R   0.871265 0.261932 0.938844 0.048438
C55   C     C_R   0.790555 0.275749 0.925963 -0.091013
C56   C     C_R   0.729536 0.275555 0.959552 -0.114968
C57   C     C_R   0.997880 0.804460 0.162074 0.006298
C58   C     C_R   0.748602 0.260754 0.006015 -0.102968
C59   C     C_R   0.828680 0.245916 0.018933 -0.090424
C60   C     C_R   0.889859 0.246619 0.985524 -0.056025
C61   C     C_R   0.128568 0.625977 0.132795 0.048270
C62   C     C_R   0.202861 0.641651 0.111125 -0.066236
C63   C     C_R   0.265086 0.584512 0.113031 -0.110304
C64   C     C_R   0.253745 0.512020 0.137113 -0.108453
C65   C     C_R   0.180387 0.496898 0.159620 -0.111183
C66   C     C_R   0.118047 0.553894 0.157684 -0.088741
C67   C     C_R   0.264996 0.131706 0.434826 0.049347
C68   C     C_R   0.997817 0.195681 0.837429 0.006255
C69   C     C_R   0.310642 0.201357 0.425420 -0.059788
C70   C     C_R   0.310733 0.265902 0.456718 -0.108933
C71   C     C_R   0.264176 0.261761 0.497100 -0.107821
C72   C     C_R   0.217273 0.193171 0.506143 -0.110811
C73   C     C_R   0.217426 0.128350 0.475046 -0.090738
C74   C     C_R   0.620926 0.872128 0.634250 0.046701
C75   C     C_R   0.644254 0.790538 0.631556 -0.096323
C76   C     C_R   0.586112 0.729251 0.634146 -0.115882
C77   C     C_R   0.504469 0.748842 0.639826 -0.107210
C78   C     C_R   0.480876 0.829743 0.643213 -0.094508
C79   C     C_R   0.195667 0.997820 0.662565 0.006259
C80   C     C_R   0.538831 0.891099 0.640669 -0.054466
C81   C     C_R   0.804436 0.997875 0.337913 0.006294
C82   C     C_R   0.000155 0.611901 0.938775 0.535149
C83   C     C_1   0.998096 0.870378 0.805522 -0.028444
C84   C     C_R   0.000136 0.388063 0.061271 0.534763
C85   C     C_R   0.388063 0.000136 0.438729 0.534773
C86   C     C_R   0.611900 0.000154 0.561226 0.535136
C87   C     C_R   0.999989 0.387778 0.938907 0.536417
C88   C     C_R   0.999993 0.612212 0.061035 0.536717
C89   C     C_R   0.612209 0.999992 0.438963 0.536756
C90   C     C_R   0.387776 0.999989 0.561092 0.536376
C91   C     C_R   0.061947 0.202082 0.130941 -0.123644
C92   C     C_R   0.937100 0.746581 0.837557 -0.126572
C93   C     C_R   0.798160 0.061765 0.630426 -0.123778
C94   C     C_1   0.870372 0.998102 0.694483 -0.028443
C95   C     C_R   0.253305 0.936982 0.337328 -0.126287
C96   C     C_R   0.935789 0.798466 0.129569 -0.124835
C97   C     C_R   0.060583 0.252034 0.837542 -0.124333
C98   C     C_R   0.201642 0.935727 0.630029 -0.124708
C99   C     C_R   0.748120 0.060612 0.337885 -0.124571
C100  C     C_R   0.061744 0.798183 0.869591 -0.123773
C101  C     C_R   0.936977 0.253296 0.162668 -0.126290
C102  C     C_R   0.798470 0.935805 0.370433 -0.124840
C103  C     C_R   0.251999 0.060606 0.662439 -0.124340
C104  C     C_R   0.935740 0.201635 0.869977 -0.124714
C105  C     C_1   0.129565 0.998142 0.304991 -0.028343
C106  C     C_R   0.060642 0.748174 0.162087 -0.124582
C107  C     C_R   0.202062 0.061928 0.369071 -0.123641
C108  C     C_R   0.746598 0.937085 0.662434 -0.126579
C109  C     C_R   0.063719 0.264699 0.098352 -0.041712
C110  C     C_R   0.937434 0.682279 0.869417 -0.041474
C111  C     C_R   0.735409 0.063637 0.597977 -0.041901
C112  C     C_R   0.317488 0.937235 0.369325 -0.041412
C113  C     C_R   0.936155 0.736937 0.096171 -0.041187
C114  C     C_R   0.062000 0.314900 0.870162 -0.039661
C115  C     C_R   0.263074 0.936120 0.596518 -0.041174
C116  C     C_1   0.998611 0.870839 0.194230 -0.028388
C117  C     C_R   0.685150 0.062001 0.370381 -0.039624
C118  C     C_R   0.063620 0.735429 0.902037 -0.041895
C119  C     C_R   0.937221 0.317472 0.130668 -0.041420
C120  C     C_R   0.736945 0.936172 0.403833 -0.041196
C121  C     C_R   0.314870 0.062019 0.629822 -0.039641
C122  C     C_R   0.936134 0.263066 0.903487 -0.041183
C123  C     C_R   0.062029 0.685195 0.129597 -0.039597
C124  C     C_R   0.264686 0.063707 0.401657 -0.041707
C125  C     C_R   0.682299 0.937412 0.630573 -0.041480
C126  C     C_R   0.000663 0.323316 0.097326 -0.012736
C127  C     C_1   0.998618 0.129145 0.805227 -0.028266
C128  C     C_R   0.000730 0.676622 0.902834 -0.012261
C129  C     C_R   0.676621 0.000729 0.597168 -0.012280
C130  C     C_R   0.323315 0.000664 0.402674 -0.012717
C131  C     C_R   0.999633 0.678802 0.095826 -0.009663
C132  C     C_R   0.999627 0.321217 0.903968 -0.010258
C133  C     C_R   0.321211 0.999627 0.596029 -0.010258
C134  C     C_R   0.678792 0.999633 0.404169 -0.009663
C135  C     C_1   0.998726 0.071947 0.220668 -0.012617
C136  C     C_1   0.998669 0.927726 0.779754 -0.012674
C137  C     C_1   0.927721 0.998673 0.720250 -0.012674
C138  C     C_1   0.129135 0.998617 0.694769 -0.028266
C139  C     C_1   0.071938 0.998720 0.279337 -0.012617
C140  C     C_1   0.999056 0.928071 0.220090 -0.012773
C141  C     C_1   0.999041 0.071615 0.779491 -0.012700
C142  C     C_1   0.071609 0.999040 0.720508 -0.012702
C143  C     C_1   0.928058 0.999059 0.279904 -0.012771
C144  C     C_R   0.131717 0.265001 0.065180 0.049361
C145  C     C_R   0.201363 0.310662 0.074575 -0.059762
C146  C     C_R   0.265911 0.310729 0.043279 -0.108940
C147  C     C_R   0.261779 0.264134 0.002912 -0.107902
C148  C     C_R   0.193194 0.217218 0.993879 -0.110881
C149  C     C_1   0.870819 0.998612 0.305760 -0.028388
C150  C     C_R   0.128370 0.217393 0.024974 -0.090762
C151  C     C_R   0.872188 0.620870 0.865721 0.046685
C152  C     C_R   0.790583 0.644147 0.868400 -0.096322
C153  C     C_R   0.729333 0.585968 0.865794 -0.115873
C154  C     C_R   0.748978 0.504339 0.860113 -0.107191
C155  C     C_R   0.829895 0.480795 0.856741 -0.094520
C156  C     C_R   0.891214 0.538787 0.859302 -0.054521
C157  C     C_R   0.735063 0.131638 0.564800 0.049362
C158  C     C_R   0.689298 0.201210 0.574182 -0.059432
C159  C     C_R   0.689216 0.265783 0.542904 -0.108881
C160  C     C_3   0.999546 0.999550 0.250000 0.009023
C161  C     C_R   0.735906 0.261761 0.502571 -0.107822
C162  C     C_R   0.782933 0.193260 0.493553 -0.110830
C163  C     C_R   0.782780 0.128413 0.524632 -0.091030
C164  C     C_R   0.378588 0.871694 0.365855 0.046679
C165  C     C_R   0.354906 0.790217 0.368719 -0.096251
C166  C     C_R   0.412794 0.728685 0.366330 -0.115639
C167  C     C_R   0.494535 0.747916 0.360678 -0.107117
C168  C     C_R   0.518480 0.828698 0.357117 -0.094424
C169  C     C_R   0.460778 0.890298 0.359457 -0.054207
C170  C     C_R   0.871256 0.737927 0.060826 0.048537
Cu1   Cu    Cu3+1 0.919200 0.500000 0.000000 0.967979
Cu2   Cu    Cu3+1 0.080800 0.500000 0.000000 0.959193
Cu3   Cu    Cu3+1 0.500000 0.919200 0.500000 0.967979
Cu4   Cu    Cu3+1 0.500000 0.080800 0.500000 0.959199
H1    H     H_    0.109824 0.157204 0.131174 0.117498
H2    H     H_    0.888728 0.248537 0.187992 0.113417
H3    H     H_    0.843303 0.887906 0.370605 0.116284
H4    H     H_    0.247061 0.108709 0.687854 0.115163
H5    H     H_    0.887812 0.156820 0.870103 0.116267
H6    H     H_    0.108693 0.753199 0.187531 0.114836
H7    H     H_    0.157175 0.109797 0.368845 0.117496
H8    H     H_    0.751287 0.888982 0.687854 0.113100
H9    H     H_    0.205249 0.346393 0.105909 0.102299
H10   H     H_    0.319187 0.346684 0.050391 0.090866
H11   H     H_    0.311838 0.264104 0.978736 0.093606
H12   H     H_    0.889011 0.751251 0.812127 0.113098
H13   H     H_    0.190314 0.180589 0.962824 0.101348
H14   H     H_    0.076101 0.179996 0.017953 0.091312
H15   H     H_    0.774440 0.707089 0.873067 0.090453
H16   H     H_    0.666616 0.604166 0.868298 0.098590
H17   H     H_    0.701524 0.459362 0.858266 0.098055
H18   H     H_    0.845189 0.417622 0.852291 0.105585
H19   H     H_    0.953534 0.519771 0.857015 0.085950
H20   H     H_    0.653482 0.205010 0.605490 0.102567
H21   H     H_    0.653175 0.318994 0.550004 0.090862
H22   H     H_    0.735926 0.311841 0.478410 0.093660
H23   H     H_    0.843195 0.109514 0.630557 0.117547
H24   H     H_    0.819635 0.190468 0.462524 0.101471
H25   H     H_    0.820280 0.076224 0.517626 0.091393
H26   H     H_    0.291872 0.774396 0.373361 0.090389
H27   H     H_    0.394284 0.666072 0.368978 0.098512
H28   H     H_    0.539286 0.700246 0.358999 0.098171
H29   H     H_    0.581739 0.843674 0.352688 0.105351
H30   H     H_    0.480103 0.952509 0.357022 0.085843
H31   H     H_    0.775179 0.712418 0.109625 0.092035
H32   H     H_    0.667460 0.712832 0.050198 0.097586
H33   H     H_    0.701228 0.738993 0.967754 0.098748
H34   H     H_    0.248558 0.888742 0.311998 0.113413
H35   H     H_    0.843292 0.765743 0.944856 0.108300
H36   H     H_    0.951559 0.764085 0.003642 0.087959
H37   H     H_    0.211638 0.302766 0.907875 0.101887
H38   H     H_    0.321497 0.404091 0.904894 0.091596
H39   H     H_    0.301950 0.532379 0.861760 0.093475
H40   H     H_    0.172506 0.558637 0.820979 0.100311
H41   H     H_    0.062670 0.457359 0.823477 0.087697
H42   H     H_    0.287458 0.775118 0.609939 0.091941
H43   H     H_    0.286886 0.667436 0.550489 0.097496
H44   H     H_    0.260673 0.701270 0.468060 0.098691
H45   H     H_    0.887873 0.843282 0.129407 0.116277
H46   H     H_    0.234014 0.843367 0.445202 0.108161
H47   H     H_    0.235791 0.951586 0.504013 0.087892
H48   H     H_    0.697457 0.212096 0.407486 0.101805
H49   H     H_    0.596103 0.321872 0.404247 0.091720
H50   H     H_    0.467589 0.301751 0.361415 0.093371
H51   H     H_    0.441120 0.171795 0.321204 0.100340
H52   H     H_    0.542407 0.062032 0.323980 0.087422
H53   H     H_    0.205013 0.653539 0.894529 0.102611
H54   H     H_    0.318979 0.653239 0.950029 0.090857
H55   H     H_    0.311778 0.735956 0.021634 0.093646
H56   H     H_    0.108672 0.247114 0.812117 0.115173
H57   H     H_    0.190377 0.819628 0.037517 0.101453
H58   H     H_    0.076154 0.820269 0.982401 0.091388
H59   H     H_    0.774398 0.291765 0.126601 0.090383
H60   H     H_    0.666013 0.394115 0.130953 0.098507
H61   H     H_    0.700098 0.539138 0.140932 0.098175
H62   H     H_    0.843499 0.581673 0.147271 0.105340
H63   H     H_    0.952393 0.480099 0.142966 0.085786
H64   H     H_    0.712402 0.775193 0.390412 0.092042
H65   H     H_    0.712853 0.667505 0.449857 0.097585
H66   H     H_    0.739081 0.701314 0.532289 0.098745
H67   H     H_    0.156840 0.887786 0.629910 0.116261
H68   H     H_    0.765859 0.843388 0.555155 0.108300
H69   H     H_    0.764156 0.951625 0.496352 0.087957
H70   H     H_    0.302536 0.211736 0.592233 0.101778
H71   H     H_    0.403812 0.321641 0.595187 0.091609
H72   H     H_    0.532248 0.302069 0.638173 0.093477
H73   H     H_    0.558698 0.172553 0.678839 0.100255
H74   H     H_    0.457474 0.062671 0.676364 0.087626
H75   H     H_    0.775130 0.287475 0.890095 0.091950
H76   H     H_    0.667474 0.286874 0.949560 0.097496
H77   H     H_    0.701343 0.260604 0.031979 0.098688
H78   H     H_    0.753121 0.108645 0.312428 0.114847
H79   H     H_    0.843450 0.233918 0.054809 0.108159
H80   H     H_    0.951642 0.235732 0.995984 0.087894
H81   H     H_    0.212213 0.697730 0.092635 0.101699
H82   H     H_    0.322052 0.596444 0.095861 0.091743
H83   H     H_    0.301911 0.467777 0.138540 0.093389
H84   H     H_    0.171869 0.441091 0.178614 0.100286
H85   H     H_    0.062041 0.542303 0.175845 0.087343
H86   H     H_    0.346347 0.205246 0.394075 0.102334
H87   H     H_    0.346676 0.319181 0.449597 0.090857
H88   H     H_    0.264165 0.311816 0.521277 0.093591
H89   H     H_    0.109480 0.843233 0.869469 0.117546
H90   H     H_    0.180671 0.190284 0.537209 0.101315
H91   H     H_    0.180044 0.076075 0.482078 0.091303
H92   H     H_    0.707206 0.774436 0.626891 0.090446
H93   H     H_    0.604348 0.666547 0.631631 0.098588
H94   H     H_    0.459521 0.701360 0.641661 0.098059
H95   H     H_    0.417693 0.844995 0.647664 0.105574
H96   H     H_    0.519776 0.953404 0.642969 0.085899
O1    O     O_R   0.931980 0.584070 0.954320 -0.491224
O2    O     O_R   0.068020 0.584070 0.954320 -0.494465
O3    O     O_R   0.415930 0.068020 0.545680 -0.489728
O4    O     O_R   0.584070 0.931980 0.454320 -0.495032
O5    O     O_R   0.068020 0.584070 0.045680 -0.489722
O6    O     O_R   0.931980 0.415930 0.954320 -0.494581
O7    O     O_R   0.584070 0.931980 0.545680 -0.491204
O8    O     O_R   0.415930 0.068020 0.454320 -0.494024
O9    O     O_R   0.068020 0.415930 0.045680 -0.494055
O10   O     O_R   0.415930 0.931980 0.454320 -0.491136
O11   O     O_R   0.584070 0.068020 0.545680 -0.494482
O12   O     O_R   0.068020 0.415930 0.954320 -0.489775
O13   O     O_R   0.931980 0.584070 0.045680 -0.495058
O14   O     O_R   0.584070 0.068020 0.454320 -0.489772
O15   O     O_R   0.415930 0.931980 0.545680 -0.494608
O16   O     O_R   0.931980 0.415930 0.045680 -0.491116

loop_
_geom_bond_atom_site_label_1
_geom_bond_atom_site_label_2
_ccdc_geom_bond_type
C70   H87   S    
C154  H17   S    
C38   H61   S    
C75   C76   A    
C165  C166  A    
C59   H79   S    
C41   C42   A    
C43   H65   S    
C79   C98   A    
Cu1   O1    S    
C147  C148  A    
C12   H40   S    
Cu2   O2    S    
Cu1   O16   S    
C67   C124  S    
C7    H36   S    
C2    C141  S    
C161  C162  A    
C164  C169  A    
C102  C120  A    
C37   H60   S    
C6    H35   S    
C54   C60   A    
Cu3   Cu4   S    
C147  H11   S    
C148  H13   S    
C159  H21   S    
C22   H48   S    
C28   C29   A    
C26   C27   A    
C157  C158  A    
C107  H7    S    
C34   C40   A    
C36   C37   A    
C24   C83   S    
C148  C150  A    
C146  C147  A    
C95   C112  A    
C86   O7    A    
C150  H14   S    
C39   H62   S    
C92   H12   S    
C167  H28   S    
C74   C125  S    
C104  C122  A    
C26   H51   S    
C15   C16   A    
C46   C105  S    
C24   C92   A    
C95   H34   S    
C18   H44   S    
C25   H50   S    
C82   O2    A    
C18   C19   A    
C127  C141  T    
C78   H95   S    
C106  H6    S    
C16   H42   S    
C33   H58   S    
C68   C97   A    
C98   H67   S    
C21   C117  S    
Cu1   O6    S    
Cu3   O15   S    
C53   H74   S    
C61   C66   A    
C111  C129  A    
C42   H64   S    
C46   C95   A    
C97   H56   S    
C16   C17   A    
C57   C96   A    
C56   H76   S    
C106  C123  A    
C48   C49   A    
C144  C150  A    
C20   H47   S    
C55   H75   S    
C70   C71   A    
C67   C73   A    
C108  C125  A    
C109  C144  S    
C50   H71   S    
C9    C10   A    
C157  C163  A    
C80   H96   S    
C145  H9    S    
C8    C114  S    
C81   C102  A    
Cu3   O10   S    
Cu2   O12   S    
C62   C63   A    
C71   H88   S    
C35   C93   A    
C57   C106  A    
C54   C122  S    
C32   H57   S    
C163  H25   S    
C59   C60   A    
C85   O8    A    
C74   C80   A    
C21   C22   A    
C13   C91   A    
C79   C103  A    
C58   H77   S    
C15   C20   A    
C118  C128  A    
C107  C124  A    
C90   O15   A    
Cu1   O13   S    
C117  C134  A    
C44   H66   S    
C122  C132  A    
C145  C146  A    
C57   C116  S    
Cu3   O7    S    
C153  H16   S    
C45   C47   A    
C84   C126  S    
C62   H81   S    
C112  C164  S    
C72   H90   S    
C74   C75   A    
C124  C130  A    
C51   C52   A    
C101  C119  A    
C30   H54   S    
C143  C160  S    
C51   H72   S    
C38   C39   A    
C76   C77   A    
C72   C73   A    
C110  C151  S    
C138  C142  T    
C165  H26   S    
C39   C40   A    
C61   C123  S    
C90   C133  S    
C8    C9    A    
C81   C99   A    
C50   C51   A    
C25   C26   A    
C77   C78   A    
C2    C136  S    
C152  H15   S    
Cu3   O4    S    
C161  H22   S    
C82   O1    A    
C67   C69   A    
C166  H27   S    
C3    H31   S    
C87   C132  S    
C37   C38   A    
C93   H23   S    
C43   C44   A    
C40   H63   S    
C125  C129  A    
C85   C130  S    
C99   C117  A    
C63   H82   S    
C100  H89   S    
C30   C31   A    
C151  C152  A    
C46   C107  A    
C55   C56   A    
C60   H80   S    
C17   C18   A    
C41   C47   A    
C85   O10   A    
C91   H1    S    
Cu4   O14   S    
C3    C170  A    
C158  H20   S    
C151  C156  A    
C78   C80   A    
C68   C127  S    
C82   C128  S    
C154  C155  A    
C6    C7    A    
C49   H70   S    
C73   H91   S    
C11   H39   S    
C69   H86   S    
C10   H38   S    
C168  C169  A    
Cu4   O8    S    
C12   C14   A    
C139  C160  S    
C66   H85   S    
C10   C11   A    
C158  C159  A    
C2    C142  S    
C49   C50   A    
C15   C115  S    
C96   C113  A    
C7    C170  A    
C100  C118  A    
C42   C43   A    
C29   H53   S    
C13   C101  A    
C3    C4    A    
C103  C121  A    
C88   O13   A    
C167  C168  A    
Cu2   O5    S    
C17   H43   S    
C52   C53   A    
C22   C23   A    
C162  C163  A    
C35   C108  A    
C35   C94   S    
C34   C119  S    
C94   C137  T    
Cu4   O11   S    
C84   O16   A    
C54   C55   A    
C164  C165  A    
C89   O14   A    
C8    C14   A    
C135  C160  S    
C113  C131  A    
C123  C131  A    
C48   C121  S    
C2    C137  S    
C114  C132  A    
C88   O5    A    
C31   C32   A    
C44   C45   A    
C68   C104  A    
C81   C149  S    
C23   H49   S    
C99   H78   S    
C116  C140  T    
C120  C134  A    
C24   C100  A    
C28   C33   A    
C52   H73   S    
C77   H94   S    
C86   C129  S    
C4    H32   S    
C113  C170  S    
C146  H10   S    
C48   C53   A    
C96   H45   S    
C115  C133  A    
C162  H24   S    
C88   C131  S    
C168  H29   S    
C108  H8    S    
Cu4   O3    S    
C144  C145  A    
C103  H4    S    
C121  C133  A    
C32   C33   A    
C91   C109  A    
C19   C20   A    
C89   O4    A    
C159  C161  A    
C58   C59   A    
C87   O12   A    
C71   C72   A    
C93   C111  A    
C28   C118  S    
C140  C160  S    
C169  H30   S    
C47   H69   S    
C92   C110  A    
C98   C115  A    
C5    C6    A    
C166  C167  A    
C111  C157  S    
C9    H37   S    
C5    H33   S    
C4    C5    A    
C31   H55   S    
C64   C65   A    
C86   O11   A    
C56   C58   A    
C14   H41   S    
C65   H84   S    
C90   O3    A    
C34   C36   A    
C23   C25   A    
C41   C120  S    
C21   C27   A    
C61   C62   A    
C69   C70   A    
Cu1   Cu2   S    
C89   C134  S    
Cu2   O9    S    
C155  H18   S    
C29   C30   A    
C63   C64   A    
C104  H5    S    
C119  C126  A    
C156  H19   S    
C109  C126  A    
C143  C149  T    
C79   C138  S    
C1    C13   S    
C152  C153  A    
C36   H59   S    
C65   C66   A    
C87   O6    A    
C76   H93   S    
C84   O9    A    
C155  C156  A    
C102  H3    S    
C64   H83   S    
C101  H2    S    
C19   H46   S    
C105  C139  T    
C112  C130  A    
C97   C114  A    
C1    C135  T    
C45   H68   S    
C27   H52   S    
C11   C12   A    
C110  C128  A    
C153  C154  A    
C75   H92   S    
C83   C136  T    
