data_mof_unit_16826.cif
_audit_creation_date              2012-12-11T14:08:12-0500
_audit_creation_method            fapswitch 2.2
_symmetry_space_group_name_H-M    P1
_symmetry_Int_Tables_number       1
_space_group_crystal_system       triclinic
_cell_length_a                    10.966583
_cell_length_b                    11.007167
_cell_length_c                    18.741864
_cell_angle_alpha                 90.235084
_cell_angle_beta                  90.327661
_cell_angle_gamma                 60.320976
_cell_volume                      1965.52391992

loop_
_atom_site_label
_atom_site_type_symbol
_atom_type_description
_atom_site_fract_x
_atom_site_fract_y
_atom_site_fract_z
_atom_type_partial_charge
C1    C     C_R   0.242863 0.643096 0.609773 0.550860
C2    C     C_3   0.733828 0.516305 0.802812 -0.278648
C3    C     C_3   0.685391 0.672927 0.815231 0.011154
C4    C     C_3   0.646145 0.628515 0.682551 0.080825
C5    C     C_3   0.726778 0.713802 0.686281 -0.109029
C6    C     C_3   0.725047 0.490457 0.723906 -0.303432
C7    C     C_2   0.662393 0.175100 0.675517 -0.144041
C8    C     C_2   0.679095 0.179187 0.832481 -0.119840
C9    C     C_2   0.786556 0.146286 0.788798 -0.174976
C10   C     C_2   0.760736 0.184919 0.713664 -0.194431
C11   C     C_2   0.176421 0.668371 0.679175 0.007181
C12   C     C_R   0.628856 0.590794 0.609332 0.567041
C13   C     C_2   0.199709 0.658254 0.842388 -0.120909
C14   C     C_2   0.182248 0.570952 0.798978 -0.186367
C15   C     C_2   0.220652 0.557851 0.723691 -0.188079
C16   C     C_2   0.655654 0.657365 0.322831 -0.117957
C17   C     C_2   0.634890 0.660781 0.158224 -0.088162
C18   C     C_2   0.711214 0.558686 0.205586 -0.002298
C19   C     C_2   0.647466 0.572034 0.274565 -0.106379
C20   C     C_2   0.634517 0.193220 0.319845 -0.092575
C21   C     C_2   0.636530 0.201363 0.163538 0.402974
C22   C     C_2   0.527136 0.220577 0.202368 -0.079644
C23   C     C_R   0.624683 0.233391 0.603670 0.537507
C24   C     C_2   0.519999 0.252271 0.277434 -0.101190
C25   C     C_2   0.119803 0.681044 0.346145 -0.123568
C26   C     C_2   0.115834 0.690547 0.190227 0.360095
C27   C     C_2   0.036909 0.798406 0.234698 0.331112
C28   C     C_2   0.075849 0.796754 0.308538 -0.102773
C29   C     C_R   0.700991 0.105106 0.899120 0.539664
C30   C     C_R   0.719935 0.687683 0.889557 0.545242
C31   C     C_R   0.119622 0.705881 0.908222 0.545520
C32   C     C_R   0.673367 0.113507 0.101309 0.603897
C33   C     C_R   0.694462 0.688573 0.095363 0.548648
C34   C     C_R   0.215702 0.651167 0.404685 0.549462
C35   C     C_R   0.086979 0.713244 0.115098 0.618893
C36   C     C_R   0.644375 0.625950 0.395815 0.533273
C37   C     C_R   0.614275 0.233068 0.393877 0.533672
C38   C     C_3   0.523797 0.763504 0.796010 -0.076494
C39   C     C_3   0.500602 0.714545 0.721415 0.228477
C40   C     C_3   0.770715 0.714839 0.764921 -0.242261
Cr1   Cr    Cr6+3 0.393010 0.398050 0.501480 1.000681
Cr2   Cr    Cr6+3 0.398820 0.707980 0.501630 1.038148
Cr3   Cr    Cr6+3 0.708140 0.393940 0.496850 0.979811
Cr4   Cr    Cr6+3 0.937950 0.938450 0.008940 1.061378
Cr5   Cr    Cr6+3 0.626180 0.937030 0.994750 1.004717
Cr6   Cr    Cr6+3 0.937790 0.625760 0.001410 1.016820
H1    H     H_    0.832559 0.423855 0.702317 0.139228
H2    H     H_    0.884503 0.639646 0.772573 0.133930
H3    H     H_    0.894569 0.085381 0.807081 0.150463
H4    H     H_    0.825097 0.221082 0.688855 0.150476
H5    H     H_    0.571745 0.241706 0.813291 0.106694
H6    H     H_    0.600454 0.133947 0.699747 0.105196
H7    H     H_    0.132116 0.512937 0.817306 0.151471
H8    H     H_    0.288108 0.452114 0.704257 0.144414
H9    H     H_    0.254340 0.711711 0.823995 0.094454
H10   H     H_    0.465641 0.738017 0.836314 0.091254
H11   H     H_    0.619786 0.493473 0.289914 0.182700
H12   H     H_    0.527437 0.738710 0.171421 0.109660
H13   H     H_    0.691540 0.730477 0.309476 0.090613
H14   H     H_    0.448422 0.197037 0.181566 0.106954
H15   H     H_    0.415494 0.318181 0.298995 0.185997
H16   H     H_    0.739698 0.126341 0.299617 0.191131
H17   H     H_    0.453457 0.646355 0.729486 0.104676
H18   H     H_    0.084690 0.884998 0.328394 0.149187
H19   H     H_    0.102667 0.597224 0.326844 0.139159
H20   H     H_    0.754639 0.820284 0.778586 0.102936
H21   H     H_    0.651096 0.823840 0.671628 0.163181
H22   H     H_    0.844307 0.446382 0.820124 0.156213
H23   H     H_    0.666572 0.486295 0.833948 0.120299
H24   H     H_    0.662457 0.437412 0.718528 0.111582
O1    O     O_R   0.507110 0.256280 0.580300 -0.514493
O2    O     O_R   0.524640 0.695370 0.425100 -0.486140
O3    O     O_R   0.735890 0.504390 0.415980 -0.526895
O4    O     O_R   0.690560 0.277820 0.422350 -0.496583
O5    O     O_3   0.499990 0.499990 0.499980 -0.267871
O6    O     O_R   0.089190 0.825870 0.932320 -0.531403
O7    O     O_R   0.819070 0.053960 0.931440 -0.504279
O8    O     O_R   0.607070 0.076440 0.916460 -0.541715
O9    O     O_R   0.647110 0.806550 0.917690 -0.518548
O10   O     O_R   0.837080 0.593860 0.915300 -0.526821
O11   O     O_R   0.064770 0.636080 0.932550 -0.500613
O12   O     O_R   0.280830 0.527190 0.577940 -0.532011
O13   O     O_R   0.068250 0.829200 0.092940 -0.486160
O14   O     O_R   0.799650 0.057040 0.080330 -0.416257
O15   O     O_R   0.586130 0.079760 0.077080 -0.565741
O16   O     O_R   0.627700 0.809630 0.066580 -0.493817
O17   O     O_R   0.816140 0.597180 0.075920 -0.529937
O18   O     O_R   0.045360 0.639170 0.081440 -0.509028
O19   O     O_3   0.833980 0.833750 0.001700 -0.259238
O20   O     O_R   0.261360 0.738990 0.584270 -0.480620
O21   O     O_R   0.532590 0.694780 0.574370 -0.447822
O22   O     O_R   0.744470 0.503750 0.577000 -0.552174
O23   O     O_R   0.698520 0.277230 0.571620 -0.518153
O24   O     O_R   0.498530 0.256920 0.419280 -0.514249
O25   O     O_R   0.272880 0.527780 0.428680 -0.502659
O26   O     O_R   0.252780 0.739630 0.423250 -0.517737
C41   C     C_3   0.463110 0.926453 0.796415 -0.200565
C42   C     C_3   0.308566 0.005834 0.819389 -0.282056
C43   C     C_3   0.247994 0.163945 0.814568 -0.460313
H25   H     H_    0.307604 0.197673 0.849791 0.164189
H26   H     H_    0.252596 0.195007 0.758750 0.153616
H27   H     H_    0.136581 0.218076 0.831750 0.137130
H28   H     H_    0.245303 0.975965 0.784772 0.194500
H29   H     H_    0.299760 0.977953 0.875329 0.156441
H30   H     H_    0.521951 0.959880 0.831139 0.183716
H31   H     H_    0.472655 0.964962 0.743303 0.183409
C44   C     C_3   0.854348 0.666434 0.635569 -0.261814
C45   C     C_3   0.813206 0.738977 0.561986 -0.285312
C46   C     C_3   0.927942 0.662415 0.506734 -0.422787
H32   H     H_    0.026090 0.659349 0.523798 0.162408
H33   H     H_    0.948039 0.553905 0.499202 0.177221
H34   H     H_    0.894297 0.717960 0.454842 0.127577
H35   H     H_    0.715809 0.745991 0.540898 0.214726
H36   H     H_    0.792242 0.848197 0.567343 0.133184
H37   H     H_    0.927767 0.696129 0.659442 0.139644
H38   H     H_    0.914989 0.550850 0.630978 0.180953
C47   C     C_3   0.077994 0.819010 0.701384 -0.231464
C48   C     C_3   0.000496 0.916258 0.637349 -0.262096
C49   C     C_3   0.045402 0.026600 0.624579 -0.382460
H39   H     H_    0.970039 0.108161 0.587752 0.139748
H40   H     H_    0.050985 0.075651 0.675426 0.131708
H41   H     H_    0.150027 0.981645 0.599711 0.222086
H42   H     H_    0.010156 0.860127 0.586710 0.159964
H43   H     H_    0.887938 0.964180 0.646618 0.144738
H44   H     H_    0.997782 0.822648 0.738715 0.119270
H45   H     H_    0.139266 0.858014 0.731125 0.168765
C50   C     C_3   0.864653 0.445514 0.195431 -0.189614
C51   C     C_3   0.931344 0.346530 0.259497 -0.281635
C52   C     C_3   0.080127 0.230868 0.242484 -0.435996
H46   H     H_    0.078702 0.166331 0.197099 0.192173
H47   H     H_    0.147461 0.276544 0.228784 0.159672
H48   H     H_    0.125847 0.162190 0.289768 0.148984
H49   H     H_    0.936268 0.406787 0.306089 0.166484
H50   H     H_    0.867774 0.297476 0.274423 0.238077
H51   H     H_    0.871241 0.381879 0.147857 0.210392
H52   H     H_    0.928811 0.496743 0.186511 0.167996
F1    F     F_    0.727540 0.242789 0.187442 -0.660637
F2    F     F_    0.928868 0.920528 0.209753 -0.642169
F3    F     F_    0.226710 0.568012 0.212862 -0.706300
F4    F     F_    0.403610 0.826493 0.680898 -0.658455

loop_
_geom_bond_atom_site_label_1
_geom_bond_atom_site_label_2
_ccdc_geom_bond_type
Cr3   O3    S    
C7    C10   D    
C37   O4    A    
C24   H15   S    
C12   O21   A    
C1    C11   S    
C21   F1    S    
C5    H21   S    
Cr4   O13   S    
C51   C52   S    
C41   C42   S    
Cr6   O17   S    
Cr6   O19   S    
C19   H11   S    
C25   C28   D    
Cr2   O5    S    
C1    O20   A    
Cr2   O26   S    
C8    C29   S    
Cr4   O7    S    
C50   H51   S    
C7    H6    S    
C18   C19   S    
C2    H22   S    
C46   H33   S    
C22   H14   S    
C38   C39   S    
C42   H29   S    
Cr1   O12   S    
C42   H28   S    
C45   C46   S    
C6    H24   S    
Cr2   O21   S    
C45   H36   S    
Cr4   O6    S    
C48   C49   S    
C11   C15   D    
C29   O8    A    
C20   C24   D    
C3    C38   S    
C8    C9    D    
C44   C45   S    
Cr5   O8    S    
C4    C12   S    
C2    H23   S    
Cr5   O19   S    
C9    C10   S    
C25   C34   S    
Cr1   O1    S    
C52   H48   S    
C30   O10   A    
Cr3   O4    S    
C40   H20   S    
C13   C14   D    
C2    C6    S    
C17   C33   S    
C38   C41   S    
C12   O22   A    
Cr6   O18   S    
C49   H40   S    
Cr3   O5    S    
C32   O14   A    
C21   C32   S    
C27   F2    S    
C6    H1    S    
C15   H8    S    
C23   O1    A    
C25   H19   S    
C34   O25   A    
C4    C6    S    
C26   F3    S    
C46   H34   S    
C35   O13   A    
C1    O12   A    
C23   O23   A    
Cr2   O20   S    
C16   H13   S    
C45   H35   S    
C3    C30   S    
Cr5   O15   S    
C33   O16   A    
C51   H50   S    
C18   C50   S    
Cr1   O5    S    
Cr6   O11   S    
C35   O18   A    
C43   H25   S    
C4    C39   S    
C43   H27   S    
Cr2   O2    S    
C17   C18   D    
C26   C27   D    
C9    H3    S    
Cr5   O9    S    
C48   H43   S    
C50   H52   S    
C8    H5    S    
C44   H37   S    
C30   O9    A    
C28   H18   S    
C43   H26   S    
C3    C40   S    
C22   C24   S    
C41   H31   S    
C50   C51   S    
C11   C47   S    
C52   H46   S    
C5    C44   S    
C49   H41   S    
C40   H2    S    
C39   F4    S    
C13   C31   S    
C34   O26   A    
C4    C5    S    
Cr4   O14   S    
C49   H39   S    
Cr1   O24   S    
C38   H10   S    
C39   H17   S    
C17   H12   S    
C47   C48   S    
Cr3   O22   S    
C31   O11   A    
C2    C3    S    
C33   O17   A    
C41   H30   S    
C51   H49   S    
C16   C36   S    
Cr6   O10   S    
C20   C37   S    
C31   O6    A    
Cr1   O25   S    
C16   C19   D    
C7    C23   S    
C32   O15   A    
Cr3   O23   S    
C37   O24   A    
Cr5   O16   S    
C48   H42   S    
C20   H16   S    
C44   H38   S    
C36   O3    A    
C26   C35   S    
C14   H7    S    
C29   O7    A    
C42   C43   S    
C5    C40   S    
C46   H32   S    
C27   C28   S    
C14   C15   S    
C47   H45   S    
C13   H9    S    
C21   C22   D    
C47   H44   S    
Cr4   O19   S    
C36   O2    A    
C52   H47   S    
C10   H4    S    
