data_mof_unit_62588.cif
_audit_creation_date              2012-12-10T17:37:15-0500
_audit_creation_method            fapswitch 2.2
_symmetry_space_group_name_H-M    P1
_symmetry_Int_Tables_number       1
_space_group_crystal_system       triclinic
_cell_length_a                    45.251117
_cell_length_b                    31.986169
_cell_length_c                    31.981584
_cell_angle_alpha                 90.00011
_cell_angle_beta                  135.018669
_cell_angle_gamma                 89.999956
_cell_volume                      32721.6314588

loop_
_atom_site_label
_atom_site_type_symbol
_atom_type_description
_atom_site_fract_x
_atom_site_fract_y
_atom_site_fract_z
_atom_type_partial_charge
C1    C     C_R   0.580300 0.000000 0.580306 0.818338
C2    C     C_R   0.080300 0.500000 0.580306 0.818338
C3    C     C_3   0.467353 0.263710 0.489849 0.158425
C4    C     C_3   0.467349 0.736290 0.489839 0.158454
C5    C     C_3   0.967352 0.763710 0.489847 0.158421
C6    C     C_3   0.967354 0.236290 0.489849 0.158458
C7    C     C_3   0.499548 0.291261 0.499403 0.066914
C8    C     C_3   0.499549 0.708739 0.499402 0.066918
C9    C     C_3   0.999548 0.791261 0.499403 0.066929
C10   C     C_3   0.999549 0.208738 0.499402 0.066903
C11   C     C_3   0.463836 0.235748 0.446948 -0.139726
C12   C     C_3   0.463839 0.764251 0.446944 -0.139851
C13   C     C_3   0.963836 0.735748 0.446947 -0.139739
C14   C     C_3   0.963837 0.264252 0.446947 -0.139836
C15   C     C_3   0.496265 0.263846 0.456617 -0.250113
C16   C     C_3   0.496271 0.736153 0.456622 -0.250095
C17   C     C_3   0.996266 0.763847 0.456618 -0.250081
C18   C     C_3   0.996265 0.236153 0.456615 -0.250128
C19   C     C_1   0.499956 0.162863 0.499970 -0.015042
C20   C     C_1   0.499956 0.837137 0.499969 -0.014919
C21   C     C_1   0.999955 0.662863 0.499970 -0.014890
C22   C     C_1   0.999956 0.337137 0.499970 -0.015070
C23   C     C_1   0.499838 0.337130 0.499743 0.034951
C24   C     C_1   0.499839 0.662870 0.499742 0.035014
C25   C     C_1   0.999838 0.837130 0.499744 0.034986
C26   C     C_1   0.999839 0.162870 0.499742 0.034979
C27   C     C_3   0.764038 0.965181 0.783160 -0.174658
C28   C     C_3   0.764039 0.033861 0.784816 -0.174631
C29   C     C_3   0.264038 0.466136 0.784811 -0.174590
C30   C     C_3   0.264037 0.534816 0.783164 -0.174698
C31   C     C_3   0.736039 0.966170 0.715556 -0.187661
C32   C     C_3   0.736040 0.034781 0.717212 -0.187690
C33   C     C_3   0.236040 0.465222 0.717206 -0.187639
C34   C     C_3   0.236039 0.533833 0.715561 -0.187713
C35   C     C_1   0.625202 0.000001 0.625207 -0.151148
C36   C     C_1   0.125202 0.499999 0.625207 -0.151146
C37   C     C_1   0.874781 1.000000 0.874851 -0.165091
C38   C     C_1   0.374781 0.500000 0.874851 -0.165092
C39   C     C_R   0.499999 0.080288 0.500002 0.823114
C40   C     C_R   0.499999 0.919712 0.500002 0.823233
C41   C     C_R   0.999998 0.580288 0.500002 0.823283
C42   C     C_R   0.999999 0.419712 0.500002 0.823063
C43   C     C_3   0.736227 0.999050 0.775705 0.198594
C44   C     C_3   0.236227 0.500944 0.775704 0.198592
C45   C     C_3   0.708792 0.999998 0.708922 0.139298
C46   C     C_3   0.208792 0.500002 0.708921 0.139300
C47   C     C_3   0.791201 0.999998 0.791339 0.147338
C48   C     C_3   0.291201 0.500001 0.791339 0.147338
C49   C     C_3   0.763932 0.000953 0.724461 -0.143710
C50   C     C_3   0.263932 0.499053 0.724462 -0.143712
C51   C     C_1   0.662911 0.000001 0.662936 -0.024071
C52   C     C_1   0.162911 0.499999 0.662936 -0.024071
C53   C     C_1   0.837069 0.999999 0.837163 -0.043814
C54   C     C_1   0.337069 0.500000 0.837164 -0.043814
C55   C     C_3   0.235830 0.034425 0.256275 -0.251424
C56   C     C_3   0.235829 0.965360 0.255902 -0.251391
C57   C     C_3   0.735830 0.534311 0.256465 -0.251427
C58   C     C_3   0.735829 0.465249 0.255710 -0.251386
C59   C     C_3   0.263560 0.033874 0.244430 0.470352
C60   C     C_3   0.263559 0.966336 0.244065 0.470316
C61   C     C_3   0.763560 0.533979 0.244618 0.470339
C62   C     C_3   0.763559 0.466444 0.243879 0.470328
C63   C     C_1   0.374853 0.000000 0.374870 -0.143042
C64   C     C_1   0.874853 0.500000 0.374870 -0.143042
C65   C     C_1   0.125121 0.000000 0.125214 -0.158232
C66   C     C_1   0.625121 0.500000 0.125213 -0.158233
C67   C     C_R   0.419712 0.000000 0.419716 0.822294
C68   C     C_R   0.919712 0.500000 0.419716 0.822293
C69   C     C_3   0.263868 0.999786 0.303839 -0.255993
C70   C     C_3   0.763868 0.499565 0.303837 -0.255996
C71   C     C_3   0.291322 1.000000 0.291560 0.025568
C72   C     C_3   0.791322 0.499998 0.291560 0.025571
C73   C     C_3   0.208619 0.000001 0.208614 0.007514
C74   C     C_3   0.708619 0.500002 0.208614 0.007513
C75   C     C_3   0.236095 0.000216 0.196210 0.049708
C76   C     C_3   0.736096 0.500436 0.196212 0.049709
C77   C     C_1   0.337171 0.000000 0.337260 0.069094
C78   C     C_1   0.837171 0.499999 0.337260 0.069094
C79   C     C_1   0.162800 0.000001 0.162887 0.018194
C80   C     C_1   0.662800 0.500000 0.162887 0.018192
C81   C     C_R   0.499975 0.500000 0.580319 0.826858
C82   C     C_R   0.999975 0.000000 0.580319 0.826858
C83   C     C_R   0.499988 0.419699 0.500025 0.818254
C84   C     C_R   0.499988 0.580301 0.500025 0.818309
C85   C     C_R   0.999988 0.919699 0.500025 0.818262
C86   C     C_R   0.999988 0.080301 0.500025 0.818302
C87   C     C_R   0.500014 0.500000 0.419757 0.819976
C88   C     C_R   0.000014 1.000000 0.419757 0.819977
C89   C     C_R   0.000042 0.000000 0.080414 0.823470
C90   C     C_R   0.500042 0.500000 0.080414 0.823469
C91   C     C_3   0.534841 0.263581 0.551267 0.534694
C92   C     C_3   0.534838 0.736419 0.551269 0.534562
C93   C     C_3   0.034840 0.763581 0.551268 0.534552
C94   C     C_3   0.034842 0.236419 0.551266 0.534701
C95   C     C_R   0.919687 1.000000 0.919738 0.822202
C96   C     C_R   0.419687 0.500000 0.919738 0.822201
C97   C     C_R   0.999959 0.000000 0.919729 0.823100
C98   C     C_R   0.499959 0.500000 0.919729 0.823097
C99   C     C_R   0.080267 0.000000 0.080343 0.826276
C100  C     C_R   0.580267 0.500000 0.080343 0.826276
C101  C     C_3   0.020455 0.032888 0.784065 0.508841
C102  C     C_3   0.017759 0.965572 0.781362 0.508792
C103  C     C_3   0.520245 0.533020 0.783854 0.508814
C104  C     C_3   0.517979 0.465687 0.781582 0.508817
C105  C     C_3   0.480832 0.535173 0.716673 -0.202931
C106  C     C_3   0.478511 0.466192 0.714346 -0.203018
C107  C     C_3   0.981057 0.035294 0.716899 -0.202944
C108  C     C_3   0.978295 0.966329 0.714130 -0.203006
C109  C     C_1   0.499975 0.500001 0.625188 -0.163839
C110  C     C_1   0.999975 0.000001 0.625188 -0.163839
C111  C     C_1   0.999847 0.000001 0.874748 -0.141705
C112  C     C_1   0.499847 0.500001 0.874748 -0.141705
C113  C     C_3   0.540009 0.498652 0.776132 -0.327058
C114  C     C_3   0.039999 0.998396 0.776122 -0.327056
C115  C     C_3   0.499967 0.500001 0.708691 0.048742
C116  C     C_3   0.999967 0.000001 0.708691 0.048741
C117  C     C_3   0.999472 0.000015 0.790822 0.048600
C118  C     C_3   0.499472 0.500013 0.790822 0.048598
C119  C     C_3   0.532421 0.236002 0.509417 -0.227398
C120  C     C_3   0.532425 0.763999 0.509425 -0.227348
C121  C     C_3   0.032422 0.736001 0.509419 -0.227351
C122  C     C_3   0.032422 0.263998 0.509415 -0.227393
C123  C     C_3   0.959886 0.001602 0.723670 -0.277510
C124  C     C_3   0.459877 0.501347 0.723661 -0.277508
C125  C     C_1   0.499971 0.500002 0.662874 -0.008165
C126  C     C_1   0.999971 0.000002 0.662874 -0.008166
C127  C     C_1   0.999700 0.000005 0.836912 0.054528
C128  C     C_1   0.499701 0.500004 0.836912 0.054527
C129  C     C_3   0.019551 0.965537 0.255675 -0.155848
C130  C     C_3   0.020132 0.034128 0.256257 -0.155890
C131  C     C_3   0.519753 0.465652 0.255877 -0.155885
C132  C     C_3   0.519933 0.534245 0.256057 -0.155849
C133  C     C_3   0.480148 0.465756 0.244138 -0.153216
C134  C     C_3   0.480328 0.534348 0.244319 -0.153123
C135  C     C_3   0.979947 0.965872 0.243937 -0.153098
C136  C     C_3   0.980528 0.034463 0.244519 -0.153247
C137  C     C_1   0.500022 0.500000 0.374845 -0.164580
C138  C     C_1   0.000021 0.000000 0.374845 -0.164581
C139  C     C_1   0.000050 0.000000 0.125341 -0.165621
C140  C     C_1   0.500050 0.500000 0.125342 -0.165621
C141  C     C_3   0.539639 0.499896 0.303687 -0.155710
C142  C     C_3   0.039637 0.999665 0.303685 -0.155712
C143  C     C_3   0.500034 0.500000 0.291252 0.181732
C144  C     C_3   0.000034 0.000000 0.291251 0.181737
C145  C     C_3   0.000046 0.000000 0.208943 0.181581
C146  C     C_3   0.500046 0.500000 0.208944 0.181576
C147  C     C_1   0.499981 0.125167 0.499984 -0.164649
C148  C     C_1   0.499981 0.874832 0.499984 -0.164504
C149  C     C_1   0.999981 0.625167 0.499984 -0.164460
C150  C     C_1   0.999981 0.374832 0.499984 -0.164694
C151  C     C_3   0.960442 0.000335 0.196508 -0.150036
C152  C     C_3   0.460442 0.500104 0.196509 -0.150033
C153  C     C_1   0.500028 0.500000 0.337130 -0.064171
C154  C     C_1   0.000027 0.000000 0.337129 -0.064171
C155  C     C_1   0.000050 0.000000 0.163063 -0.063816
C156  C     C_1   0.500051 0.500000 0.163064 -0.063817
C157  C     C_1   0.499961 0.374823 0.499931 -0.140001
C158  C     C_1   0.499961 0.625177 0.499931 -0.139937
C159  C     C_1   0.999961 0.874823 0.499932 -0.139981
C160  C     C_1   0.999962 0.125177 0.499931 -0.139958
C161  C     C_3   0.503057 0.235944 0.542883 -0.263542
C162  C     C_3   0.503050 0.764056 0.542876 -0.263438
C163  C     C_3   0.003055 0.735944 0.542882 -0.263499
C164  C     C_3   0.003058 0.264056 0.542883 -0.263480
C165  C     C_3   0.499925 0.208698 0.499970 0.079351
C166  C     C_3   0.499925 0.791301 0.499969 0.079290
C167  C     C_3   0.999925 0.708698 0.499970 0.079310
C168  C     C_3   0.999926 0.291301 0.499969 0.079330
Cu1   Cu    Cu3+1 0.500020 0.000000 0.541470 0.990241
Cu2   Cu    Cu3+1 0.000020 0.500000 0.541470 0.990243
Cu3   Cu    Cu3+1 0.499960 0.000000 0.458530 0.986180
Cu4   Cu    Cu3+1 0.999960 0.500000 0.458530 0.986180
Cu5   Cu    Cu3+1 0.541430 0.500000 0.541530 0.984546
Cu6   Cu    Cu3+1 0.041430 0.000000 0.541530 0.984547
Cu7   Cu    Cu3+1 0.458550 0.500000 0.458570 0.996726
Cu8   Cu    Cu3+1 0.958550 0.000000 0.458570 0.996724
Cu9   Cu    Cu3+1 0.999990 0.958550 0.000050 0.980970
Cu10  Cu    Cu3+1 0.999990 0.041450 0.000050 0.980426
Cu11  Cu    Cu3+1 0.499990 0.458550 0.000050 0.980723
Cu12  Cu    Cu3+1 0.499990 0.541450 0.000050 0.980676
H1    H     H_    0.559267 0.224225 0.517712 0.144969
H2    H     H_    0.559274 0.775775 0.517729 0.145043
H3    H     H_    0.059268 0.724225 0.517717 0.145043
H4    H     H_    0.059267 0.275775 0.517711 0.144969
H5    H     H_    0.223703 0.062347 0.260791 0.154474
H6    H     H_    0.223702 0.937260 0.260117 0.154529
H7    H     H_    0.723704 0.562141 0.261136 0.154467
H8    H     H_    0.723701 0.437060 0.259768 0.154534
H9    H     H_    0.275870 0.999611 0.348416 0.174816
H10   H     H_    0.775870 0.499209 0.348412 0.174817
H11   H     H_    0.465651 0.563984 0.689491 0.152670
H12   H     H_    0.461427 0.438468 0.685256 0.152577
H13   H     H_    0.966059 0.064202 0.689900 0.152658
H14   H     H_    0.961034 0.938715 0.684862 0.152585
H15   H     H_    0.927307 0.002906 0.702946 0.171964
H16   H     H_    0.427290 0.502442 0.702928 0.171965
H17   H     H_    0.572686 0.497553 0.797211 0.149816
H18   H     H_    0.072668 0.997088 0.797193 0.149817
H19   H     H_    0.463781 0.437580 0.239703 0.138095
H20   H     H_    0.464109 0.562610 0.240032 0.138128
H21   H     H_    0.963416 0.937792 0.239337 0.138183
H22   H     H_    0.964475 0.062819 0.240397 0.138043
H23   H     H_    0.035605 0.937182 0.259798 0.137480
H24   H     H_    0.036664 0.062207 0.260858 0.137407
H25   H     H_    0.535972 0.437391 0.260164 0.137439
H26   H     H_    0.536300 0.562420 0.260493 0.137446
H27   H     H_    0.927862 0.000611 0.151949 0.140901
H28   H     H_    0.427860 0.500189 0.151948 0.140902
H29   H     H_    0.572220 0.499811 0.348247 0.137932
H30   H     H_    0.072218 0.999389 0.348244 0.137932
H31   H     H_    0.493221 0.275741 0.421109 0.164838
H32   H     H_    0.493234 0.724259 0.421119 0.164862
H33   H     H_    0.993224 0.775741 0.421112 0.164877
H34   H     H_    0.993222 0.224259 0.421108 0.164825
H35   H     H_    0.434309 0.223687 0.403721 0.162170
H36   H     H_    0.434314 0.776313 0.403714 0.162162
H37   H     H_    0.934310 0.723687 0.403720 0.162213
H38   H     H_    0.934310 0.276313 0.403721 0.162118
H39   H     H_    0.505861 0.224224 0.578236 0.158607
H40   H     H_    0.505848 0.775776 0.578224 0.158740
H41   H     H_    0.005857 0.724224 0.578234 0.158677
H42   H     H_    0.005862 0.275776 0.578236 0.158669
H43   H     H_    0.724108 0.938357 0.686630 0.146281
H44   H     H_    0.724110 0.063380 0.689646 0.146080
H45   H     H_    0.224110 0.436625 0.689636 0.146098
H46   H     H_    0.224108 0.561648 0.686639 0.146262
H47   H     H_    0.775927 0.936615 0.810778 0.153460
H48   H     H_    0.775930 0.061636 0.813794 0.153346
H49   H     H_    0.275929 0.438358 0.813785 0.153361
H50   H     H_    0.275927 0.563380 0.810787 0.153443
H51   H     H_    0.775837 0.001738 0.703782 0.140572
H52   H     H_    0.275837 0.498272 0.703783 0.140574
O1    O     O_R   0.560480 0.000000 0.595480 -0.568650
O2    O     O_R   0.060480 0.500000 0.595480 -0.568649
O3    O     O_R   0.465000 0.439530 0.465010 -0.573091
O4    O     O_R   0.465000 0.560470 0.465010 -0.573050
O5    O     O_R   0.965000 0.939530 0.465010 -0.573087
O6    O     O_R   0.965000 0.060470 0.465010 -0.573054
O7    O     O_R   0.535000 0.500000 0.474630 -0.580677
O8    O     O_R   0.035000 0.000000 0.474630 -0.580677
O9    O     O_R   0.465020 0.500000 0.404580 -0.578731
O10   O     O_R   0.965020 0.000000 0.404580 -0.578732
O11   O     O_R   0.000030 0.965010 0.060550 -0.580344
O12   O     O_R   0.000030 0.034990 0.060550 -0.580429
O13   O     O_R   0.500030 0.465010 0.060550 -0.580417
O14   O     O_R   0.500030 0.534990 0.060550 -0.580355
O15   O     O_R   0.939530 0.965000 0.939580 -0.579343
O16   O     O_R   0.939530 0.035000 0.939580 -0.579588
O17   O     O_R   0.439530 0.465000 0.939580 -0.579470
O18   O     O_R   0.439530 0.535000 0.939580 -0.579461
O19   O     O_R   0.999960 0.964990 0.939550 -0.573555
O20   O     O_R   0.999960 0.035010 0.939550 -0.574071
O21   O     O_R   0.499960 0.464990 0.939550 -0.573648
O22   O     O_R   0.499960 0.535010 0.939550 -0.573975
O23   O     O_R   0.060450 0.965000 0.060520 -0.578051
O24   O     O_R   0.060450 0.035000 0.060520 -0.577991
O25   O     O_R   0.560450 0.465000 0.060520 -0.578094
O26   O     O_R   0.560450 0.535000 0.060520 -0.577946
O27   O     O_R   0.560430 0.000000 0.525440 -0.585191
O28   O     O_R   0.060430 0.500000 0.525440 -0.585191
O29   O     O_R   0.500020 0.060460 0.535020 -0.577143
O30   O     O_R   0.500020 0.939540 0.535020 -0.576996
O31   O     O_R   0.000020 0.560460 0.535020 -0.576991
O32   O     O_R   0.000020 0.439540 0.535020 -0.577147
O33   O     O_R   0.499970 0.060450 0.464980 -0.578187
O34   O     O_R   0.499970 0.939550 0.464980 -0.578207
O35   O     O_R   0.999970 0.560450 0.464980 -0.578195
O36   O     O_R   0.999970 0.439550 0.464980 -0.578199
O37   O     O_R   0.439560 0.000000 0.474560 -0.582129
O38   O     O_R   0.939560 0.500000 0.474560 -0.582128
O39   O     O_R   0.439510 0.000000 0.404520 -0.567245
O40   O     O_R   0.939510 0.500000 0.404520 -0.567245
O41   O     O_R   0.534970 0.500000 0.595520 -0.579380
O42   O     O_R   0.034970 0.000000 0.595520 -0.579380
O43   O     O_R   0.464980 0.500000 0.525470 -0.572499
O44   O     O_R   0.964980 0.000000 0.525470 -0.572499
O45   O     O_R   0.534980 0.439530 0.535070 -0.576057
O46   O     O_R   0.534980 0.560470 0.535070 -0.576062
O47   O     O_R   0.034980 0.939530 0.535070 -0.576042
O48   O     O_R   0.034980 0.060470 0.535070 -0.576076
I1    I     I_    0.714319 0.997531 0.816803 -0.377551
I2    I     I_    0.214316 0.502454 0.816800 -0.377552
O49   O     O_3   0.281050 0.068519 0.240929 -0.556739
C169  C     C_3   0.250762 0.100220 0.206574 -0.246474
H53   H     H_    0.244923 0.115492 0.231384 0.150564
H54   H     H_    0.220980 0.088296 0.163302 0.174442
H55   H     H_    0.262983 0.124452 0.197220 0.195993
O50   O     O_3   0.281048 0.931919 0.240193 -0.556727
C170  C     C_3   0.250760 0.900264 0.205494 -0.246373
H56   H     H_    0.220979 0.912333 0.162350 0.174450
H57   H     H_    0.244918 0.884664 0.230135 0.150556
H58   H     H_    0.262981 0.876265 0.195883 0.196021
O51   O     O_3   0.781050 0.568739 0.241309 -0.556751
C171  C     C_3   0.750763 0.600461 0.207130 -0.246351
H59   H     H_    0.744924 0.615564 0.232024 0.150564
H60   H     H_    0.720981 0.588613 0.163791 0.174430
H61   H     H_    0.762985 0.624813 0.197911 0.196038
O52   O     O_3   0.781047 0.432145 0.239816 -0.556717
C172  C     C_3   0.750758 0.400517 0.204943 -0.246488
H62   H     H_    0.720977 0.412660 0.161866 0.174460
H63   H     H_    0.744917 0.384747 0.229498 0.150552
H64   H     H_    0.762979 0.376638 0.195196 0.195979
I3    I     I_    0.214264 0.000558 0.111108 -0.322801
I4    I     I_    0.714264 0.501127 0.111112 -0.322801
O53   O     O_3   0.041792 0.067334 0.822833 -0.564012
C173  C     C_3   0.058200 0.092221 0.806848 -0.267891
H65   H     H_    0.032986 0.104815 0.761252 0.154090
H66   H     H_    0.081488 0.074647 0.811249 0.159811
H67   H     H_    0.074614 0.119291 0.837429 0.195977
O54   O     O_3   0.036275 0.929528 0.817299 -0.564352
C174  C     C_3   0.050630 0.903409 0.799253 -0.268689
H68   H     H_    0.075237 0.919067 0.804962 0.159744
H69   H     H_    0.024481 0.892868 0.752735 0.154689
H70   H     H_    0.064836 0.875116 0.827619 0.195812
O55   O     O_3   0.541362 0.567602 0.822402 -0.564011
C175  C     C_3   0.557610 0.592593 0.806257 -0.267739
H71   H     H_    0.532316 0.605025 0.760582 0.154116
H72   H     H_    0.581009 0.575168 0.810768 0.159796
H73   H     H_    0.573852 0.619767 0.836664 0.196026
O56   O     O_3   0.536725 0.429762 0.817750 -0.564351
C176  C     C_3   0.551247 0.403735 0.799872 -0.268856
H74   H     H_    0.575756 0.419550 0.805484 0.159758
H75   H     H_    0.525167 0.393028 0.753422 0.154670
H76   H     H_    0.565633 0.375533 0.828418 0.195758
O57   O     O_3   0.571570 0.280983 0.605152 -0.568678
C177  C     C_3   0.598446 0.248570 0.644925 -0.294906
H77   H     H_    0.608039 0.228634 0.627705 0.153515
H78   H     H_    0.583919 0.229237 0.655364 0.158843
H79   H     H_    0.627204 0.262723 0.686940 0.196800
O58   O     O_3   0.571565 0.719018 0.605158 -0.568756
C178  C     C_3   0.598438 0.751430 0.644933 -0.294193
H80   H     H_    0.583907 0.770764 0.655365 0.158989
H81   H     H_    0.608036 0.771366 0.627720 0.153598
H82   H     H_    0.627194 0.737278 0.686951 0.196865
O59   O     O_3   0.071569 0.780982 0.605155 -0.568769
C179  C     C_3   0.098443 0.748570 0.644928 -0.294251
H83   H     H_    0.108036 0.728632 0.627710 0.153613
H84   H     H_    0.083915 0.729238 0.655366 0.158945
H85   H     H_    0.127202 0.762722 0.686943 0.196888
O60   O     O_3   0.071571 0.219017 0.605151 -0.568664
C180  C     C_3   0.098447 0.251429 0.644923 -0.294843
H86   H     H_    0.083921 0.270765 0.655361 0.158886
H87   H     H_    0.108041 0.271364 0.627703 0.153499
H88   H     H_    0.127205 0.237277 0.686939 0.196778
I5    I     I_    0.415451 0.285687 0.473620 -0.360476
I6    I     I_    0.415442 0.714312 0.473594 -0.359907
I7    I     I_    0.915449 0.785687 0.473615 -0.360361
I8    I     I_    0.915452 0.214312 0.473619 -0.360028

loop_
_geom_bond_atom_site_label_1
_geom_bond_atom_site_label_2
_ccdc_geom_bond_type
C101  C107  S    
C22   C150  T    
C28   C47   S    
C55   C59   S    
C32   C45   S    
C28   H48   S    
C120  C166  S    
C5    I7    S    
C169  H53   S    
C82   O42   A    
C93   C121  S    
C68   O40   A    
C33   H45   S    
C6    I8    S    
C87   O9    A    
C41   C149  S    
C10   C94   S    
C29   C33   S    
C131  C146  S    
C134  C143  S    
C146  C152  S    
C11   C15   S    
C12   C16   S    
C1    O1    A    
C25   C159  T    
C89   O11   A    
C26   C160  T    
C177  H77   S    
C8    C92   S    
C107  C123  S    
C4    C12   S    
C5    C13   S    
C3    I5    S    
C22   C168  S    
C138  C154  T    
C7    C15   S    
Cu8   O5    S    
C8    C16   S    
C109  C125  T    
C73   C75   S    
C96   O17   A    
Cu11  O13   S    
C44   C46   S    
C163  H41   S    
Cu9   O23   S    
C34   C50   S    
O58   C178  S    
C27   C31   S    
C28   C32   S    
C87   O7    A    
O60   C180  S    
C65   C99   S    
C39   O29   A    
C58   C70   S    
C129  C142  S    
C33   C50   S    
C60   O50   S    
C175  H71   S    
C102  C114  S    
C83   C157  S    
C16   H32   S    
C177  H79   S    
Cu1   O29   S    
C173  H65   S    
C137  C153  T    
C118  C124  S    
C88   C138  S    
C18   C122  S    
C94   C122  S    
C83   O3    A    
Cu7   O3    S    
C161  H39   S    
C29   C44   S    
C35   C51   T    
C142  C144  S    
C41   O35   A    
O52   C172  S    
C12   H36   S    
C75   I3    S    
C141  H29   S    
C76   I4    S    
C70   H10   S    
Cu5   O46   S    
C100  O25   A    
C56   C73   S    
C60   C75   S    
C34   H46   S    
C169  H55   S    
C179  H83   S    
C83   O45   A    
C90   C140  S    
C39   O33   A    
C57   C61   S    
C106  C115  S    
C101  C117  S    
Cu4   O36   S    
C27   H47   S    
Cu6   O42   S    
C10   C18   S    
C47   C53   S    
C86   O6    A    
Cu3   O33   S    
C4    I6    S    
C144  C154  S    
Cu7   O43   S    
C57   H7    S    
C3    C11   S    
Cu9   Cu10  S    
O59   C179  S    
C132  C134  S    
C176  H74   S    
C106  C124  S    
C11   C165  S    
C14   H38   S    
C19   C165  S    
C146  C156  S    
C151  H27   S    
C120  H2    S    
C161  C165  S    
C113  C115  S    
C65   C79   T    
C105  H11   S    
C82   O44   A    
C106  H12   S    
C93   O59   S    
C97   O19   A    
C99   O24   A    
C74   C76   S    
C175  H73   S    
C5    C163  S    
C30   C48   S    
C16   C120  S    
Cu10  O24   S    
C93   C163  S    
C102  O54   S    
C90   O13   A    
C103  O55   S    
Cu2   O32   S    
C66   C100  S    
C72   C78   S    
C95   O15   A    
C129  C135  S    
Cu12  O18   S    
C84   O46   A    
C85   O47   A    
C50   H52   S    
C34   C46   S    
C86   O48   A    
C119  C165  S    
C85   O5    A    
C36   C52   T    
C37   C53   T    
Cu6   O47   S    
C133  H19   S    
Cu1   Cu3   S    
C18   H34   S    
C179  H85   S    
Cu5   Cu7   S    
C61   C76   S    
C162  H40   S    
C98   C112  S    
C30   C34   S    
C84   C158  S    
C5    C9    S    
O51   C171  S    
C6    C14   S    
C178  H81   S    
C139  C155  T    
C176  H76   S    
C44   I2    S    
C124  H16   S    
C170  H56   S    
C73   C79   S    
C103  C105  S    
C43   C45   S    
C55   C69   S    
C102  C117  S    
C110  C126  T    
Cu9   O11   S    
Cu7   O4    S    
C174  H69   S    
C91   C119  S    
C108  H14   S    
C91   O57   S    
C71   C77   S    
C58   C74   S    
Cu8   O10   S    
C27   C47   S    
C132  C141  S    
C59   O49   S    
C64   C78   T    
C152  H28   S    
C114  C116  S    
Cu5   O7    S    
C94   O60   S    
C116  C126  S    
C66   C80   T    
C6    C164  S    
C13   C17   S    
Cu3   O27   S    
C92   C120  S    
Cu12  O26   S    
C7    C23   S    
C23   C157  T    
C48   C50   S    
C8    C24   S    
C15   C119  S    
C130  C142  S    
C178  H82   S    
C32   C49   S    
C104  C113  S    
C129  H23   S    
C56   C69   S    
C114  H18   S    
O49   C169  S    
C177  H78   S    
C98   O21   A    
C11   H35   S    
C40   O34   A    
C58   C62   S    
Cu8   O6    S    
C33   C46   S    
C59   C75   S    
C2    O28   A    
C96   O18   A    
Cu4   O40   S    
C30   C44   S    
C104  C106  S    
Cu11  O25   S    
C9    C25   S    
Cu1   O37   S    
C84   O4    A    
C3    C7    S    
C141  C143  S    
C88   O10   A    
C171  H59   S    
C97   C111  S    
C143  C153  S    
C2    C36   S    
C88   O8    A    
C170  H58   S    
C37   C95   S    
C175  H72   S    
C119  H1    S    
Cu10  O16   S    
C32   H44   S    
C162  C166  S    
C2    O2    A    
C173  H66   S    
C57   C70   S    
Cu5   O45   S    
C67   O39   A    
O55   C175  S    
C74   C80   S    
C130  C145  S    
C101  C114  S    
C123  H15   S    
C133  C152  S    
C31   C49   S    
C105  C115  S    
C104  C118  S    
C121  C167  S    
C100  O26   A    
C173  H67   S    
C122  C168  S    
C40   C148  S    
C171  H61   S    
C42   O32   A    
C94   C164  S    
Cu12  O22   S    
C60   C71   S    
C19   C147  T    
C56   C60   S    
C105  C124  S    
C134  H20   S    
C172  H62   S    
Cu10  O12   S    
Cu6   O8    S    
C38   C54   T    
C131  H25   S    
C164  C168  S    
C55   C73   S    
C134  C152  S    
C89   O12   A    
C117  C127  S    
Cu1   O1    S    
C61   C72   S    
C179  H84   S    
C81   C109  S    
C61   O51   S    
C4    C162  S    
C103  C118  S    
C108  C123  S    
C64   C68   S    
C136  C151  S    
C92   C162  S    
O54   C174  S    
C6    C10   S    
C20   C166  S    
C28   C43   S    
C21   C167  S    
C132  C146  S    
C108  C116  S    
C136  C144  S    
C178  H80   S    
O56   C176  S    
Cu9   O15   S    
Cu2   Cu4   S    
C135  C151  S    
C90   O14   A    
C169  H54   S    
Cu1   O30   S    
C81   O41   A    
O57   C177  S    
Cu6   Cu8   S    
C112  C128  T    
C3    C161  S    
C29   H49   S    
Cu11  Cu12  S    
C67   O37   A    
C27   C43   S    
C101  O53   S    
O53   C173  S    
C31   C45   S    
C38   C96   S    
C91   C161  S    
C85   C159  S    
C13   H37   S    
C86   C160  S    
C1    O27   A    
Cu6   O48   S    
C174  H68   S    
C132  H26   S    
C14   C18   S    
Cu3   O39   S    
C4    C8    S    
C136  H22   S    
C47   C49   S    
C180  H86   S    
C48   C54   S    
Cu2   O2    S    
C31   H43   S    
C82   C110  S    
C103  C113  S    
Cu4   O35   S    
C12   C166  S    
Cu11  O17   S    
C24   C158  T    
C13   C167  S    
C45   C51   S    
Cu9   O19   S    
C46   C52   S    
Cu3   O34   S    
C69   C71   S    
C99   O23   A    
C180  H87   S    
C40   O30   A    
C176  H75   S    
C15   H31   S    
C102  C108  S    
Cu4   O28   S    
C121  H3    S    
C10   C26   S    
C122  H4    S    
C7    C91   S    
C43   I1    S    
C118  C128  S    
C87   C137  S    
C17   H33   S    
Cu8   O44   S    
C172  H64   S    
C97   O20   A    
C107  C116  S    
C63   C67   S    
C133  C143  S    
C29   C48   S    
C58   H8    S    
C104  O56   S    
C41   O31   A    
C69   H9    S    
Cu2   O38   S    
C89   C139  S    
Cu2   O31   S    
C81   O43   A    
Cu11  O21   S    
C57   C74   S    
C49   H51   S    
C163  C167  S    
C68   O38   A    
C95   O16   A    
C20   C148  T    
C62   C72   S    
C172  H63   S    
C145  C151  S    
Cu5   O41   S    
C9    C17   S    
C135  C144  S    
C140  C156  T    
C21   C149  T    
C111  C127  T    
C62   O52   S    
C142  H30   S    
C42   O36   A    
C9    C93   S    
C98   O22   A    
C130  H24   S    
C1    C35   S    
C63   C77   T    
C180  H88   S    
C17   C121  S    
Cu7   O9    S    
C62   C76   S    
C107  H13   S    
C130  C136  S    
C56   H6    S    
C131  C133  S    
C131  C141  S    
C115  C125  S    
O50   C170  S    
C30   H50   S    
C117  C123  S    
C171  H60   S    
C170  H57   S    
C129  C145  S    
C55   H5    S    
C42   C150  S    
C145  C155  S    
C164  H42   S    
Cu10  O20   S    
C174  H70   S    
C39   C147  S    
C113  H17   S    
C70   C72   S    
C135  H21   S    
C92   O58   S    
C14   C168  S    
C59   C71   S    
Cu12  O14   S    
