data_mof_unit_61742.cif
_audit_creation_date              2012-12-10T17:56:12-0500
_audit_creation_method            fapswitch 2.2
_symmetry_space_group_name_H-M    P1
_symmetry_Int_Tables_number       1
_space_group_crystal_system       triclinic
_cell_length_a                    21.706595
_cell_length_b                    21.703054
_cell_length_c                    21.718449
_cell_angle_alpha                 89.744383
_cell_angle_beta                  89.848749
_cell_angle_gamma                 88.547985
_cell_volume                      10228.1285286

loop_
_atom_site_label
_atom_site_type_symbol
_atom_type_description
_atom_site_fract_x
_atom_site_fract_y
_atom_site_fract_z
_atom_type_partial_charge
C1    C     C_R   0.499141 0.120092 0.999121 0.907037
C2    C     C_R   0.879835 0.500984 0.000800 0.919197
C3    C     C_2   0.574811 0.183232 0.910939 0.936769
C4    C     C_2   0.455441 0.892029 0.191317 1.016640
C5    C     C_2   0.412924 0.186223 0.078733 0.967026
C6    C     C_2   0.445291 0.106147 0.808941 1.019703
C7    C     C_2   0.425485 0.816596 0.910461 0.921659
C8    C     C_2   0.081661 0.814414 0.417399 0.971894
C9    C     C_2   0.818004 0.908926 0.425952 0.930079
C10   C     C_2   0.919650 0.186307 0.416341 0.971006
C11   C     C_2   0.181897 0.090696 0.425227 0.934067
C12   C     C_2   0.906043 0.817911 0.571158 0.925360
C13   C     C_R   0.000117 0.499858 0.120104 0.953128
C14   C     C_2   0.186059 0.921083 0.585708 0.969661
C15   C     C_2   0.092328 0.181834 0.572275 0.929242
C16   C     C_2   0.813626 0.078341 0.585178 0.971030
C17   C     C_2   0.812859 0.592753 0.926137 1.004279
C18   C     C_2   0.894289 0.555221 0.190887 1.018794
C19   C     C_2   0.182863 0.573877 0.089720 0.936411
C20   C     C_2   0.103747 0.554041 0.809100 1.008057
C21   C     C_2   0.816486 0.423855 0.087677 0.935426
C22   C     C_2   0.898796 0.443381 0.811857 0.996893
C23   C     C_2   0.187604 0.408990 0.925802 0.991387
C24   C     C_R   0.120144 0.499048 0.001070 0.925545
C25   C     C_2   0.105248 0.441679 0.190606 1.016330
C26   C     C_2   0.045505 0.607754 0.690575 1.017948
C27   C     C_2   0.089672 0.312480 0.575068 0.974311
C28   C     C_2   0.057587 0.394739 0.309704 1.013025
C29   C     C_2   0.077192 0.683254 0.412850 0.949309
C30   C     C_2   0.955176 0.391538 0.691328 1.016943
C31   C     C_2   0.907099 0.687193 0.572380 0.986742
C32   C     C_2   0.941889 0.604757 0.308679 1.021252
C33   C     C_2   0.926408 0.317357 0.409414 0.928633
C34   C     C_2   0.579146 0.314303 0.915339 0.974401
C35   C     C_R   0.999030 0.620155 0.498709 0.931930
C36   C     C_2   0.318201 0.404046 0.931537 0.918437
C37   C     C_2   0.420014 0.686248 0.917106 0.973634
C38   C     C_2   0.682138 0.596170 0.929567 0.917672
C39   C     C_2   0.407819 0.317031 0.074177 0.924316
C40   C     C_2   0.685688 0.419952 0.083167 0.973799
C41   C     C_2   0.597776 0.682248 0.067835 0.915911
C42   C     C_2   0.313833 0.580582 0.082774 0.969419
C43   C     C_2   0.312402 0.091735 0.425641 0.993844
C44   C     C_2   0.395594 0.059075 0.691135 1.017352
C45   C     C_2   0.682936 0.070896 0.592503 0.926519
C46   C     C_R   0.999953 0.499827 0.620185 0.999828
C47   C     C_2   0.601228 0.058443 0.310114 1.000552
C48   C     C_2   0.317023 0.925553 0.589791 0.938372
C49   C     C_2   0.398196 0.944084 0.311173 1.000330
C50   C     C_2   0.687470 0.911490 0.423083 0.988619
C51   C     C_2   0.604220 0.939726 0.690953 1.011941
C52   C     C_R   0.000924 0.379895 0.498536 0.914195
C53   C     C_R   0.000091 0.499790 0.379889 0.954561
C54   C     C_R   0.619950 0.501140 0.999949 0.880390
C55   C     C_R   0.499199 0.379982 0.000094 0.880918
C56   C     C_R   0.380020 0.499232 0.000129 0.869174
C57   C     C_R   0.499951 0.000585 0.120158 0.985024
C58   C     C_R   0.501432 0.619946 0.999810 0.864415
C59   C     C_R   0.500087 0.000112 0.379876 1.000771
C60   C     C_R   0.379860 0.000960 0.500973 0.928477
C61   C     C_R   0.500098 0.999867 0.620135 0.961435
C62   C     C_R   0.620106 0.999078 0.501092 0.926156
C63   C     C_R   0.531165 0.047044 0.218539 -0.131899
C64   C     C_R   0.546488 0.780745 0.034415 -0.091215
C65   C     C_R   0.534543 0.953932 0.781709 -0.105706
C66   C     C_R   0.535964 0.217376 0.956464 -0.089952
C67   C     C_R   0.468885 0.953650 0.218993 -0.132045
C68   C     C_R   0.500908 0.879872 0.998734 0.917560
C69   C     C_R   0.455518 0.218809 0.036710 -0.086243
C70   C     C_R   0.465768 0.045636 0.781391 -0.109606
C71   C     C_R   0.463597 0.782721 0.956981 -0.083448
C72   C     C_R   0.038485 0.781545 0.458779 -0.082318
C73   C     C_R   0.783416 0.956159 0.462874 -0.077827
C74   C     C_R   0.962606 0.218862 0.457591 -0.077849
C75   C     C_R   0.216604 0.043986 0.462872 -0.081671
C76   C     C_R   0.954560 0.783383 0.535646 -0.081187
C77   C     C_R   0.218700 0.962761 0.542625 -0.078003
C78   C     C_R   0.044502 0.216493 0.536072 -0.075093
C79   C     C_R   0.500077 0.999899 0.879922 0.942999
C80   C     C_R   0.781119 0.036356 0.542947 -0.075898
C81   C     C_R   0.780779 0.547219 0.965511 -0.094275
C82   C     C_R   0.954799 0.534583 0.218488 -0.111861
C83   C     C_R   0.217181 0.535892 0.043624 -0.088542
C84   C     C_R   0.043628 0.535241 0.781052 -0.124820
C85   C     C_R   0.782484 0.463528 0.042639 -0.089273
C86   C     C_R   0.957670 0.463410 0.781944 -0.112917
C87   C     C_R   0.219410 0.453564 0.965840 -0.093255
C88   C     C_R   0.045429 0.464289 0.218597 -0.108397
C89   C     C_R   0.031723 0.546087 0.718540 -0.127221
C90   C     C_R   0.120020 0.000158 0.499989 0.882755
C91   C     C_R   0.045416 0.280637 0.534757 -0.092742
C92   C     C_R   0.035772 0.454785 0.281612 -0.109438
C93   C     C_R   0.037066 0.717496 0.457137 -0.089953
C94   C     C_R   0.968805 0.453067 0.719141 -0.138934
C95   C     C_R   0.953127 0.719257 0.533731 -0.095334
C96   C     C_R   0.964586 0.544778 0.281227 -0.110875
C97   C     C_R   0.964142 0.282943 0.455752 -0.086325
C98   C     C_R   0.537145 0.281473 0.957856 -0.081772
C99   C     C_R   0.283627 0.453950 0.965060 -0.078033
C100  C     C_R   0.462894 0.718685 0.958453 -0.074466
C101  C     C_R   0.999560 0.880015 0.500071 0.885718
C102  C     C_R   0.716511 0.546510 0.964145 -0.086552
C103  C     C_R   0.455947 0.283011 0.037713 -0.078425
C104  C     C_R   0.718438 0.462521 0.041262 -0.080079
C105  C     C_R   0.546981 0.716439 0.034785 -0.077379
C106  C     C_R   0.281255 0.537391 0.041825 -0.081789
C107  C     C_R   0.280680 0.045896 0.464905 -0.097923
C108  C     C_R   0.455500 0.035923 0.718642 -0.113751
C109  C     C_R   0.717071 0.034871 0.544699 -0.088868
C110  C     C_R   0.542503 0.036823 0.281246 -0.118153
C111  C     C_R   0.282750 0.964045 0.543937 -0.089633
C112  C     C_R   0.879975 0.999515 0.500105 0.871449
C113  C     C_R   0.457371 0.964015 0.281778 -0.119057
C114  C     C_R   0.719258 0.955236 0.464084 -0.094465
C115  C     C_R   0.544529 0.963266 0.718704 -0.112294
C116  C     C_R   0.500011 0.000382 0.313580 -0.171431
C117  C     C_R   0.502992 0.686035 0.998824 -0.177376
C118  C     C_R   0.499993 0.999592 0.686314 -0.175572
C119  C     C_R   0.498490 0.313783 0.999831 -0.175564
C120  C     C_R   0.996350 0.686579 0.496568 -0.212951
C121  C     C_R   0.686415 0.996523 0.503109 -0.206824
C122  C     C_R   0.003441 0.313548 0.496449 -0.210522
C123  C     C_R   0.000432 0.120010 0.499850 0.875613
C124  C     C_R   0.313501 0.003633 0.503172 -0.207746
C125  C     C_R   0.686038 0.502318 0.000341 -0.174313
C126  C     C_R   0.000314 0.499938 0.313752 -0.174472
C127  C     C_R   0.313900 0.497996 0.000923 -0.171386
C128  C     C_R   0.999865 0.499790 0.686491 -0.191305
C129  C     C_R   0.000396 0.499914 0.813599 -0.172540
C130  C     C_R   0.001416 0.186175 0.499079 -0.169912
C131  C     C_R   0.000180 0.499565 0.186221 -0.177033
C132  C     C_R   0.998783 0.813899 0.499685 -0.167678
C133  C     C_R   0.496895 0.186407 0.997530 -0.209185
C134  C     C_R   0.000281 0.500040 0.879873 1.001584
C135  C     C_R   0.186522 0.496351 0.003249 -0.211154
C136  C     C_R   0.503405 0.813499 0.997035 -0.216057
C137  C     C_R   0.813420 0.503802 0.002752 -0.210954
C138  C     C_R   0.186181 0.001069 0.500463 -0.170678
C139  C     C_R   0.500221 0.999868 0.813827 -0.179189
C140  C     C_R   0.813790 0.998414 0.500788 -0.173077
C141  C     C_R   0.499975 0.000376 0.186444 -0.195158
C142  C     C_2   0.545452 0.108362 0.190380 1.017897
C143  C     C_2   0.590236 0.812887 0.075118 0.983563
C144  C     C_2   0.555212 0.893603 0.809928 1.009544
H1    H     H_    0.559459 0.160132 0.114616 0.357034
H2    H     H_    0.873770 0.889722 0.353911 0.362891
H3    H     H_    0.842862 0.136244 0.408936 0.362504
H4    H     H_    0.128086 0.108955 0.351635 0.364266
H5    H     H_    0.884492 0.874707 0.641513 0.365024
H6    H     H_    0.135944 0.844538 0.596414 0.362644
H7    H     H_    0.112681 0.125792 0.643928 0.364132
H8    H     H_    0.859346 0.157748 0.594980 0.363097
H9    H     H_    0.834603 0.620694 0.840377 0.362046
H10   H     H_    0.844035 0.579955 0.116452 0.361826
H11   H     H_    0.130808 0.649935 0.107375 0.363355
H12   H     H_    0.612984 0.836897 0.161448 0.358343
H13   H     H_    0.162247 0.548583 0.881109 0.357515
H14   H     H_    0.865877 0.345580 0.103582 0.363838
H15   H     H_    0.836998 0.456183 0.880446 0.356545
H16   H     H_    0.164524 0.384309 0.839764 0.360319
H17   H     H_    0.155572 0.419131 0.115498 0.362916
H18   H     H_    0.045427 0.663224 0.616049 0.355599
H19   H     H_    0.112413 0.337918 0.660952 0.358046
H20   H     H_    0.083675 0.345254 0.384405 0.363272
H21   H     H_    0.156407 0.635181 0.398044 0.363974
H22   H     H_    0.947975 0.338669 0.615726 0.356640
H23   H     H_    0.581959 0.844404 0.884576 0.361556
H24   H     H_    0.880217 0.661845 0.657428 0.359483
H25   H     H_    0.922546 0.656436 0.383505 0.362973
H26   H     H_    0.850582 0.369674 0.391328 0.363478
H27   H     H_    0.653815 0.367204 0.905642 0.362529
H28   H     H_    0.377925 0.379758 0.864237 0.362826
H29   H     H_    0.336679 0.648632 0.906254 0.362954
H30   H     H_    0.621553 0.619913 0.862816 0.365328
H31   H     H_    0.386898 0.374529 0.144149 0.363752
H32   H     H_    0.635349 0.343157 0.091873 0.362799
H33   H     H_    0.623769 0.619686 0.132294 0.363106
H34   H     H_    0.652491 0.133274 0.894131 0.363574
H35   H     H_    0.364036 0.657316 0.089678 0.363575
H36   H     H_    0.335086 0.119336 0.340041 0.361522
H37   H     H_    0.344064 0.078759 0.616044 0.363256
H38   H     H_    0.628435 0.144452 0.613168 0.363131
H39   H     H_    0.660871 0.052240 0.381185 0.358137
H40   H     H_    0.367615 0.848376 0.607179 0.363371
H41   H     H_    0.337394 0.954306 0.381066 0.356730
H42   H     H_    0.665016 0.888192 0.336471 0.359959
H43   H     H_    0.655095 0.918498 0.615697 0.363000
H44   H     H_    0.450471 0.838492 0.115960 0.356054
H45   H     H_    0.393481 0.159725 0.165475 0.356700
H46   H     H_    0.419968 0.156027 0.883342 0.361614
H47   H     H_    0.350325 0.869918 0.892300 0.362953
H48   H     H_    0.155685 0.868277 0.409757 0.362341
O1    O     O_R   0.448310 0.091640 0.999960 -0.577180
O2    O     O_R   0.000040 0.908360 0.551690 -0.569811
O3    O     O_R   0.078926 0.315422 0.638428 -0.777015
O4    O     O_2   0.063005 0.349118 0.276930 -0.543465
O5    O     O_R   0.070678 0.388831 0.372263 -0.782843
O6    O     O_2   0.060934 0.678225 0.359281 -0.571594
O7    O     O_R   0.133853 0.658188 0.432188 -0.739539
O8    O     O_2   0.947668 0.346819 0.724775 -0.527708
O9    O     O_R   0.955460 0.382920 0.627730 -0.804594
O10   O     O_2   0.861353 0.666016 0.548534 -0.534303
O11   O     O_R   0.914752 0.684353 0.636182 -0.775576
O12   O     O_2   0.929310 0.648429 0.274658 -0.552584
O13   O     O_R   0.908360 0.999960 0.551690 -0.612102
O14   O     O_R   0.937245 0.613243 0.372114 -0.788982
O15   O     O_2   0.943030 0.318108 0.355587 -0.568717
O16   O     O_R   0.871310 0.347077 0.426933 -0.736787
O17   O     O_2   0.569891 0.313210 0.859752 -0.545688
O18   O     O_R   0.628432 0.346898 0.938902 -0.742029
O19   O     O_2   0.310757 0.350280 0.946190 -0.546695
O20   O     O_R   0.356375 0.417848 0.881743 -0.730643
O21   O     O_2   0.436495 0.672835 0.864840 -0.543461
O22   O     O_R   0.361094 0.671906 0.937954 -0.732772
O23   O     O_2   0.691052 0.650157 0.941821 -0.547188
O24   O     O_R   0.999960 0.091640 0.551690 -0.572433
O25   O     O_R   0.642738 0.581917 0.881201 -0.731299
O26   O     O_2   0.353414 0.310614 0.061793 -0.545535
O27   O     O_R   0.424010 0.353269 0.124287 -0.728678
O28   O     O_2   0.683555 0.430781 0.138464 -0.544119
O29   O     O_R   0.656846 0.368401 0.059289 -0.739927
O30   O     O_2   0.651331 0.693132 0.055097 -0.541272
O31   O     O_R   0.585067 0.640612 0.115213 -0.732204
O32   O     O_2   0.314499 0.571453 0.138457 -0.542206
O33   O     O_R   0.344177 0.630797 0.057344 -0.749435
O34   O     O_2   0.335191 0.136827 0.449133 -0.537481
O35   O     O_R   0.908360 0.000040 0.448310 -0.573439
O36   O     O_R   0.312558 0.085046 0.361687 -0.764365
O37   O     O_2   0.351909 0.071809 0.725220 -0.550069
O38   O     O_R   0.387206 0.063903 0.627546 -0.789317
O39   O     O_2   0.685133 0.053922 0.646248 -0.569783
O40   O     O_R   0.650451 0.125002 0.576595 -0.736430
O41   O     O_2   0.636305 0.091280 0.281306 -0.550833
O42   O     O_R   0.619240 0.036718 0.368176 -0.812451
O43   O     O_2   0.319157 0.942180 0.643459 -0.571550
O44   O     O_R   0.345045 0.869765 0.571955 -0.738273
O45   O     O_2   0.363121 0.910128 0.283996 -0.544590
O46   O     O_R   0.999960 0.908360 0.448310 -0.617025
O47   O     O_R   0.379377 0.968859 0.367661 -0.814684
O48   O     O_2   0.664255 0.865468 0.444801 -0.536681
O49   O     O_R   0.687664 0.921246 0.359463 -0.766491
O50   O     O_2   0.648212 0.927760 0.724764 -0.546170
O51   O     O_R   0.612024 0.933467 0.627417 -0.791067
O52   O     O_R   0.091640 0.999960 0.448310 -0.574980
O53   O     O_R   0.000040 0.091640 0.448310 -0.615248
O54   O     O_R   0.000040 0.448310 0.908360 -0.605227
O55   O     O_R   0.908360 0.448310 0.999960 -0.581773
O56   O     O_R   0.999960 0.448310 0.091640 -0.581685
O57   O     O_R   0.448310 0.000040 0.091640 -0.590155
O58   O     O_R   0.091640 0.448310 0.000040 -0.573781
O59   O     O_R   0.000040 0.551690 0.091640 -0.580029
O60   O     O_R   0.908360 0.551690 0.000040 -0.571315
O61   O     O_R   0.999960 0.551690 0.908360 -0.592970
O62   O     O_R   0.091640 0.551690 0.999960 -0.575064
O63   O     O_R   0.948310 0.591640 0.499960 -0.577185
O64   O     O_R   0.948310 0.500040 0.591640 -0.584982
O65   O     O_R   0.948310 0.408360 0.500040 -0.566005
O66   O     O_R   0.948310 0.499960 0.408360 -0.586275
O67   O     O_R   0.051690 0.408360 0.499960 -0.577844
O68   O     O_R   0.448310 0.908360 0.000040 -0.563523
O69   O     O_R   0.051690 0.499960 0.591640 -0.593684
O70   O     O_R   0.051690 0.591640 0.500040 -0.574403
O71   O     O_R   0.051690 0.500040 0.408360 -0.578198
O72   O     O_R   0.591640 0.500040 0.051690 -0.612845
O73   O     O_R   0.500040 0.408360 0.051690 -0.569606
O74   O     O_R   0.408360 0.499960 0.051690 -0.615852
O75   O     O_R   0.499960 0.591640 0.051690 -0.562397
O76   O     O_R   0.408360 0.500040 0.948310 -0.567139
O77   O     O_R   0.499960 0.408360 0.948310 -0.614590
O78   O     O_R   0.591640 0.499960 0.948310 -0.564190
O79   O     O_R   0.448310 0.999960 0.908360 -0.580616
O80   O     O_R   0.500040 0.591640 0.948310 -0.607161
O81   O     O_R   0.500040 0.948310 0.408360 -0.601654
O82   O     O_R   0.408360 0.948310 0.499960 -0.579508
O83   O     O_R   0.499960 0.948310 0.591640 -0.581730
O84   O     O_R   0.591640 0.948310 0.500040 -0.573125
O85   O     O_R   0.500040 0.051690 0.591640 -0.583405
O86   O     O_R   0.408360 0.051690 0.500040 -0.572235
O87   O     O_R   0.499960 0.051690 0.408360 -0.596828
O88   O     O_R   0.591640 0.051690 0.499960 -0.572739
O89   O     O_2   0.548610 0.153800 0.223539 -0.530686
O90   O     O_R   0.551690 0.908360 0.999960 -0.576575
O91   O     O_R   0.552250 0.115789 0.126958 -0.796692
O92   O     O_2   0.636540 0.835423 0.053297 -0.529921
O93   O     O_R   0.579886 0.814129 0.138620 -0.777134
O94   O     O_2   0.558774 0.847575 0.777490 -0.543050
O95   O     O_R   0.569655 0.888128 0.872281 -0.782559
O96   O     O_2   0.558246 0.180564 0.857265 -0.570813
O97   O     O_R   0.630842 0.155853 0.929118 -0.736796
O98   O     O_2   0.445729 0.847755 0.224869 -0.531741
O99   O     O_R   0.458504 0.882708 0.127707 -0.805069
O100  O     O_2   0.365648 0.164618 0.058513 -0.530636
O101  O     O_R   0.551690 0.999960 0.091640 -0.579689
O102  O     O_R   0.425778 0.182992 0.141643 -0.779301
O103  O     O_2   0.440995 0.151885 0.775721 -0.544062
O104  O     O_R   0.432155 0.112217 0.871575 -0.781292
O105  O     O_2   0.440481 0.814643 0.856162 -0.575912
O106  O     O_R   0.371496 0.848202 0.928186 -0.729427
O107  O     O_2   0.074660 0.812384 0.361582 -0.549310
O108  O     O_R   0.129436 0.848097 0.442434 -0.743156
O109  O     O_2   0.814304 0.854426 0.439599 -0.551504
O110  O     O_R   0.851797 0.926170 0.374121 -0.729317
O111  O     O_2   0.929634 0.184762 0.360903 -0.542975
O112  O     O_R   0.551690 0.091640 0.000040 -0.566894
O113  O     O_R   0.868648 0.156954 0.441345 -0.743866
O114  O     O_2   0.183440 0.145136 0.439141 -0.554875
O115  O     O_R   0.150259 0.072917 0.372541 -0.728955
O116  O     O_2   0.851922 0.813212 0.556915 -0.549084
O117  O     O_R   0.921669 0.852933 0.622334 -0.729362
O118  O     O_2   0.184756 0.932934 0.640885 -0.545422
O119  O     O_R   0.156751 0.869082 0.562772 -0.738314
O120  O     O_2   0.146598 0.185546 0.557821 -0.549001
O121  O     O_R   0.075912 0.147805 0.624254 -0.727846
O122  O     O_2   0.819576 0.064225 0.639614 -0.541287
O123  O     O_R   0.551690 0.000040 0.908360 -0.578979
O124  O     O_R   0.837552 0.133338 0.562205 -0.737993
O125  O     O_2   0.836701 0.637326 0.949592 -0.534365
O126  O     O_R   0.811843 0.586635 0.862144 -0.764610
O127  O     O_2   0.848807 0.560152 0.224167 -0.545613
O128  O     O_R   0.887844 0.567639 0.128171 -0.781960
O129  O     O_2   0.181852 0.557267 0.143598 -0.568668
O130  O     O_R   0.153503 0.629134 0.071950 -0.737765
O131  O     O_2   0.141784 0.581306 0.778312 -0.546535
O132  O     O_R   0.119534 0.535504 0.868791 -0.813664
O133  O     O_2   0.819327 0.439670 0.141543 -0.572416
O134  O     O_R   0.091640 0.000040 0.551690 -0.614948
O135  O     O_R   0.843420 0.367890 0.068847 -0.736684
O136  O     O_2   0.865303 0.406637 0.786671 -0.546007
O137  O     O_R   0.878693 0.470949 0.866507 -0.815715
O138  O     O_2   0.164826 0.363174 0.948432 -0.533921
O139  O     O_R   0.187126 0.417863 0.862062 -0.770169
O140  O     O_2   0.149904 0.431995 0.223973 -0.547277
O141  O     O_R   0.112306 0.433317 0.127389 -0.788028
O142  O     O_2   0.060114 0.650582 0.723660 -0.539462
O143  O     O_R   0.036939 0.619043 0.627919 -0.811074
O144  O     O_2   0.136555 0.333583 0.553008 -0.532921
Zn1   Zn    Zn3+2 0.430960 0.000000 0.000000 1.152530
Zn2   Zn    Zn3+2 0.500000 0.500000 0.930960 1.140664
Zn3   Zn    Zn3+2 0.500000 0.930960 0.500000 1.147164
Zn4   Zn    Zn3+2 0.500000 0.069040 0.500000 1.149755
Zn5   Zn    Zn3+2 0.569040 0.000000 0.000000 1.156309
Zn6   Zn    Zn3+2 0.000000 0.000000 0.569040 1.134983
Zn7   Zn    Zn3+2 0.000000 0.000000 0.430960 1.126473
Zn8   Zn    Zn3+2 0.000000 0.430960 0.000000 1.145742
Zn9   Zn    Zn3+2 0.000000 0.569040 0.000000 1.151714
Zn10  Zn    Zn3+2 0.930960 0.500000 0.500000 1.149651
Zn11  Zn    Zn3+2 0.069040 0.500000 0.500000 1.148945
Zn12  Zn    Zn3+2 0.500000 0.500000 0.069040 1.136852

loop_
_geom_bond_atom_site_label_1
_geom_bond_atom_site_label_2
_ccdc_geom_bond_type
C49   C113  S    
C33   O16   S    
C75   C107  A    
O65   Zn10  S    
C17   O126  S    
C39   O26   D    
C79   C139  S    
C55   O73   A    
C102  C125  A    
O79   Zn1   S    
H11   O130  S    
C55   C119  S    
C101  O2    A    
C41   C105  S    
O101  Zn5   S    
C45   C109  S    
C15   C78   S    
C23   O138  D    
O70   Zn11  S    
C58   O80   A    
O67   Zn11  S    
C52   C122  S    
C29   O7    S    
C91   C122  A    
C93   C120  A    
C26   O143  S    
O62   Zn9   S    
H16   O139  S    
C111  C124  A    
O74   Zn12  S    
C11   O114  D    
C123  O24   A    
C40   O28   D    
C144  O95   S    
C107  C124  A    
C19   O129  D    
C7    O105  D    
C3    O96   D    
C54   C125  S    
C77   C138  A    
C49   O45   D    
C123  O53   A    
C65   C144  S    
C106  C127  A    
C25   C88   S    
C79   O79   A    
C73   C114  A    
C16   C80   S    
O86   Zn4   S    
C1    O1    A    
C2    O55   A    
C42   O32   D    
C115  C118  A    
O82   Zn3   S    
O76   Zn2   S    
C62   O84   A    
C24   O62   A    
C42   C106  S    
C36   O20   S    
C25   O141  S    
H38   O40   S    
C18   O127  D    
C51   O50   D    
C57   O57   A    
C67   C141  A    
C110  C116  A    
C37   O22   S    
H20   O5    S    
C53   O66   A    
C61   C118  S    
C75   C138  A    
C28   O5    S    
C40   O29   S    
C4    O99   S    
C30   C94   S    
C5    O102  S    
C109  C121  A    
C18   C82   S    
C63   C142  S    
C36   C99   S    
C33   C97   S    
H39   O42   S    
C65   C139  A    
C101  C132  S    
C13   O56   A    
O84   Zn3   S    
O112  Zn5   S    
C100  C117  A    
C82   C131  A    
C134  O54   A    
C47   O41   D    
H46   O104  S    
C64   C136  A    
C90   O52   A    
C112  C140  S    
C49   O47   S    
C60   O82   A    
C35   O70   A    
C39   O27   S    
C112  O13   A    
H9    O126  S    
C77   C111  A    
O60   Zn9   S    
C34   O18   S    
C12   O116  D    
O75   Zn12  S    
C62   O88   A    
C8    O108  S    
C23   O139  S    
C58   O75   A    
C8    O107  D    
C27   C91   S    
C55   O77   A    
C56   O74   A    
C41   O30   D    
C35   O63   A    
C65   C115  A    
C35   C120  S    
C1    C133  S    
H12   O93   S    
C90   C138  S    
H4    O115  S    
C68   O90   A    
C69   C103  A    
C13   O59   A    
C11   O115  S    
O87   Zn4   S    
C144  O94   D    
C71   C136  A    
C6    O103  D    
H47   O106  S    
O77   Zn2   S    
C58   C117  S    
O81   Zn3   S    
C44   O37   D    
H26   O16   S    
C90   O134  A    
C20   O131  D    
H37   O38   S    
O80   Zn2   S    
C96   C126  A    
C41   O31   S    
C20   C84   S    
C123  C130  S    
H1    O91   S    
C43   O36   S    
C33   O15   D    
C17   O125  D    
C61   O85   A    
C51   O51   S    
C134  O61   A    
O66   Zn10  S    
O54   Zn8   S    
C64   C143  S    
H18   O143  S    
C53   O71   A    
C66   C98   A    
C24   O58   A    
C78   C130  A    
C9    O110  S    
C70   C108  A    
C76   C132  A    
H41   O47   S    
O52   Zn7   S    
C28   O4    D    
O58   Zn8   S    
C56   O76   A    
C4    O98   D    
C48   O43   D    
C29   O6    D    
H7    O121  S    
O78   Zn2   S    
C88   C131  A    
C37   C100  S    
H34   O97   S    
O134  Zn6   S    
O2    Zn6   S    
C59   O87   A    
C30   O8    D    
C38   O23   D    
C50   O49   S    
C18   O128  S    
C16   O122  D    
C46   O69   A    
C81   C137  A    
H17   O141  S    
C14   O118  D    
C14   C77   S    
C46   O64   A    
O53   Zn7   S    
H40   O44   S    
C31   O10   D    
C5    C69   S    
H23   O95   S    
C114  C121  A    
C104  C125  A    
C59   C116  S    
C80   C109  A    
C1    O112  A    
C72   C132  A    
O72   Zn12  S    
C45   O40   S    
O56   Zn8   S    
C43   O34   D    
C25   O140  D    
C15   O120  D    
C70   C139  A    
C112  O35   A    
C60   O86   A    
C38   O25   S    
C105  C117  A    
C79   O123  A    
C31   O11   S    
C37   O21   D    
C21   C85   S    
C8    C72   S    
C87   C135  A    
C64   C105  A    
H43   O51   S    
C10   O111  D    
H27   O18   S    
C99   C127  A    
C22   O137  S    
C80   C140  A    
C10   O113  S    
H36   O36   S    
C51   C115  S    
H22   O9    S    
C32   O12   D    
C2    O60   A    
C142  O91   S    
H19   O3    S    
C13   C131  S    
C43   C107  S    
H33   O31   S    
O69   Zn11  S    
C85   C104  A    
C72   C93   A    
H2    O110  S    
C143  O93   S    
C12   C76   S    
C3    C66   S    
C27   O3    S    
C47   C110  S    
C5    O100  D    
C85   C137  A    
H25   O14   S    
H44   O99   S    
C19   O130  S    
C68   O68   A    
H45   O102  S    
C16   O124  S    
C7    O106  S    
C6    C70   S    
C30   O9    S    
C2    C137  S    
C92   C126  A    
H42   O49   S    
H48   O108  S    
C39   C103  S    
C94   C128  A    
C95   C120  A    
C71   C100  A    
O1    Zn1   S    
C83   C106  A    
C57   C141  S    
C54   O72   A    
C50   O48   D    
H29   O22   S    
C142  O89   D    
C29   C93   S    
C31   C95   S    
C52   O65   A    
C34   C98   S    
O13   Zn6   S    
C14   O119  S    
C17   C81   S    
C22   C86   S    
O88   Zn4   S    
C19   C83   S    
C36   O19   D    
C129  C134  S    
C27   O144  D    
C11   C75   S    
C50   C114  S    
C89   C128  A    
H35   O33   S    
H6    O119  S    
C15   O121  S    
C98   C119  A    
C26   C89   S    
H5    O117  S    
C143  O92   D    
O24   Zn6   S    
C46   C128  S    
H21   O7    S    
C76   C95   A    
C7    C71   S    
C6    O104  S    
O64   Zn10  S    
C84   C129  A    
C56   C127  S    
C60   C124  S    
C44   O38   S    
C86   C94   A    
C54   O78   A    
C20   O132  S    
O68   Zn1   S    
C88   C92   A    
O57   Zn1   S    
C83   C135  A    
C47   O42   S    
H14   O135  S    
C23   C87   S    
O35   Zn7   S    
O83   Zn3   S    
O73   Zn12  S    
C74   C97   A    
C87   C99   A    
C81   C102  A    
C44   C108  S    
C63   C141  A    
H15   O137  S    
C82   C96   A    
H32   O29   S    
C108  C118  A    
C68   C136  S    
H10   O128  S    
C52   O67   A    
O63   Zn10  S    
O123  Zn5   S    
C9    O109  D    
C97   C122  A    
C34   O17   D    
C40   C104  S    
C66   C133  A    
O85   Zn4   S    
O71   Zn11  S    
C61   O83   A    
C28   C92   S    
H30   O25   S    
C26   O142  D    
C48   O44   S    
C24   C135  S    
C32   C96   S    
C21   O135  S    
C74   C130  A    
C84   C89   A    
C3    O97   S    
C42   O33   S    
C69   C133  A    
C101  O46   A    
H31   O27   S    
C9    C73   S    
C103  C119  A    
H28   O20   S    
O59   Zn9   S    
C4    C67   S    
C86   C129  A    
C73   C140  A    
C78   C91   A    
H13   O132  S    
H3    O113  S    
C12   O117  S    
H24   O11   S    
H8    O124  S    
C113  C116  A    
C63   C110  A    
O46   Zn7   S    
C67   C113  A    
O55   Zn8   S    
C38   C102  S    
C10   C74   S    
O90   Zn5   S    
C59   O81   A    
C22   O136  D    
C57   O101  A    
C53   C126  S    
C48   C111  S    
C45   O39   D    
C32   O14   S    
C62   C121  S    
C21   O133  D    
O61   Zn9   S    
