data_mof_unit_64186.cif
_audit_creation_date              2013-03-05T16:14:09-0500
_audit_creation_method            fapswitch 2.2
_symmetry_space_group_name_H-M    P1
_symmetry_Int_Tables_number       1
_space_group_crystal_system       triclinic
_cell_length_a                    30.280817
_cell_length_b                    30.288132
_cell_length_c                    38.728728
_cell_angle_alpha                 90.000097
_cell_angle_beta                  89.948426
_cell_angle_gamma                 90.000013
_cell_volume                      35520.0145749

loop_
_atom_site_label
_atom_site_type_symbol
_atom_site_description
_atom_site_fract_x
_atom_site_fract_y
_atom_site_fract_z
_atom_type_partial_charge
O1    O     O_R   0.065410 0.463110 0.500070 -0.594021
O2    O     O_R   0.463110 0.934590 0.500070 -0.594029
O3    O     O_R   0.934590 0.536890 0.500070 -0.594340
O4    O     O_R   0.536890 0.065410 0.500070 -0.597329
O5    O     O_R   0.065410 0.536890 0.499930 -0.594351
O6    O     O_R   0.463110 0.065410 0.499930 -0.597328
O7    O     O_R   0.934590 0.463110 0.499930 -0.594011
O8    O     O_R   0.536890 0.934590 0.499930 -0.594030
O9    O     O_R   0.565410 0.963110 0.000070 -0.594289
O10   O     O_R   0.963110 0.434590 0.000070 -0.594225
O11   O     O_R   0.434590 0.036890 0.000070 -0.594431
O12   O     O_R   0.036890 0.565410 0.000070 -0.594177
O13   O     O_R   0.565410 0.036890 0.999930 -0.594404
O14   O     O_R   0.963110 0.565410 0.999930 -0.594177
O15   O     O_R   0.434590 0.963110 0.999930 -0.594316
O16   O     O_R   0.036890 0.434590 0.999930 -0.594224
C1    C     C_R   0.085990 0.500000 0.499999 1.000151
C2    C     C_R   0.500000 0.914005 0.500000 0.998494
C3    C     C_R   0.914010 0.500000 0.500000 1.000123
C4    C     C_R   0.500000 0.086070 0.500000 0.999555
C5    C     C_R   0.585990 0.000000 0.000000 1.000498
C6    C     C_R   0.000000 0.414005 1.000000 1.000288
C7    C     C_R   0.414010 0.000000 1.000000 1.000598
C8    C     C_R   1.000000 0.585995 0.000000 1.000162
O17   O     O_R   0.999940 0.463110 0.449140 -0.614099
O18   O     O_R   0.463110 0.000060 0.449140 -0.642771
O19   O     O_R   0.000060 0.536890 0.449140 -0.614291
O20   O     O_R   0.536890 0.999940 0.449140 -0.583939
O21   O     O_R   0.999940 0.536890 0.550860 -0.614276
O22   O     O_R   0.463110 0.999940 0.550860 -0.583939
O23   O     O_R   0.000060 0.463110 0.550860 -0.614115
O24   O     O_R   0.536890 0.000060 0.550860 -0.642772
O25   O     O_R   0.499940 0.963110 0.949140 -0.614285
O26   O     O_R   0.963110 0.500060 0.949140 -0.614279
O27   O     O_R   0.500060 0.036890 0.949140 -0.614376
O28   O     O_R   0.036890 0.499940 0.949140 -0.614238
O29   O     O_R   0.499940 0.036890 0.050860 -0.614415
O30   O     O_R   0.963110 0.499940 0.050860 -0.614240
O31   O     O_R   0.500060 0.963110 0.050860 -0.614246
O32   O     O_R   0.036890 0.500060 0.050860 -0.614278
C9    C     C_R   0.000001 0.500000 0.432716 0.946787
C10   C     C_R   0.500015 0.999984 0.432718 0.945123
C11   C     C_R   0.999998 0.500000 0.567284 0.946786
C12   C     C_R   0.499985 0.999984 0.567281 0.945122
C13   C     C_R   0.500004 0.000001 0.932716 0.947127
C14   C     C_R   0.000018 0.500003 0.932714 0.946613
C15   C     C_R   0.499998 0.000001 0.067284 0.947126
C16   C     C_R   0.999982 0.500003 0.067286 0.946609
Zn1   Zn    Zn3+2 0.000000 0.450710 0.500000 1.065930
Zn2   Zn    Zn3+2 0.450710 0.000000 0.500000 1.070552
Zn3   Zn    Zn3+2 0.000000 0.549290 0.500000 1.064908
Zn4   Zn    Zn3+2 0.549290 0.000000 0.500000 1.070551
Zn5   Zn    Zn3+2 0.500000 0.950710 0.000000 1.064539
Zn6   Zn    Zn3+2 0.950710 0.500000 0.000000 1.064654
Zn7   Zn    Zn3+2 0.500000 0.049290 0.000000 1.064102
Zn8   Zn    Zn3+2 0.049290 0.500000 0.000000 1.064655
C17   C     C_R   0.013521 0.537699 0.376785 -0.115717
C18   C     C_R   0.537628 0.986119 0.376790 -0.087904
C19   C     C_R   0.986422 0.462324 0.376800 -0.115176
C20   C     C_R   0.462558 0.014095 0.376829 -0.164183
C21   C     C_R   0.013577 0.462325 0.623200 -0.115171
C22   C     C_R   0.537442 0.014096 0.623171 -0.164183
C23   C     C_R   0.986478 0.537700 0.623215 -0.115721
C24   C     C_R   0.462372 0.986120 0.623210 -0.087904
C25   C     C_R   0.513446 0.037737 0.876787 -0.115882
C26   C     C_R   0.037755 0.486459 0.876778 -0.115791
C27   C     C_R   0.486523 0.962300 0.876792 -0.115405
C28   C     C_R   0.962381 0.513605 0.876805 -0.115803
C29   C     C_R   0.513480 0.962300 0.123208 -0.115421
C30   C     C_R   0.037619 0.513604 0.123195 -0.115802
C31   C     C_R   0.486557 0.037737 0.123213 -0.115867
C32   C     C_R   0.962245 0.486459 0.123222 -0.115792
H1    H     H_    0.024247 0.567095 0.390317 0.183621
H2    H     H_    0.566901 0.975070 0.390321 0.183467
H3    H     H_    0.975722 0.432917 0.390344 0.183980
H4    H     H_    0.433292 0.025183 0.390394 0.163022
H5    H     H_    0.024277 0.432917 0.609656 0.183973
H6    H     H_    0.566708 0.025184 0.609606 0.163022
H7    H     H_    0.975753 0.567096 0.609683 0.183628
H8    H     H_    0.433099 0.975071 0.609679 0.183467
H9    H     H_    0.524103 0.067156 0.890322 0.183194
H10   H     H_    0.067145 0.475722 0.890306 0.183743
H11   H     H_    0.475888 0.932866 0.890331 0.183498
H12   H     H_    0.932969 0.524329 0.890354 0.183695
H13   H     H_    0.524115 0.932866 0.109669 0.183521
H14   H     H_    0.067031 0.524329 0.109646 0.183695
H15   H     H_    0.475900 0.067156 0.109678 0.183171
H16   H     H_    0.932855 0.475721 0.109694 0.183743
C33   C     C_R   0.013889 0.537570 0.340865 -0.138257
C34   C     C_R   0.537508 0.985758 0.340870 -0.139714
C35   C     C_R   0.985988 0.462485 0.340880 -0.137968
C36   C     C_R   0.462726 0.014509 0.340908 -0.138136
C37   C     C_R   0.014011 0.462485 0.659119 -0.137974
C38   C     C_R   0.537275 0.014510 0.659092 -0.138136
C39   C     C_R   0.986110 0.537571 0.659134 -0.138252
C40   C     C_R   0.462492 0.985760 0.659130 -0.139714
C41   C     C_R   0.513813 0.037618 0.840867 -0.138795
C42   C     C_R   0.037635 0.486076 0.840857 -0.138080
C43   C     C_R   0.486095 0.962465 0.840872 -0.138166
C44   C     C_R   0.962551 0.514023 0.840887 -0.138366
C45   C     C_R   0.513909 0.962465 0.159128 -0.138150
C46   C     C_R   0.037449 0.514023 0.159113 -0.138365
C47   C     C_R   0.486191 0.037618 0.159133 -0.138810
C48   C     C_R   0.962365 0.486075 0.159143 -0.138080
H17   H     H_    0.024565 0.566990 0.327327 0.160430
H18   H     H_    0.566817 0.974755 0.327325 0.160998
H19   H     H_    0.975290 0.433076 0.327353 0.160651
H20   H     H_    0.433440 0.025550 0.327392 0.157771
H21   H     H_    0.024708 0.433077 0.672647 0.160649
H22   H     H_    0.566561 0.025551 0.672608 0.157771
H23   H     H_    0.975434 0.566990 0.672673 0.160432
H24   H     H_    0.433183 0.974756 0.672675 0.160998
H25   H     H_    0.524418 0.067068 0.827336 0.159636
H26   H     H_    0.067056 0.475376 0.827312 0.160512
H27   H     H_    0.475468 0.933033 0.827342 0.160372
H28   H     H_    0.933145 0.524733 0.827366 0.160309
H29   H     H_    0.524536 0.933033 0.172657 0.160377
H30   H     H_    0.066855 0.524732 0.172634 0.160310
H31   H     H_    0.475585 0.067068 0.172664 0.159630
H32   H     H_    0.932943 0.475375 0.172688 0.160512
C49   C     C_R   0.999921 0.500036 0.322694 0.071442
C50   C     C_R   0.500123 0.000133 0.322707 0.073317
C51   C     C_R   0.000078 0.500036 0.677306 0.071443
C52   C     C_R   0.499878 0.000134 0.677292 0.073317
C53   C     C_R   0.499936 0.000054 0.822689 0.071658
C54   C     C_R   0.000104 0.500058 0.822693 0.071607
C55   C     C_R   0.500068 0.000054 0.177311 0.071658
C56   C     C_R   0.999895 0.500057 0.177307 0.071607
C57   C     C_R   0.999986 0.500005 0.394960 -0.027010
C58   C     C_R   0.500064 0.000050 0.394970 -0.010698
C59   C     C_R   0.000013 0.500005 0.605040 -0.027009
C60   C     C_R   0.499936 0.000051 0.605030 -0.010698
C61   C     C_R   0.499996 0.000009 0.894958 -0.026475
C62   C     C_R   0.000054 0.500022 0.894958 -0.027209
C63   C     C_R   0.500007 0.000009 0.105042 -0.026476
C64   C     C_R   0.999946 0.500021 0.105041 -0.027209
N1    N     N_R   0.972660 0.472691 0.267176 -0.157400
N2    N     N_R   0.472947 0.027537 0.267181 -0.162173
N3    N     N_R   0.027122 0.527422 0.267137 -0.157876
N4    N     N_R   0.527297 0.972698 0.267149 -0.156681
N5    N     N_R   0.972878 0.527423 0.732863 -0.157876
N6    N     N_R   0.472705 0.972699 0.732851 -0.156682
N7    N     N_R   0.027339 0.472692 0.732823 -0.157400
N8    N     N_R   0.527054 0.027538 0.732819 -0.162172
N9    N     N_R   0.472843 0.972556 0.767163 -0.157154
N10   N     N_R   0.972764 0.527308 0.767175 -0.157823
N11   N     N_R   0.526950 0.027635 0.767131 -0.159545
N12   N     N_R   0.027469 0.472821 0.767136 -0.157521
N13   N     N_R   0.473052 0.027634 0.232869 -0.159544
N14   N     N_R   0.972530 0.472820 0.232864 -0.157520
N15   N     N_R   0.527159 0.972556 0.232837 -0.157155
N16   N     N_R   0.027236 0.527307 0.232825 -0.157823
C65   C     C_R   0.999881 0.500066 0.215095 0.295766
C66   C     C_R   0.500095 0.000082 0.215102 0.296902
C67   C     C_R   0.000119 0.500067 0.784905 0.295766
C68   C     C_R   0.499907 0.000082 0.784898 0.296901
C69   C     C_R   0.499872 0.000130 0.715084 0.295703
C70   C     C_R   0.000102 0.500052 0.715094 0.295863
C71   C     C_R   0.500130 0.000129 0.284916 0.295703
C72   C     C_R   0.999897 0.500051 0.284906 0.295863
C73   C     C_R   0.202577 0.493176 0.530859 -0.209007
C74   C     C_R   0.492929 0.797375 0.530803 -0.210044
C75   C     C_R   0.797328 0.506876 0.530804 -0.210476
C76   C     C_R   0.473710 0.202891 0.523630 -0.218233
C77   C     C_R   0.202671 0.506866 0.469195 -0.210482
C78   C     C_R   0.526290 0.202891 0.476370 -0.218233
C79   C     C_R   0.797422 0.493166 0.469142 -0.209002
C80   C     C_R   0.507071 0.797375 0.469197 -0.210045
C81   C     C_R   0.702574 0.993173 0.030864 -0.210014
C82   C     C_R   0.992995 0.297378 0.030812 -0.210154
C83   C     C_R   0.297327 0.006819 0.030807 -0.210437
C84   C     C_R   0.006971 0.702624 0.030807 -0.210140
C85   C     C_R   0.702673 0.006851 0.969198 -0.210431
C86   C     C_R   0.993029 0.702623 0.969193 -0.210139
C87   C     C_R   0.297426 0.993205 0.969131 -0.210020
C88   C     C_R   0.007006 0.297377 0.969188 -0.210156
H33   H     H_    0.220351 0.486865 0.554616 0.182119
H34   H     H_    0.486443 0.779569 0.554531 0.181718
H35   H     H_    0.779477 0.513195 0.554549 0.181535
H36   H     H_    0.453503 0.220922 0.541934 0.184158
H37   H     H_    0.220521 0.513179 0.445447 0.181525
H38   H     H_    0.546497 0.220922 0.458066 0.184158
H39   H     H_    0.779647 0.486849 0.445387 0.182129
H40   H     H_    0.513557 0.779569 0.445470 0.181719
H41   H     H_    0.720347 0.986865 0.054622 0.181758
H42   H     H_    0.986558 0.279572 0.054548 0.181711
H43   H     H_    0.279476 0.013101 0.054558 0.181594
H44   H     H_    0.013382 0.720429 0.054538 0.181658
H45   H     H_    0.720524 0.013158 0.945451 0.181597
H46   H     H_    0.986619 0.720429 0.945462 0.181657
H47   H     H_    0.279653 0.986922 0.945368 0.181756
H48   H     H_    0.013443 0.279571 0.945452 0.181716
C89   C     C_R   0.156628 0.492988 0.531267 0.277241
C90   C     C_R   0.492752 0.843317 0.531226 0.277975
C91   C     C_R   0.843277 0.507042 0.531240 0.277468
C92   C     C_R   0.473956 0.156983 0.524367 0.278313
C93   C     C_R   0.156722 0.507032 0.468758 0.277465
C94   C     C_R   0.526044 0.156983 0.475633 0.278315
C95   C     C_R   0.843372 0.492977 0.468734 0.277244
C96   C     C_R   0.507248 0.843317 0.468774 0.277975
C97   C     C_R   0.656625 0.992991 0.031271 0.277203
C98   C     C_R   0.992821 0.343319 0.031236 0.277265
C99   C     C_R   0.343276 0.006990 0.031244 0.277255
C100  C     C_R   0.007144 0.656682 0.031231 0.277323
C101  C     C_R   0.656724 0.007022 0.968760 0.277265
C102  C     C_R   0.992856 0.656682 0.968769 0.277323
C103  C     C_R   0.343375 0.993023 0.968724 0.277191
C104  C     C_R   0.007179 0.343319 0.968764 0.277261
C105  C     C_R   0.133652 0.500003 0.500007 -0.276733
C106  C     C_R   0.500000 0.866342 0.500000 -0.276439
C107  C     C_R   0.866348 0.500003 0.499993 -0.276740
C108  C     C_R   0.500000 0.133884 0.500000 -0.288579
C109  C     C_R   0.633651 0.000002 0.000009 -0.276801
C110  C     C_R   1.000000 0.366344 1.000000 -0.276962
C111  C     C_R   0.366349 0.000002 0.999991 -0.276794
C112  C     C_R   1.000000 0.633656 0.000000 -0.276927
C113  C     C_R   0.225657 0.500021 0.500033 -0.021823
C114  C     C_R   0.500000 0.774342 0.500000 -0.021911
C115  C     C_R   0.774343 0.500021 0.499967 -0.021842
C116  C     C_R   0.500000 0.225734 0.500000 -0.022139
C117  C     C_R   0.725656 0.000009 0.000038 -0.021714
C118  C     C_R   0.000000 0.274344 0.000000 -0.021773
C119  C     C_R   0.274343 0.000009 0.999962 -0.021701
C120  C     C_R   0.000000 0.725657 0.000000 -0.021716
C121  C     C_R   0.297140 0.479797 0.472935 -0.152363
C122  C     C_R   0.480031 0.702885 0.472805 -0.152969
C123  C     C_R   0.702910 0.520187 0.472849 -0.152499
C124  C     C_R   0.495635 0.296734 0.468824 -0.155834
C125  C     C_R   0.297090 0.520186 0.527151 -0.152501
C126  C     C_R   0.504365 0.296734 0.531175 -0.155835
C127  C     C_R   0.702860 0.479796 0.527065 -0.152362
C128  C     C_R   0.519969 0.702885 0.527195 -0.152969
C129  C     C_R   0.797140 0.979781 0.972941 -0.153148
C130  C     C_R   0.979986 0.202884 0.972826 -0.153057
C131  C     C_R   0.202909 0.020199 0.972855 -0.152947
C132  C     C_R   0.020041 0.797117 0.972809 -0.153036
C133  C     C_R   0.797091 0.020173 0.027156 -0.152954
C134  C     C_R   0.979959 0.797117 0.027191 -0.153035
C135  C     C_R   0.202859 0.979754 0.027047 -0.153141
C136  C     C_R   0.020014 0.202884 0.027174 -0.153055
H49   H     H_    0.279932 0.463301 0.452102 0.148419
H50   H     H_    0.463705 0.720107 0.451899 0.148865
H51   H     H_    0.720159 0.536688 0.452015 0.148884
H52   H     H_    0.491734 0.279276 0.444603 0.146710
H53   H     H_    0.279842 0.536687 0.547985 0.148881
H54   H     H_    0.508266 0.279276 0.555397 0.146710
H55   H     H_    0.720069 0.463300 0.547898 0.148422
H56   H     H_    0.536295 0.720107 0.548101 0.148864
H57   H     H_    0.779932 0.963283 0.952110 0.148861
H58   H     H_    0.963624 0.220106 0.951937 0.148808
H59   H     H_    0.220156 0.036722 0.952031 0.149010
H60   H     H_    0.036423 0.779896 0.951907 0.148912
H61   H     H_    0.779843 0.036675 0.047990 0.149013
H62   H     H_    0.963577 0.779896 0.048093 0.148912
H63   H     H_    0.220067 0.963236 0.047869 0.148859
H64   H     H_    0.036376 0.220106 0.048064 0.148808
C137  C     C_R   0.342915 0.480220 0.472755 -0.185426
C138  C     C_R   0.480462 0.657117 0.472631 -0.185229
C139  C     C_R   0.657133 0.519746 0.472674 -0.184027
C140  C     C_R   0.495700 0.342478 0.468805 -0.184514
C141  C     C_R   0.342867 0.519745 0.527326 -0.184027
C142  C     C_R   0.504300 0.342478 0.531195 -0.184514
C143  C     C_R   0.657085 0.480218 0.527245 -0.185425
C144  C     C_R   0.519538 0.657117 0.527369 -0.185229
C145  C     C_R   0.842914 0.980208 0.972760 -0.185290
C146  C     C_R   0.980418 0.157116 0.972651 -0.185136
C147  C     C_R   0.157132 0.019760 0.972682 -0.185142
C148  C     C_R   0.019608 0.842885 0.972634 -0.185136
C149  C     C_R   0.842868 0.019734 0.027330 -0.185141
C150  C     C_R   0.980392 0.842885 0.027366 -0.185134
C151  C     C_R   0.157085 0.980182 0.027229 -0.185291
C152  C     C_R   0.019582 0.157116 0.027349 -0.185139
H65   H     H_    0.360404 0.464449 0.451681 0.158493
H66   H     H_    0.464866 0.639655 0.451489 0.160308
H67   H     H_    0.639679 0.535514 0.451605 0.160140
H68   H     H_    0.492139 0.359697 0.444455 0.165357
H69   H     H_    0.360321 0.535511 0.548395 0.160142
H70   H     H_    0.507861 0.359697 0.555545 0.165358
H71   H     H_    0.639596 0.464446 0.548319 0.158491
H72   H     H_    0.535134 0.639655 0.548512 0.160307
H73   H     H_    0.860403 0.964438 0.951685 0.160246
H74   H     H_    0.964788 0.139653 0.951524 0.160340
H75   H     H_    0.139677 0.035549 0.951623 0.160340
H76   H     H_    0.035258 0.860349 0.951495 0.160416
H77   H     H_    0.860322 0.035503 0.048398 0.160359
H78   H     H_    0.964742 0.860349 0.048505 0.160416
H79   H     H_    0.139595 0.964392 0.048295 0.160226
H80   H     H_    0.035212 0.139653 0.048476 0.160340
C153  C     C_R   0.365821 0.499983 0.500036 -0.034311
C154  C     C_R   0.500000 0.634184 0.500000 -0.035266
C155  C     C_R   0.634180 0.499983 0.499964 -0.034308
C156  C     C_R   0.500000 0.365551 0.500000 -0.041302
C157  C     C_R   0.865821 0.999975 0.000039 -0.035115
C158  C     C_R   1.000000 0.134184 0.000000 -0.035272
C159  C     C_R   0.134179 0.999975 0.999961 -0.035092
C160  C     C_R   1.000000 0.865817 1.000000 -0.035332
C161  C     C_R   0.273945 0.500002 0.500041 0.153625
C162  C     C_R   0.500000 0.726056 0.500000 0.153524
C163  C     C_R   0.726055 0.500002 0.499959 0.153620
C164  C     C_R   0.500000 0.273760 0.500000 0.157600
C165  C     C_R   0.773945 0.999987 0.000047 0.153352
C166  C     C_R   0.000000 0.226056 0.000000 0.153426
C167  C     C_R   0.226054 0.999987 0.999953 0.153348
C168  C     C_R   1.000000 0.773945 1.000000 0.153330
O33   O     O_R   0.499920 0.565550 0.471320 -0.621023
O34   O     O_R   0.565550 0.500080 0.471320 -0.618441
O35   O     O_R   0.500080 0.434450 0.471320 -0.624338
O36   O     O_R   0.434450 0.499920 0.471320 -0.622835
O37   O     O_R   0.499920 0.434450 0.528680 -0.624338
O38   O     O_R   0.565550 0.499920 0.528680 -0.622834
O39   O     O_R   0.500080 0.565550 0.528680 -0.621023
O40   O     O_R   0.434450 0.500080 0.528680 -0.618443
O41   O     O_R   0.999920 0.065550 0.971320 -0.620917
O42   O     O_R   0.065550 0.000080 0.971320 -0.620811
O43   O     O_R   0.000080 0.934450 0.971320 -0.620924
O44   O     O_R   0.934450 0.999920 0.971320 -0.620935
O45   O     O_R   0.999920 0.934450 0.028680 -0.620927
O46   O     O_R   0.065550 0.999920 0.028680 -0.620926
O47   O     O_R   0.000080 0.065550 0.028680 -0.620915
O48   O     O_R   0.934450 0.000080 0.028680 -0.620820
C169  C     C_R   0.500000 0.586383 0.500000 0.869965
C170  C     C_R   0.586381 0.499998 0.499987 0.871888
C171  C     C_R   0.500000 0.413524 0.500000 0.874672
C172  C     C_R   0.413619 0.499998 0.500013 0.871891
C173  C     C_R   0.000000 0.086383 0.000000 0.869905
C174  C     C_R   0.086380 0.999995 0.999986 0.869993
C175  C     C_R   0.000000 0.913618 1.000000 0.869902
C176  C     C_R   0.913619 0.999995 0.000013 0.870007
Zn9   Zn    Zn3+2 0.500000 0.500000 0.461670 0.978371
Zn10  Zn    Zn3+2 0.500000 0.500000 0.538330 0.978371
Zn11  Zn    Zn3+2 0.000000 0.000000 0.961670 0.980198
Zn12  Zn    Zn3+2 1.000000 0.000000 0.038330 0.980197
N17   N     N_R   0.134099 0.486228 0.563589 0.198811
O49   O     O_R   0.100662 0.459414 0.565598 -0.408249
O50   O     O_R   0.150865 0.501833 0.592011 -0.377464
N18   N     N_R   0.485794 0.865783 0.563536 0.198652
O51   O     O_R   0.459005 0.899243 0.565472 -0.410092
O52   O     O_R   0.501186 0.848943 0.592002 -0.378152
N19   N     N_R   0.865702 0.513783 0.563579 0.198764
O53   O     O_R   0.899235 0.540470 0.565599 -0.408828
O54   O     O_R   0.848783 0.498264 0.591998 -0.378342
N20   N     N_R   0.448907 0.134548 0.550637 0.220445
O55   O     O_R   0.466423 0.102104 0.567866 -0.411556
O56   O     O_R   0.411402 0.150774 0.561067 -0.364115
N21   N     N_R   0.134297 0.513761 0.436418 0.198767
O57   O     O_R   0.100765 0.540450 0.434393 -0.408849
O58   O     O_R   0.151212 0.498228 0.408002 -0.378331
N22   N     N_R   0.551093 0.134548 0.449363 0.220445
O59   O     O_R   0.533576 0.102104 0.432134 -0.411556
O60   O     O_R   0.588598 0.150774 0.438933 -0.364116
N23   N     N_R   0.865900 0.486206 0.436414 0.198810
O61   O     O_R   0.899338 0.459393 0.434411 -0.408229
O62   O     O_R   0.849130 0.501796 0.407989 -0.377474
N24   N     N_R   0.514206 0.865782 0.436464 0.198653
O63   O     O_R   0.540995 0.899243 0.434528 -0.410092
O64   O     O_R   0.498814 0.848943 0.407998 -0.378151
N25   N     N_R   0.634095 0.986243 0.063594 0.198633
O65   O     O_R   0.600649 0.959438 0.065606 -0.408789
O66   O     O_R   0.650864 0.001850 0.092014 -0.377623
N26   N     N_R   0.985934 0.365786 0.063555 0.198672
O67   O     O_R   0.959184 0.399274 0.065523 -0.408575
O68   O     O_R   0.001367 0.348933 0.092004 -0.378109
N27   N     N_R   0.365700 0.013683 0.063590 0.198691
O69   O     O_R   0.399238 0.040363 0.065633 -0.409166
O70   O     O_R   0.348783 0.998121 0.091996 -0.378440
N28   N     N_R   0.013992 0.634216 0.063546 0.198646
O71   O     O_R   0.040754 0.600739 0.065498 -0.408633
O72   O     O_R   0.998517 0.651065 0.092003 -0.378058
N29   N     N_R   0.634301 0.013745 0.936418 0.198677
O73   O     O_R   0.600764 0.040427 0.934388 -0.409103
O74   O     O_R   0.651220 0.998209 0.908004 -0.378464
N30   N     N_R   0.986008 0.634216 0.936454 0.198646
O75   O     O_R   0.959246 0.600739 0.934501 -0.408633
O76   O     O_R   0.001485 0.651064 0.907997 -0.378059
N31   N     N_R   0.365906 0.986304 0.936398 0.198648
O77   O     O_R   0.399353 0.959503 0.934372 -0.408851
O78   O     O_R   0.349139 0.001938 0.907986 -0.377599
N32   N     N_R   0.014067 0.365785 0.936444 0.198676
O79   O     O_R   0.040814 0.399277 0.934477 -0.408579
O80   O     O_R   0.998642 0.348928 0.907995 -0.378109

loop_
_geom_bond_atom_site_label_1
_geom_bond_atom_site_label_2
_geom_bond_distance
_ccdc_geom_bond_type
N25   O65   1.300269 A    
C73   C113  1.398290 A    
O25   C13   1.285729 A    
O37   Zn10  2.020262 S    
C87   C103  1.391468 A    
C130  H58   1.082936 S    
C126  C142  1.385502 A    
C145  H73   1.083510 S    
C7    C111  1.443226 S    
N17   O49   1.300269 A    
O33   C169  1.277458 A    
C134  H62   1.082943 S    
C99   C111  1.412971 A    
C2    C106  1.443605 S    
O18   Zn2   2.004881 S    
N4    C71   1.356267 A    
C42   H26   1.083095 S    
N3    N16   1.328858 A    
N30   O75   1.300254 A    
C154  C169  1.447809 S    
O12   C8    1.279275 A    
C134  C150  1.386324 A    
O24   Zn4   2.004877 S    
C104  C110  1.412996 A    
O3    C3    1.279367 A    
C120  C168  1.462556 S    
C149  C157  1.398946 A    
C126  H54   1.083391 S    
C115  C163  1.462204 S    
C29   C63   1.402284 A    
C30   C64   1.402263 A    
C150  H78   1.083465 S    
C81   H41   1.083352 S    
C22   C60   1.402110 A    
O40   Zn10  2.020121 S    
O17   C9    1.285706 A    
N20   O55   1.301098 A    
C20   H4    1.083176 S    
C78   C94   1.390784 A    
C14   C62   1.462226 S    
C48   C56   1.402557 A    
N23   O62   1.301449 A    
O48   Zn12  2.020121 S    
O13   C5    1.279363 A    
C19   C35   1.391195 A    
C98   C110  1.412997 A    
C93   N21   1.439773 S    
O26   Zn6   2.004881 S    
O7    C3    1.279373 A    
C135  H63   1.082997 S    
C89   N17   1.439689 S    
C73   H33   1.083356 S    
O27   C13   1.285689 A    
O31   C15   1.285730 A    
O32   C16   1.285471 A    
C19   C57   1.402284 A    
N1    C72   1.356264 A    
C143  C155  1.398961 A    
C127  H55   1.082997 S    
C37   C51   1.402545 A    
N18   O51   1.300247 A    
C83   C119  1.398357 A    
N31   O77   1.300275 A    
C29   C45   1.391217 A    
C12   C60   1.461941 S    
O44   Zn11  2.019460 S    
C13   C61   1.462312 S    
C88   C104  1.391607 A    
C11   C59   1.462254 S    
C113  C161  1.462213 S    
O9    C5    1.279369 A    
C97   N25   1.439696 S    
O11   C7    1.279363 A    
N22   O59   1.301094 A    
C159  C174  1.447374 S    
N20   O56   1.301399 A    
C4    C108  1.448169 S    
C82   C98   1.391604 A    
C150  C160  1.398966 A    
C92   C108  1.414455 A    
C86   C102  1.391601 A    
C87   C119  1.398307 A    
O5    Zn3   2.015958 S    
O41   C173  1.277454 A    
N32   O79   1.300251 A    
C102  N30   1.439714 S    
C75   C115  1.398318 A    
C136  C166  1.403062 A    
C140  C156  1.401882 A    
C27   H11   1.083120 S    
C160  C175  1.447779 S    
C138  H66   1.083462 S    
N23   O61   1.300259 A    
C78   H38   1.083727 S    
C28   C44   1.391140 A    
C156  C171  1.453016 S    
C137  C153  1.398950 A    
O23   C11   1.285704 A    
C44   C54   1.402531 A    
C46   C56   1.402532 A    
C133  C165  1.403088 A    
C122  H50   1.082944 S    
O47   Zn12  2.020259 S    
O46   C174  1.277304 A    
O14   C8    1.279278 A    
O2    Zn2   2.016417 S    
C26   C62   1.402272 A    
O39   Zn10  2.020259 S    
C36   H20   1.083095 S    
C21   H5    1.083119 S    
C91   N19   1.439767 S    
O26   C14   1.285471 A    
N12   C67   1.356254 A    
O29   C15   1.285688 A    
C47   C55   1.402561 A    
O8    Zn4   2.016417 S    
O30   C16   1.285532 A    
O36   C172  1.277293 A    
C77   C113  1.398335 A    
C125  H53   1.082984 S    
C146  H74   1.083461 S    
O48   C176  1.277382 A    
C158  C173  1.447800 S    
C104  N32   1.439724 S    
C126  C164  1.399899 A    
C132  H60   1.082940 S    
N8    N11   1.328860 A    
C55   C66   1.463610 S    
C79   C115  1.398277 A    
N26   O67   1.300255 A    
O39   C169  1.277457 A    
O19   Zn3   2.005227 S    
O42   Zn11  2.020118 S    
O17   Zn1   2.005232 S    
C20   C36   1.391240 A    
N2    N13   1.328860 A    
C131  C147  1.386251 A    
N7    N12   1.328891 A    
C136  H64   1.082941 S    
C122  C162  1.403054 A    
C24   C60   1.402205 A    
C24   C40   1.391202 A    
O36   Zn9   2.019460 S    
O34   Zn9   2.020118 S    
C144  C154  1.398983 A    
N14   C65   1.356255 A    
C128  H56   1.082946 S    
C103  N31   1.439703 S    
C148  C160  1.398967 A    
O16   Zn8   2.016417 S    
C36   C50   1.402633 A    
C90   C106  1.412997 A    
N27   O69   1.300282 A    
C99   N27   1.439786 S    
C145  C157  1.398944 A    
C73   C89   1.391463 A    
O6    Zn2   2.016413 S    
C147  C159  1.398949 A    
O34   C170  1.277397 A    
C151  C159  1.398948 A    
C135  C167  1.403065 A    
C75   H35   1.083352 S    
C5    C109  1.443226 S    
N1    N14   1.328887 A    
N22   O60   1.301398 A    
O43   Zn11  2.020263 S    
C29   H13   1.083120 S    
O18   C10   1.285316 A    
N7    C70   1.356260 A    
C128  C162  1.403055 A    
O21   Zn3   2.005225 S    
C39   C51   1.402540 A    
C31   C47   1.391159 A    
C128  C144  1.386314 A    
C15   C63   1.462312 S    
C16   C64   1.462226 S    
O35   Zn9   2.020263 S    
C85   C101  1.391492 A    
C124  C140  1.385499 A    
C134  C168  1.403070 A    
C100  C112  1.412997 A    
O1    C1    1.279373 A    
C26   C42   1.391223 A    
C8    C112  1.443590 S    
O45   C175  1.277445 A    
C116  C164  1.454636 S    
C117  C165  1.462219 S    
C45   C55   1.402580 A    
N30   O76   1.301424 A    
O33   Zn9   2.020258 S    
C74   H34   1.083309 S    
C21   C59   1.402283 A    
C129  C145  1.386158 A    
C140  H68   1.083104 S    
C141  H69   1.083507 S    
N16   C65   1.356244 A    
C98   N26   1.439718 S    
N24   O63   1.300243 A    
C35   C49   1.402543 A    
C33   H17   1.083097 S    
C79   C95   1.391467 A    
C48   H32   1.083095 S    
N8    C69   1.356248 A    
C94   N22   1.439012 S    
O43   C175  1.277444 A    
N29   O74   1.301472 A    
C74   C114  1.398294 A    
C31   C63   1.402281 A    
C124  C164  1.399898 A    
C90   N18   1.439693 S    
C44   H28   1.083096 S    
C85   C117  1.398338 A    
C122  C138  1.386317 A    
C129  H57   1.082989 S    
O10   C6    1.279271 A    
C18   H2    1.083122 S    
C17   C33   1.391164 A    
C118  C166  1.462550 S    
C3    C107  1.443242 S    
O15   Zn5   2.015966 S    
C133  H61   1.082985 S    
C130  C146  1.386324 A    
C1    C105  1.443235 S    
C43   H27   1.083091 S    
C21   C37   1.391199 A    
O5    C1    1.279362 A    
O44   C176  1.277307 A    
C121  H49   1.082987 S    
C23   C39   1.391164 A    
C84   C100  1.391604 A    
N28   O71   1.300251 A    
C127  C143  1.386160 A    
N9    C68   1.356267 A    
N10   C67   1.356242 A    
O47   C173  1.277452 A    
O32   Zn8   2.004877 S    
C49   C72   1.463494 S    
C141  C153  1.398942 A    
C50   C71   1.463624 S    
C139  H67   1.083515 S    
C23   C59   1.402275 A    
N21   O58   1.301473 A    
C152  C158  1.398968 A    
C76   H36   1.083726 S    
C53   C68   1.463610 S    
C27   C43   1.391217 A    
C54   C67   1.463496 S    
C138  C154  1.398982 A    
O22   Zn2   2.005541 S    
C101  C109  1.412969 A    
N25   O66   1.301468 A    
C96   N24   1.439696 S    
O21   C11   1.285683 A    
C24   H8    1.083123 S    
N6    N9    1.328889 A    
O22   C12   1.285518 A    
C131  C167  1.403101 A    
O23   Zn1   2.005227 S    
C132  C168  1.403070 A    
C22   H6    1.083175 S    
N17   O50   1.301473 A    
C28   H12   1.083123 S    
C34   H18   1.083091 S    
C41   C53   1.402564 A    
O3    Zn3   2.015961 S    
O42   C174  1.277379 A    
C32   C48   1.391224 A    
C155  C170  1.447389 S    
O40   C172  1.277395 A    
C38   H22   1.083095 S    
C96   C106  1.412996 A    
N13   C66   1.356248 A    
O28   Zn8   2.005545 S    
C35   H19   1.083098 S    
C25   H9    1.083122 S    
N19   O53   1.300267 A    
O30   Zn6   2.005541 S    
C147  H75   1.083516 S    
C52   C69   1.463624 S    
C82   H42   1.083301 S    
C76   C92   1.390781 A    
C130  C166  1.403062 A    
N11   C68   1.356250 A    
C18   C34   1.391202 A    
N4    N15   1.328893 A    
C97   C109  1.412959 A    
C88   C118  1.398305 A    
C56   C65   1.463496 S    
C86   H46   1.083306 S    
C31   H15   1.083127 S    
N18   O52   1.301427 A    
C51   C70   1.463494 S    
O4    Zn4   2.016413 S    
N3    C72   1.356236 A    
C125  C141  1.386249 A    
C22   C38   1.391240 A    
C123  C163  1.403090 A    
N6    C69   1.356266 A    
N32   O80   1.301426 A    
O14   Zn6   2.016413 S    
C78   C116  1.395926 A    
O11   Zn7   2.015961 S    
C17   C57   1.402274 A    
C119  C167  1.462231 S    
O16   C6    1.279268 A    
C80   C96   1.391595 A    
C30   C46   1.391140 A    
C151  H79   1.083521 S    
O38   C170  1.277295 A    
C135  C151  1.386158 A    
O6    C4    1.280400 A    
C146  C158  1.398964 A    
C45   H29   1.083093 S    
O41   Zn11  2.020258 S    
C28   C62   1.402266 A    
C87   H47   1.083364 S    
O31   Zn5   2.005227 S    
C33   C49   1.402540 A    
C18   C58   1.402207 A    
C143  H71   1.083524 S    
C142  C156  1.401879 A    
C83   C99   1.391495 A    
O8    C2    1.279277 A    
C32   C64   1.402273 A    
C81   C97   1.391465 A    
N5    C70   1.356238 A    
C42   C54   1.402555 A    
C25   C41   1.391159 A    
C132  C148  1.386324 A    
C133  C149  1.386248 A    
O13   Zn7   2.015958 S    
C9    C57   1.462254 S    
O2    C2    1.279280 A    
C131  H59   1.082993 S    
C114  C162  1.462514 S    
N26   O68   1.301431 A    
C43   C53   1.402579 A    
C23   H7    1.083125 S    
C40   H24   1.083092 S    
C148  H76   1.083464 S    
C84   C120  1.398300 A    
C149  H77   1.083507 S    
C27   C61   1.402285 A    
C77   C93   1.391491 A    
C123  H51   1.082996 S    
C88   H48   1.083302 S    
C26   H10   1.083121 S    
C17   H1    1.083124 S    
C142  H70   1.083104 S    
O38   Zn10  2.019457 S    
C121  C161  1.403047 A    
C100  N28   1.439712 S    
N15   C66   1.356265 A    
C85   H45   1.083351 S    
N2    C71   1.356249 A    
C81   C117  1.398291 A    
C80   H40   1.083307 S    
C124  H52   1.083392 S    
C34   C50   1.402611 A    
C125  C161  1.403084 A    
C75   C91   1.391494 A    
C92   N20   1.439012 S    
C46   H30   1.083097 S    
C123  C139  1.386249 A    
C76   C116  1.395929 A    
O15   C7    1.279369 A    
C82   C118  1.398302 A    
N27   O70   1.301487 A    
O46   Zn12  2.019457 S    
O37   C171  1.278842 A    
C103  C111  1.412959 A    
C32   H16   1.083120 S    
N31   O78   1.301480 A    
O45   Zn12  2.020262 S    
O25   Zn5   2.005232 S    
C79   H39   1.083350 S    
C95   N23   1.439684 S    
C40   C52   1.402611 A    
O27   Zn7   2.005227 S    
C86   C120  1.398305 A    
O7    Zn1   2.015966 S    
C20   C58   1.402108 A    
O29   Zn7   2.005225 S    
C91   C107  1.412971 A    
O19   C9    1.285682 A    
C89   C105  1.412951 A    
C139  C155  1.398956 A    
C74   C90   1.391592 A    
O24   C12   1.285316 A    
C10   C58   1.461941 S    
O35   C171  1.278841 A    
O28   C14   1.285532 A    
O12   Zn8   2.016413 S    
C101  N29   1.439780 S    
N5    N10   1.328858 A    
N19   O54   1.301452 A    
N24   O64   1.301427 A    
C6    C110  1.443575 S    
C41   H25   1.083092 S    
C30   H14   1.083123 S    
C19   H3    1.083120 S    
C94   C108  1.414451 A    
N29   O73   1.300276 A    
C102  C112  1.412998 A    
C47   H31   1.083092 S    
O4    C4    1.280397 A    
C152  H80   1.083462 S    
C137  H65   1.083515 S    
C83   H43   1.083361 S    
C77   H37   1.083352 S    
C136  C152  1.386324 A    
C121  C137  1.386157 A    
C39   H23   1.083095 S    
C127  C163  1.403053 A    
O20   Zn4   2.005545 S    
C84   H44   1.083306 S    
O20   C10   1.285518 A    
C144  H72   1.083466 S    
C95   C107  1.412953 A    
O10   Zn6   2.016417 S    
N28   O72   1.301429 A    
C93   C105  1.412973 A    
O9    Zn5   2.015963 S    
C157  C176  1.447383 S    
C37   H21   1.083096 S    
C129  C165  1.403050 A    
C80   C114  1.398294 A    
N21   O57   1.300273 A    
O1    Zn1   2.015963 S    
C25   C61   1.402282 A    
C153  C172  1.447386 S    
C38   C52   1.402632 A    
