data_mof_unit_20761.cif
_audit_creation_date              2012-12-10T18:09:29-0500
_audit_creation_method            fapswitch 2.2
_symmetry_space_group_name_H-M    P1
_symmetry_Int_Tables_number       1
_space_group_crystal_system       triclinic
_cell_length_a                    15.153619
_cell_length_b                    15.181362
_cell_length_c                    9.412827
_cell_angle_alpha                 89.991718
_cell_angle_beta                  90.000853
_cell_angle_gamma                 90.000703
_cell_volume                      2165.44507246

loop_
_atom_site_label
_atom_site_type_symbol
_atom_type_description
_atom_site_fract_x
_atom_site_fract_y
_atom_site_fract_z
_atom_type_partial_charge
C1    C     C_R   0.120262 0.379929 0.499790 0.757537
C2    C     C_R   0.120251 0.620082 0.500210 0.757594
C3    C     C_R   0.620238 0.879906 0.499790 0.757461
C4    C     C_R   0.620266 0.120067 0.500210 0.757677
C5    C     C_3   0.092322 0.500656 0.083859 -0.189355
C6    C     C_3   0.092322 0.500556 0.916147 -0.189359
C7    C     C_3   0.592278 0.002883 0.083860 -0.189303
C8    C     C_3   0.592280 0.002785 0.916150 -0.189395
C9    C     C_R   0.880015 0.379821 0.500218 0.759299
C10   C     C_R   0.879990 0.620155 0.499780 0.759350
C11   C     C_R   0.380002 0.879834 0.500218 0.759286
C12   C     C_R   0.380011 0.120176 0.499780 0.759360
C13   C     C_3   0.786178 0.285247 0.655775 -0.379893
C14   C     C_3   0.844972 0.227314 0.423374 -0.384314
C15   C     C_3   0.845065 0.772782 0.576069 -0.384355
C16   C     C_3   0.785845 0.714429 0.344213 -0.380067
C17   C     C_3   0.285979 0.785442 0.655779 -0.380095
C18   C     C_3   0.345032 0.727252 0.423714 -0.384360
C19   C     C_3   0.344965 0.272679 0.576624 -0.384271
C20   C     C_3   0.286169 0.214750 0.344215 -0.379852
C21   C     C_3   0.214805 0.713906 0.655775 -0.377064
C22   C     C_3   0.273016 0.655332 0.423485 -0.384149
C23   C     C_3   0.272946 0.344594 0.576873 -0.384145
C24   C     C_3   0.215008 0.286300 0.344222 -0.376974
C25   C     C_3   0.715031 0.213684 0.655770 -0.377344
C26   C     C_3   0.772947 0.155403 0.423104 -0.384144
C27   C     C_3   0.773049 0.844699 0.576305 -0.384152
C28   C     C_3   0.714672 0.785967 0.344216 -0.376695
C29   C     C_3   0.727021 0.344810 0.424704 -0.384211
C30   C     C_3   0.727114 0.655280 0.575836 -0.384122
C31   C     C_3   0.227081 0.844752 0.424369 -0.384189
C32   C     C_3   0.227014 0.155181 0.575282 -0.384189
C33   C     C_3   0.811086 0.310823 0.500980 0.178443
C34   C     C_3   0.811041 0.689135 0.499011 0.178380
C35   C     C_3   0.311061 0.810846 0.500982 0.178448
C36   C     C_3   0.311079 0.189170 0.499011 0.178370
C37   C     C_3   0.189251 0.689011 0.500973 0.177998
C38   C     C_3   0.189269 0.311008 0.499024 0.177948
C39   C     C_3   0.689277 0.188985 0.500972 0.178047
C40   C     C_3   0.689230 0.810969 0.499022 0.177897
C41   C     C_3   0.155066 0.772844 0.424609 -0.384544
C42   C     C_3   0.154996 0.227084 0.575023 -0.384521
C43   C     C_3   0.654998 0.272912 0.424988 -0.384537
C44   C     C_3   0.655096 0.727185 0.575588 -0.384534
C45   C     C_3   0.955364 0.578313 0.083636 -0.187190
C46   C     C_3   0.955476 0.578386 0.916311 -0.186161
C47   C     C_3   0.956546 0.420994 0.083691 -0.186331
C48   C     C_3   0.956433 0.421066 0.916359 -0.187285
C49   C     C_3   0.453421 0.077136 0.083630 -0.186969
C50   C     C_3   0.453527 0.077210 0.916317 -0.185957
C51   C     C_3   0.458537 0.919895 0.083697 -0.186558
C52   C     C_3   0.458422 0.919965 0.916354 -0.187502
Cu1   Cu    Cu3+1 0.000100 0.500000 0.642410 0.882012
Cu2   Cu    Cu3+1 0.000100 0.500000 0.357590 0.882006
Cu3   Cu    Cu3+1 0.500100 1.000000 0.642410 0.882019
Cu4   Cu    Cu3+1 0.500100 0.000000 0.357590 0.881998
H1    H     H_    0.761137 0.343967 0.714112 0.153998
H2    H     H_    0.863282 0.243517 0.311854 0.155721
H3    H     H_    0.863564 0.756778 0.687583 0.155717
H4    H     H_    0.760727 0.655593 0.286266 0.153896
H5    H     H_    0.260905 0.844236 0.713884 0.154047
H6    H     H_    0.363448 0.743332 0.312193 0.155687
H7    H     H_    0.363261 0.256475 0.688149 0.155769
H8    H     H_    0.261139 0.156029 0.285869 0.153898
H9    H     H_    0.845384 0.260601 0.713546 0.153992
H10   H     H_    0.905297 0.201882 0.476987 0.137950
H11   H     H_    0.905301 0.798112 0.522069 0.137947
H12   H     H_    0.844937 0.739001 0.286058 0.154114
H13   H     H_    0.345115 0.760827 0.713769 0.154025
H14   H     H_    0.405309 0.701890 0.477556 0.137932
H15   H     H_    0.405297 0.298107 0.523029 0.137938
H16   H     H_    0.345373 0.239408 0.286454 0.154032
H17   H     H_    0.155854 0.738330 0.714447 0.155982
H18   H     H_    0.256919 0.637236 0.311854 0.155343
H19   H     H_    0.256722 0.362544 0.688517 0.155451
H20   H     H_    0.156129 0.261956 0.285273 0.156012
H21   H     H_    0.656156 0.238009 0.714744 0.156044
H22   H     H_    0.756716 0.137469 0.311455 0.155324
H23   H     H_    0.757027 0.862866 0.687935 0.155480
H24   H     H_    0.655676 0.761503 0.285700 0.155875
H25   H     H_    0.701803 0.404900 0.478974 0.138161
H26   H     H_    0.742684 0.363335 0.313085 0.155806
H27   H     H_    0.742979 0.636942 0.687462 0.155834
H28   H     H_    0.701790 0.595101 0.521947 0.138143
H29   H     H_    0.201792 0.904890 0.478420 0.138178
H30   H     H_    0.242869 0.863174 0.312752 0.155911
H31   H     H_    0.242678 0.136642 0.686895 0.155724
H32   H     H_    0.201789 0.095099 0.520993 0.138150
H33   H     H_    0.094954 0.798049 0.479104 0.137817
H34   H     H_    0.136315 0.757111 0.313115 0.157385
H35   H     H_    0.136100 0.242686 0.686501 0.157328
H36   H     H_    0.094956 0.201937 0.520251 0.137793
H37   H     H_    0.594969 0.298061 0.479784 0.137868
H38   H     H_    0.636084 0.257312 0.313516 0.157311
H39   H     H_    0.636416 0.742989 0.687086 0.157392
H40   H     H_    0.594950 0.701941 0.521235 0.137744
H41   H     H_    0.986981 0.639645 0.123620 0.130988
H42   H     H_    0.987334 0.639663 0.876566 0.130638
H43   H     H_    0.989218 0.360154 0.123464 0.130623
H44   H     H_    0.988859 0.360167 0.876344 0.130988
H45   H     H_    0.483536 0.139233 0.123546 0.131000
H46   H     H_    0.483878 0.139260 0.876631 0.130661
H47   H     H_    0.492690 0.859884 0.123514 0.130632
H48   H     H_    0.492328 0.859889 0.876292 0.131005
H49   H     H_    0.128755 0.559569 0.122255 0.133962
H50   H     H_    0.128837 0.559372 0.877613 0.133655
H51   H     H_    0.129635 0.442360 0.122480 0.133549
H52   H     H_    0.129553 0.442161 0.877668 0.133840
H53   H     H_    0.627223 0.062718 0.122104 0.134168
H54   H     H_    0.627305 0.062528 0.877778 0.133889
H55   H     H_    0.631037 0.945566 0.122635 0.133299
H56   H     H_    0.630961 0.945370 0.877517 0.133629
N1    N     N_3   0.001260 0.500000 0.143650 -0.106274
N2    N     N_3   0.001260 0.500000 0.856350 -0.106281
N3    N     N_3   0.501260 0.000000 0.143650 -0.106273
N4    N     N_3   0.501260 0.000000 0.856350 -0.106283
O1    O     O_R   0.091250 0.408820 0.620260 -0.594093
O2    O     O_R   0.091250 0.408820 0.379740 -0.595196
O3    O     O_R   0.091250 0.591180 0.620260 -0.595234
O4    O     O_R   0.091250 0.591180 0.379740 -0.594150
O5    O     O_R   0.591250 0.908820 0.620260 -0.593993
O6    O     O_R   0.591250 0.908820 0.379740 -0.595123
O7    O     O_R   0.591250 0.091180 0.620260 -0.595312
O8    O     O_R   0.591250 0.091180 0.379740 -0.594259
O9    O     O_R   0.908940 0.408800 0.620260 -0.596999
O10   O     O_R   0.908940 0.408800 0.379740 -0.596288
O11   O     O_R   0.908940 0.591200 0.620260 -0.596294
O12   O     O_R   0.908940 0.591200 0.379740 -0.597001
O13   O     O_R   0.408940 0.908800 0.620260 -0.596970
O14   O     O_R   0.408940 0.908800 0.379740 -0.596269
O15   O     O_R   0.408940 0.091200 0.620260 -0.596308
O16   O     O_R   0.408940 0.091200 0.379740 -0.597027
H57   H     H_    0.240049 0.654917 0.713201 0.152837
H58   H     H_    0.298459 0.595036 0.476915 0.137569
H59   H     H_    0.298446 0.404961 0.523726 0.137541
H60   H     H_    0.240326 0.345357 0.287065 0.152824
H61   H     H_    0.740375 0.154624 0.712892 0.152717
H62   H     H_    0.798445 0.095027 0.476228 0.137579
H63   H     H_    0.798454 0.904962 0.522732 0.137530
H64   H     H_    0.739870 0.844915 0.286626 0.153014
H65   H     H_    0.885714 0.579637 0.120715 0.134292
H66   H     H_    0.885875 0.579979 0.878941 0.134549
H67   H     H_    0.886968 0.418459 0.121009 0.134665
H68   H     H_    0.886800 0.418804 0.879333 0.134374
H69   H     H_    0.383774 0.076741 0.120819 0.134069
H70   H     H_    0.383923 0.077078 0.878846 0.134341
H71   H     H_    0.389034 0.915628 0.120932 0.134861
H72   H     H_    0.388857 0.915971 0.879416 0.134574

loop_
_geom_bond_atom_site_label_1
_geom_bond_atom_site_label_2
_ccdc_geom_bond_type
C16   C28   S    
C41   H33   S    
Cu3   Cu4   S    
Cu3   O5    S    
C17   H13   S    
C31   H29   S    
C12   O15   A    
Cu2   O4    S    
C19   H15   S    
C28   H64   S    
C13   C25   S    
C14   C33   S    
C18   H14   S    
C7    C8    S    
C46   H66   S    
C5    H49   S    
Cu1   Cu2   S    
C29   H25   S    
Cu2   O10   S    
C48   H68   S    
C26   H22   S    
C22   H58   S    
C37   C41   S    
C25   H21   S    
C32   C36   S    
C38   C42   S    
C27   H23   S    
C19   C36   S    
C8    H56   S    
C49   H45   S    
C5    C6    S    
Cu1   O1    S    
C26   C39   S    
C10   O12   A    
C13   H1    S    
Cu3   N4    S    
C28   C40   S    
C51   H47   S    
C32   H32   S    
Cu2   N1    S    
C21   H17   S    
C43   H38   S    
C47   H43   S    
C4    O8    A    
C42   H35   S    
C16   H4    S    
C7    N3    S    
C30   H27   S    
C6    N2    S    
Cu1   O11   S    
C16   C34   S    
C20   C24   S    
C29   C33   S    
C19   H7    S    
Cu3   O13   S    
C24   C38   S    
C16   H12   S    
C12   C36   S    
C12   O16   A    
C18   C35   S    
C15   C34   S    
C42   H36   S    
C3    O6    A    
C17   H5    S    
C50   H70   S    
C41   H34   S    
C46   H42   S    
C52   H72   S    
C31   H30   S    
C29   C43   S    
C9    C33   S    
C30   C44   S    
C14   H2    S    
C11   O13   A    
C21   H57   S    
C52   N4    S    
C6    H50   S    
C48   H44   S    
Cu3   O7    S    
C46   N2    S    
C51   C52   S    
C30   C34   S    
C24   H20   S    
C13   H9    S    
C45   C46   S    
C32   H31   S    
Cu2   O12   S    
C51   N3    S    
C25   H61   S    
C7    H53   S    
C4    O7    A    
Cu4   O6    S    
C20   H8    S    
C19   C23   S    
C13   C33   S    
C44   H40   S    
C8    H54   S    
C15   C27   S    
C47   C48   S    
C4    C39   S    
C51   H71   S    
C27   C40   S    
C15   H11   S    
C14   H10   S    
C49   H69   S    
C10   C34   S    
C1    O1    A    
C14   C26   S    
Cu4   O16   S    
Cu1   O9    S    
C1    C38   S    
C45   H65   S    
C49   N3    S    
C3    C40   S    
C50   H46   S    
Cu3   O15   S    
Cu2   O2    S    
C31   C35   S    
C22   H18   S    
C10   O11   A    
C11   O14   A    
Cu4   O8    S    
Cu1   N2    S    
C48   N2    S    
C5    H51   S    
C47   N1    S    
C52   H48   S    
C6    H52   S    
C31   C41   S    
C5    N1    S    
C18   C22   S    
C15   H3    S    
C18   H6    S    
C47   H67   S    
C23   H19   S    
C26   H62   S    
C39   C43   S    
C2    O3    A    
Cu1   O3    S    
C23   C38   S    
C9    O10   A    
C23   H59   S    
C11   C35   S    
C29   H26   S    
C44   H39   S    
C45   H41   S    
C25   C39   S    
C22   C37   S    
C2    C37   S    
C24   H60   S    
C43   H37   S    
Cu4   N3    S    
C7    H55   S    
C50   N4    S    
C1    O2    A    
C30   H28   S    
C28   H24   S    
C27   H63   S    
C8    N4    S    
C20   C36   S    
C9    O9    A    
C45   N1    S    
C40   C44   S    
C21   C37   S    
C49   C50   S    
C32   C42   S    
C20   H16   S    
C17   C35   S    
C2    O4    A    
Cu4   O14   S    
C3    O5    A    
C17   C21   S    
