data_mof_unit_24372.cif
_audit_creation_date              2013-03-05T15:44:36-0500
_audit_creation_method            fapswitch 2.2
_symmetry_space_group_name_H-M    P1
_symmetry_Int_Tables_number       1
_space_group_crystal_system       triclinic
_cell_length_a                    27.817529
_cell_length_b                    10.924983
_cell_length_c                    9.676024
_cell_angle_alpha                 90.037235
_cell_angle_beta                  89.894698
_cell_angle_gamma                 89.989269
_cell_volume                      2940.59641432

loop_
_atom_site_label
_atom_site_type_symbol
_atom_site_description
_atom_site_fract_x
_atom_site_fract_y
_atom_site_fract_z
_atom_type_partial_charge
O1    O     O_R   0.500010 0.321960 0.617040 -0.577497
O2    O     O_R   0.499990 0.321920 0.382900 -0.573802
C1    C     C_R   0.499419 0.265271 0.500018 0.854129
O3    O     O_R   0.430270 0.500040 0.617060 -0.579030
O4    O     O_R   0.430260 0.500000 0.382910 -0.579507
C2    C     C_R   0.407449 0.499816 0.500130 0.801661
Cu1   Cu    Cu3+1 0.500010 0.500020 0.638630 0.941937
Cu2   Cu    Cu3+1 0.499990 0.499980 0.361370 0.954295
O5    O     O_R   0.500010 0.678080 0.617100 -0.578917
O6    O     O_R   0.499990 0.678040 0.382960 -0.575939
O7    O     O_R   0.569740 0.500000 0.617090 -0.584920
O8    O     O_R   0.569730 0.499960 0.382940 -0.562440
C3    C     C_R   0.500772 0.734709 0.500094 0.849288
C4    C     C_R   0.592533 0.502867 0.499738 0.793019
C5    C     C_R   0.178150 0.389321 0.504920 0.534972
O9    O     O_2   0.202980 0.283156 0.505280 -0.530042
N1    N     N_R   0.202260 0.498263 0.502927 -0.471245
C6    C     C_R   0.178352 0.607521 0.502427 0.535874
C7    C     C_R   0.278676 0.505224 0.376690 -0.105522
C8    C     C_R   0.328814 0.505597 0.375798 -0.211095
C9    C     C_R   0.329073 0.491886 0.626167 -0.210659
C10   C     C_R   0.278953 0.491204 0.626648 -0.105941
C11   C     C_R   0.253704 0.498014 0.502036 0.366627
C12   C     C_R   0.102144 0.498945 0.506090 -0.043768
C13   C     C_R   0.127679 0.387592 0.506293 -0.021438
C14   C     C_R   0.102457 0.277223 0.508622 -0.144533
C15   C     C_R   0.127897 0.609938 0.504239 -0.021933
C16   C     C_R   0.354492 0.499135 0.500652 -0.039817
H1    H     H_    0.347847 0.486565 0.723930 0.157489
H2    H     H_    0.259676 0.485670 0.723769 0.135352
H3    H     H_    0.121259 0.190353 0.510527 0.187207
C17   C     C_R   0.645595 0.506982 0.499527 -0.080074
C18   C     C_R   0.974529 0.386972 0.501719 0.043289
C19   C     C_R   0.974832 0.612821 0.517442 0.043382
C20   C     C_R   0.949437 0.500121 0.509856 0.067707
C21   C     C_R   0.947354 0.277969 0.488627 -0.203893
C22   C     C_R   0.897443 0.279809 0.487631 -0.144957
C23   C     C_R   0.872483 0.390175 0.499054 -0.021642
C24   C     C_R   0.898295 0.500618 0.510134 -0.044028
C25   C     C_R   0.872821 0.611603 0.521186 -0.021484
C26   C     C_R   0.822363 0.610172 0.520384 0.536472
N2    N     N_R   0.798100 0.501836 0.508445 -0.465597
C27   C     C_R   0.822011 0.392829 0.498190 0.535683
C28   C     C_R   0.720293 0.457988 0.617289 -0.103037
C29   C     C_R   0.670266 0.460027 0.614614 -0.240026
C30   C     C_R   0.672310 0.554467 0.386272 -0.041661
C31   C     C_R   0.722625 0.550563 0.390150 -0.143352
C32   C     C_R   0.746575 0.502850 0.505079 0.343877
O10   O     O_2   0.797001 0.287519 0.485866 -0.533985
C33   C     C_R   0.025634 0.386383 0.505790 0.043306
C34   C     C_R   0.051009 0.499312 0.507680 0.067519
C35   C     C_R   0.025900 0.612617 0.511030 0.043357
C36   C     C_R   0.052540 0.276337 0.508664 -0.203667
H4    H     H_    0.650811 0.423173 0.702270 0.159436
H5    H     H_    0.738720 0.421488 0.706731 0.143861
H6    H     H_    0.878438 0.193705 0.477326 0.187500
H7    H     H_    0.963421 0.188998 0.476361 0.136254
H8    H     H_    0.036255 0.187086 0.513209 0.135666
O11   O     O_2   0.203377 0.713359 0.500611 -0.528688
C37   C     C_R   0.102904 0.720670 0.503575 -0.144337
H9    H     H_    0.347399 0.511276 0.277568 0.159309
H10   H     H_    0.259178 0.510549 0.280124 0.135700
H11   H     H_    0.121868 0.807272 0.500500 0.187419
C38   C     C_R   0.947989 0.722252 0.531929 -0.204155
C39   C     C_R   0.898088 0.721396 0.533348 -0.144751
O12   O     O_2   0.797686 0.716107 0.532047 -0.533964
C40   C     C_R   0.053009 0.722275 0.506596 -0.203633
H12   H     H_    0.964324 0.810828 0.544661 0.136256
H13   H     H_    0.879335 0.807854 0.544075 0.187355
H14   H     H_    0.743438 0.586538 0.304512 0.145233
H15   H     H_    0.036889 0.811760 0.502888 0.135765
C41   C     C_2   0.498787 0.932908 0.386525 -0.162598
C42   C     C_2   0.503623 0.866672 0.502134 -0.315606
H16   H     H_    0.493563 0.888112 0.287413 0.164728
H17   H     H_    0.510795 0.907844 0.601708 0.147699
C43   C     C_2   0.501127 0.066854 0.386356 -0.152792
C44   C     C_2   0.496933 0.133251 0.502199 -0.308772
H18   H     H_    0.505529 0.111510 0.286845 0.165662
H19   H     H_    0.490457 0.092137 0.602209 0.148071
C45   C     C_2   0.471474 0.431548 0.922159 -0.063210
N3    N     N_2   0.499480 0.498660 0.846910 -0.281656
H20   H     H_    0.445668 0.372753 0.870712 0.151099
H21   H     H_    0.525193 0.551406 0.893907 0.193666
C46   C     C_2   0.472702 0.428329 0.077955 -0.071820
N4    N     N_2   0.499460 0.498630 0.153040 -0.278799
H22   H     H_    0.449211 0.363550 0.129556 0.152244
H23   H     H_    0.520573 0.563253 0.105921 0.205718
C47   C     C_R   0.649241 0.612935 0.265282 0.126378
C48   C     C_R   0.621773 0.719986 0.281695 -0.080067
C49   C     C_R   0.599967 0.774672 0.167205 -0.121989
C50   C     C_R   0.605537 0.723284 0.035808 -0.149287
C51   C     C_R   0.633086 0.617337 0.018554 -0.140174
C52   C     C_R   0.655079 0.562514 0.132699 -0.133363
H24   H     H_    0.617169 0.760630 0.383018 0.111399
H25   H     H_    0.578777 0.856962 0.180307 0.128645
H26   H     H_    0.588497 0.765506 0.947376 0.132547
H27   H     H_    0.637355 0.577664 0.916725 0.139554
H28   H     H_    0.676236 0.480243 0.118103 0.131504

loop_
_geom_bond_atom_site_label_1
_geom_bond_atom_site_label_2
_geom_bond_distance
_ccdc_geom_bond_type
C41   H16   1.086395 S    
C26   N2    1.367531 A    
C20   C24   1.422634 A    
C7    C8    1.394738 A    
C12   C15   1.408626 A    
C45   C46   1.508365 S    
C49   H25   1.082180 S    
Cu1   O7    1.950498 S    
N1    C11   1.431060 S    
C37   H11   1.083751 S    
C38   H12   1.076241 S    
C21   C22   1.388596 A    
C43   H18   1.086426 S    
Cu2   N4    2.015932 S    
C15   C37   1.395204 A    
C23   C24   1.408320 A    
C45   N3    1.293627 D    
O7    C4    1.299906 A    
C5    C13   1.404150 A    
C7    H10   1.082836 S    
C5    O9    1.349835 S    
C48   H24   1.083384 S    
C18   C21   1.416372 A    
C5    N1    1.366393 A    
C19   C20   1.421542 A    
C17   C29   1.406290 A    
C8    H9    1.082961 S    
O5    C3    1.290656 A    
C50   H26   1.082377 S    
C47   C52   1.404939 A    
C22   H6    1.083791 S    
C46   N4    1.293533 D    
C2    C16   1.473152 S    
C37   C40   1.388325 A    
C41   C43   1.464825 S    
C12   C34   1.422526 A    
C44   H19   1.081947 S    
C14   H3    1.083731 S    
C9    C10   1.394216 A    
C42   H17   1.081944 S    
O3    Cu1   1.951573 S    
N3    H21   1.025426 S    
C51   H27   1.082485 S    
C33   C34   1.421645 A    
C30   C47   1.481195 S    
N4    H23   1.025104 S    
C33   C36   1.416377 A    
C34   C35   1.421520 A    
Cu1   Cu2   2.682775 S    
C12   C13   1.408602 A    
C45   H20   1.084805 S    
C21   H7    1.076167 S    
C4    C17   1.476758 S    
C50   C51   1.397801 A    
C27   O10   1.349940 S    
C8    C16   1.406389 A    
C18   C33   1.422238 A    
C9    H1    1.082980 S    
O1    C1    1.290394 A    
C7    C11   1.398856 A    
C31   H14   1.084012 S    
C22   C23   1.395463 A    
C31   C32   1.398426 A    
Cu2   O8    1.951568 S    
C19   C38   1.416182 A    
N1    C6    1.366322 A    
N2    C32   1.433780 S    
C43   C44   1.339637 D    
C35   C40   1.416340 A    
O3    C2    1.298365 A    
C25   C26   1.403751 A    
Cu1   N3    2.015413 S    
C9    C16   1.406488 A    
O8    C4    1.297381 A    
C29   H4    1.083150 S    
C25   C39   1.395373 A    
N2    C27   1.367411 A    
C1    C44   1.444151 S    
C14   C36   1.388619 A    
C24   C25   1.408185 A    
C28   C29   1.392073 A    
Cu1   O5    1.956561 S    
C30   C31   1.400842 A    
C10   H2    1.082861 S    
O1    Cu1   1.956353 S    
C17   C30   1.421326 A    
O2    Cu2   1.956561 S    
C6    C15   1.403860 A    
C3    C42   1.444014 S    
C41   C42   1.339636 D    
O6    C3    1.291331 A    
O4    Cu2   1.950501 S    
C36   H8    1.076127 S    
C26   O12   1.350053 S    
C19   C35   1.421824 A    
C38   C39   1.388201 A    
O2    C1    1.291642 A    
C13   C14   1.395333 A    
C23   C27   1.404349 A    
C28   H5    1.082943 S    
C49   C50   1.397851 A    
O4    C2    1.298649 A    
C39   H13   1.083779 S    
C51   C52   1.398587 A    
C18   C20   1.421563 A    
C40   H15   1.076123 S    
C6    O11   1.349885 S    
C47   C48   1.405656 A    
Cu2   O6    1.956352 S    
C10   C11   1.398532 A    
C46   H22   1.084719 S    
C48   C49   1.398323 A    
C52   H28   1.083293 S    
C28   C32   1.396940 A    
