data_mof_unit_8493.cif
_audit_creation_date              2012-12-10T16:50:15-0500
_audit_creation_method            fapswitch 2.2
_symmetry_space_group_name_H-M    P1
_symmetry_Int_Tables_number       1
_space_group_crystal_system       triclinic
_cell_length_a                    23.489033
_cell_length_b                    8.657222
_cell_length_c                    7.503782
_cell_angle_alpha                 102.854741
_cell_angle_beta                  95.055427
_cell_angle_gamma                 93.150535
_cell_volume                      1477.48786699

loop_
_atom_site_label
_atom_site_type_symbol
_atom_type_description
_atom_site_fract_x
_atom_site_fract_y
_atom_site_fract_z
_atom_type_partial_charge
C1    C     C_R   0.498165 0.199896 0.453327 0.860228
C2    C     C_R   0.501800 0.800100 0.546674 0.859742
C3    C     C_R   0.239904 0.588040 0.377457 -0.196418
C4    C     C_R   0.754682 0.496730 0.324661 -0.170268
C5    C     C_R   0.299100 0.583858 0.380822 -0.229560
C6    C     C_R   0.695608 0.492946 0.329089 -0.215189
C7    C     C_R   0.329184 0.507594 0.501855 -0.078355
C8    C     C_R   0.671559 0.498781 0.495045 -0.092653
C9    C     C_R   0.299454 0.435357 0.619423 -0.300038
C10   C     C_R   0.707828 0.504192 0.656185 -0.293508
C11   C     C_R   0.239749 0.438626 0.616117 0.552581
C12   C     C_R   0.767295 0.502993 0.651044 0.539440
C13   C     C_R   0.209981 0.513455 0.492217 0.241479
C14   C     C_R   0.790708 0.502745 0.484876 0.246514
C15   C     C_2   0.497221 0.031756 0.427294 -0.359016
C16   C     C_2   0.502694 0.968232 0.572709 -0.358205
C17   C     C_R   0.391261 0.500923 0.500954 0.793563
C18   C     C_R   0.608974 0.499712 0.498806 0.796718
C19   C     C_R   0.883786 0.646061 0.545504 0.694620
C20   C     C_R   0.116266 0.377553 0.397924 0.672357
C21   C     C_R   0.874982 0.370501 0.398871 0.579738
C22   C     C_R   0.124959 0.650673 0.554386 0.616003
C23   C     C_R   0.934747 0.369182 0.387912 -0.127641
C24   C     C_R   0.064774 0.656821 0.542235 -0.138526
C25   C     C_R   0.969532 0.512564 0.463362 -0.106900
C26   C     C_R   0.029983 0.513947 0.464333 -0.110528
C27   C     C_R   0.943833 0.654403 0.538834 -0.148468
C28   C     C_R   0.055746 0.372351 0.388468 -0.141833
C29   C     C_R   0.960642 0.230215 0.304994 0.378633
C30   C     C_R   0.038504 0.800097 0.604913 0.386459
C31   C     C_R   0.020442 0.231644 0.305650 0.384835
C32   C     C_R   0.978701 0.798916 0.603586 0.383927
Cu1   Cu    Cu3+1 0.506340 0.517380 0.684380 1.026669
Cu2   Cu    Cu3+1 0.493660 0.482620 0.315620 1.025040
H1    H     H_    0.217001 0.647466 0.283857 0.170898
H2    H     H_    0.772633 0.495550 0.196561 0.180204
H3    H     H_    0.321460 0.640692 0.289389 0.162962
H4    H     H_    0.668889 0.486319 0.202463 0.161053
H5    H     H_    0.322156 0.372235 0.708951 0.148409
H6    H     H_    0.690350 0.508424 0.785792 0.156922
H7    H     H_    0.492014 0.960008 0.287311 0.206942
H8    H     H_    0.507895 0.039980 0.712694 0.206826
N1    N     N_R   0.851562 0.506410 0.477236 -0.472828
N2    N     N_R   0.148713 0.513708 0.481916 -0.475517
N3    N     N_2   0.484110 0.456420 0.038520 0.156056
N4    N     N_2   0.515890 0.543580 0.961480 0.155255
O1    O     O_R   0.504120 0.286130 0.619770 -0.531517
O2    O     O_R   0.495880 0.713870 0.380230 -0.532021
O3    O     O_R   0.493410 0.256770 0.308360 -0.592352
O4    O     O_R   0.506590 0.743230 0.691640 -0.591345
O5    O     O_R   0.423230 0.514630 0.655730 -0.562847
O6    O     O_R   0.576770 0.485370 0.344270 -0.567601
O7    O     O_R   0.412530 0.485280 0.344320 -0.620152
O8    O     O_R   0.587470 0.514720 0.655680 -0.619929
O9    O     O_2   0.857036 0.774894 0.620487 -0.422335
O10   O     O_2   0.143349 0.248683 0.325255 -0.427932
O11   O     O_2   0.839871 0.237472 0.335460 -0.470343
O12   O     O_2   0.160192 0.778442 0.641086 -0.448209
Cl1   Cl    Cl    0.919941 0.049715 0.193719 -0.383892
Cl2   Cl    Cl    0.078574 0.987546 0.679385 -0.365867
Cl3   Cl    Cl    0.048826 0.051563 0.199159 -0.387125
Cl4   Cl    Cl    0.949594 0.984701 0.680983 -0.406480
O13   O     O_3   0.209573 0.357915 0.721821 -0.529603
C33   C     C_3   0.217971 0.444157 0.906080 -0.239949
H9    H     H_    0.205108 0.567898 0.919969 0.163355
H10   H     H_    0.263152 0.444879 0.964972 0.135634
H11   H     H_    0.190440 0.385106 0.988010 0.232193
O14   O     O_3   0.802835 0.511706 0.810329 -0.574492
C34   C     C_3   0.807511 0.356431 0.836515 -0.230869
H12   H     H_    0.825193 0.278703 0.718574 0.213588
H13   H     H_    0.765463 0.302983 0.860297 0.152007
H14   H     H_    0.837752 0.362374 0.960516 0.214837
O15   O     O_3   0.461571 0.320210 0.924090 -0.486548
C35   C     C_3   0.406420 0.287212 0.971306 -0.117272
H15   H     H_    0.381659 0.394709 0.995417 0.133147
H16   H     H_    0.408242 0.232245 0.091220 0.172991
H17   H     H_    0.382771 0.198859 0.854588 0.130074
O16   O     O_3   0.538086 0.680243 0.075823 -0.486736
C36   C     C_3   0.593258 0.714293 0.029406 -0.110446
H18   H     H_    0.591424 0.773576 0.912914 0.168510
H19   H     H_    0.617664 0.606718 0.999815 0.125778
H20   H     H_    0.617370 0.798558 0.148863 0.135126

loop_
_geom_bond_atom_site_label_1
_geom_bond_atom_site_label_2
_ccdc_geom_bond_type
C4    H2    S    
C5    H3    S    
O15   C35   S    
C31   Cl3   S    
C20   O10   S    
C17   O5    A    
C18   O6    A    
N3    N4    D    
C12   O14   S    
C35   H16   S    
C23   C29   A    
C10   H6    S    
C24   C26   A    
C11   O13   S    
C15   C16   D    
C9    H5    S    
N3    O15   S    
C34   H13   S    
C2    O4    A    
C21   N1    A    
C22   N2    A    
C29   Cl1   S    
O14   C34   S    
C7    C17   S    
C35   H17   S    
C30   Cl2   S    
C6    H4    S    
C1    C15   S    
C19   C27   A    
C3    C13   A    
Cu1   N4    S    
C20   N2    A    
C19   N1    A    
C5    C7    A    
C35   H15   S    
C33   H11   S    
C15   H7    S    
C4    C6    A    
N4    O16   S    
O16   C36   S    
C1    O1    A    
C6    C8    A    
C20   C28   A    
C2    O2    A    
C25   C26   A    
C8    C18   S    
O13   C33   S    
C33   H10   S    
C34   H14   S    
C21   O11   S    
C3    H1    S    
Cu1   Cu2   S    
Cu2   N3    S    
C9    C11   A    
C10   C12   A    
C12   C14   A    
C21   C23   A    
Cu1   O1    S    
C22   C24   A    
C25   C27   A    
C17   O7    A    
C2    C16   S    
C36   H19   S    
C19   O9    S    
Cu1   O8    S    
C7    C9    A    
Cu2   O3    S    
C27   C32   A    
C16   H8    S    
Cu2   O6    S    
C28   C31   A    
C3    C5    A    
C22   O12   S    
C36   H20   S    
Cu1   O5    S    
C26   C28   A    
C33   H9    S    
Cu1   O4    S    
C32   Cl4   S    
C29   C31   A    
C30   C32   A    
C11   C13   A    
C23   C25   A    
C4    C14   A    
C34   H12   S    
C24   C30   A    
C18   O8    A    
C36   H18   S    
Cu2   O2    S    
Cu2   O7    S    
C8    C10   A    
C1    O3    A    
C13   N2    S    
C14   N1    S    
