data_mof_unit_25954.cif
_audit_creation_date              2013-03-05T15:49:13-0500
_audit_creation_method            fapswitch 2.2
_symmetry_space_group_name_H-M    P1
_symmetry_Int_Tables_number       1
_space_group_crystal_system       triclinic
_cell_length_a                    15.846309
_cell_length_b                    12.978691
_cell_length_c                    11.746551
_cell_angle_alpha                 99.314843
_cell_angle_beta                  92.541987
_cell_angle_gamma                 91.525607
_cell_volume                      2380.2446741

loop_
_atom_site_label
_atom_site_type_symbol
_atom_site_description
_atom_site_fract_x
_atom_site_fract_y
_atom_site_fract_z
_atom_type_partial_charge
O1    O     O_R   0.504400 0.354460 0.582000 -0.568210
O2    O     O_R   0.495600 0.645540 0.418000 -0.568092
O3    O     O_R   0.493920 0.341410 0.386200 -0.550939
O4    O     O_R   0.506080 0.658590 0.613800 -0.550955
C1    C     C_R   0.503033 0.299630 0.478836 0.842334
C2    C     C_R   0.496967 0.700370 0.521164 0.842414
O5    O     O_R   0.384320 0.506520 0.597880 -0.499267
O6    O     O_R   0.615680 0.493480 0.402120 -0.499209
O7    O     O_R   0.373840 0.493460 0.402080 -0.623740
O8    O     O_R   0.626160 0.506540 0.597920 -0.623731
C3    C     C_R   0.340008 0.499918 0.501231 0.839437
C4    C     C_R   0.659992 0.500082 0.498769 0.839519
Cu1   Cu    Cu3+1 0.506200 0.507730 0.615930 1.044013
Cu2   Cu    Cu3+1 0.493800 0.492270 0.384070 1.044043
C5    C     C_3   0.971771 0.423593 0.554187 0.102376
C6    C     C_3   0.028229 0.576408 0.445811 0.102376
C7    C     C_3   0.024453 0.407627 0.445598 0.103962
C8    C     C_3   0.975546 0.592375 0.554400 0.103962
H1    H     H_    0.941767 0.470550 0.298915 0.158238
H2    H     H_    0.058232 0.529451 0.701084 0.158223
C9    C     C_1   0.250453 0.500228 0.503720 -0.094726
C10   C     C_1   0.749547 0.499773 0.496279 -0.094737
C11   C     C_3   0.031153 0.516242 0.610907 -0.220010
C12   C     C_3   0.968847 0.483759 0.389092 -0.220009
C13   C     C_3   0.083100 0.500144 0.501436 0.060479
C14   C     C_3   0.916900 0.499858 0.498562 0.060479
C15   C     C_1   0.174911 0.500321 0.503701 -0.050264
C16   C     C_1   0.825089 0.499680 0.496298 -0.050251
C17   C     C_R   0.489732 0.813448 0.532840 -0.175638
C18   C     C_R   0.510266 0.186553 0.467159 -0.175630
C19   C     C_R   0.540834 0.017548 0.358482 -0.223289
C20   C     C_R   0.459164 0.982453 0.641516 -0.223246
C21   C     C_R   0.540991 0.126121 0.366983 0.322593
C22   C     C_R   0.459014 0.873880 0.633019 0.322560
C23   C     C_R   0.484661 0.137951 0.558485 -0.253213
C24   C     C_R   0.515330 0.862049 0.441508 -0.253187
C25   C     C_R   0.486212 0.030295 0.550495 0.091666
C26   C     C_R   0.513781 0.969705 0.449500 0.091650
H3    H     H_    0.537536 0.816237 0.364103 0.220861
H4    H     H_    0.462449 0.183764 0.635885 0.220921
H5    H     H_    0.564159 0.970706 0.282106 0.189410
H6    H     H_    0.435842 0.029295 0.717895 0.189458
N1    N     N_R   0.515540 0.519350 0.790140 -0.231982
N2    N     N_R   0.484460 0.480650 0.209860 -0.231930
C27   C     C_R   0.404910 0.425092 0.030410 -0.237333
C28   C     C_R   0.595087 0.574916 0.969591 -0.237413
C29   C     C_R   0.416095 0.429358 0.150103 0.027996
C30   C     C_R   0.583894 0.570664 0.849901 0.028092
C31   C     C_R   0.545005 0.527191 0.151886 0.536872
C32   C     C_R   0.455011 0.472776 0.848107 0.536943
C33   C     C_R   0.535586 0.525662 0.030679 -0.069210
C34   C     C_R   0.464422 0.474320 0.969317 -0.069092
H7    H     H_    0.630545 0.608478 0.804714 0.148015
H8    H     H_    0.369432 0.391567 0.195293 0.148021
H9    H     H_    0.349586 0.383315 0.986691 0.200702
H10   H     H_    0.650400 0.616713 0.013315 0.200637
C35   C     C_3   0.058018 0.306936 0.379082 -0.416521
C36   C     C_3   0.986517 0.228660 0.329088 -0.333501
C37   C     C_3   0.021302 0.130845 0.259253 -0.818835
H11   H     H_    0.056407 0.151425 0.185823 0.257184
H12   H     H_    0.064204 0.091726 0.314950 0.252945
H13   H     H_    0.968278 0.075420 0.224380 0.248738
H14   H     H_    0.950417 0.204955 0.399862 0.225949
H15   H     H_    0.942629 0.265189 0.272107 0.234159
H16   H     H_    0.095085 0.327812 0.307453 0.202191
H17   H     H_    0.101548 0.271333 0.437142 0.198977
C38   C     C_3   0.941982 0.693066 0.620916 -0.416514
C39   C     C_3   0.013483 0.771341 0.670912 -0.333508
C40   C     C_3   0.978698 0.869156 0.740745 -0.818832
H18   H     H_    0.935797 0.908276 0.685047 0.252946
H19   H     H_    0.943591 0.848577 0.814174 0.257182
H20   H     H_    0.031722 0.924581 0.775619 0.248739
H21   H     H_    0.057369 0.734811 0.727894 0.234152
H22   H     H_    0.049584 0.795045 0.600138 0.225950
H23   H     H_    0.898453 0.728669 0.562856 0.198981
H24   H     H_    0.904914 0.672189 0.692544 0.202192
C41   C     C_3   0.934248 0.342387 0.620493 -0.411024
C42   C     C_3   0.002691 0.278789 0.670302 -0.339076
C43   C     C_3   0.964154 0.201444 0.739993 -0.815912
H25   H     H_    0.930485 0.243589 0.813558 0.260341
H26   H     H_    0.919142 0.145980 0.684246 0.253856
H27   H     H_    0.015011 0.156218 0.774654 0.246208
H28   H     H_    0.037277 0.234293 0.599431 0.225507
H29   H     H_    0.048559 0.332074 0.727337 0.234911
H30   H     H_    0.898553 0.384282 0.692203 0.204936
H31   H     H_    0.888798 0.289714 0.562332 0.200508
C44   C     C_3   0.065752 0.657615 0.379506 -0.411027
C45   C     C_3   0.997309 0.721213 0.329696 -0.339071
C46   C     C_3   0.035846 0.798557 0.260005 -0.815929
H32   H     H_    0.080859 0.854022 0.315752 0.253857
H33   H     H_    0.069515 0.756413 0.186440 0.260335
H34   H     H_    0.984989 0.843784 0.225344 0.246206
H35   H     H_    0.951442 0.667927 0.272661 0.234916
H36   H     H_    0.962723 0.765709 0.400567 0.225506
H37   H     H_    0.111202 0.710287 0.437667 0.200506
H38   H     H_    0.101446 0.615719 0.307795 0.204929
N3    N     N_R   0.423538 0.826725 0.723447 0.132173
O9    O     O_R   0.437035 0.870308 0.830755 -0.333123
O10   O     O_R   0.365975 0.752106 0.698167 -0.350329
N4    N     N_R   0.576481 0.173277 0.276565 0.132178
O11   O     O_R   0.563017 0.129680 0.169257 -0.333110
O12   O     O_R   0.634031 0.247910 0.301861 -0.350329
N5    N     N_R   0.380630 0.424300 0.787014 0.120203
O13   O     O_R   0.379661 0.325278 0.745173 -0.407175
O14   O     O_R   0.309221 0.471119 0.799430 -0.364815
N6    N     N_R   0.619422 0.575584 0.212962 0.120221
O15   O     O_R   0.620368 0.674515 0.255235 -0.407023
O16   O     O_R   0.690837 0.528811 0.200332 -0.364882

loop_
_geom_bond_atom_site_label_1
_geom_bond_atom_site_label_2
_geom_bond_distance
_ccdc_geom_bond_type
N2    C31   1.381793 A    
C37   H11   1.110862 S    
C44   C45   1.532201 S    
C8    C14   1.538575 S    
C35   H17   1.109823 S    
N3    O9    1.301300 A    
C41   C42   1.532202 S    
O5    C3    1.297645 A    
C17   C24   1.399080 A    
C18   C23   1.399070 A    
O1    C1    1.301179 A    
C23   C25   1.386091 A    
C12   C14   1.546239 S    
N6    O15   1.298988 A    
C39   H22   1.108444 S    
C4    C10   1.420812 S    
C36   H14   1.108443 S    
C22   N3    1.436654 S    
O4    Cu1   1.962219 S    
C40   H19   1.110863 S    
C42   H28   1.108426 S    
C39   C40   1.525992 S    
C31   C33   1.421837 A    
C44   H37   1.109840 S    
C6    C44   1.531162 S    
C32   C34   1.421830 A    
C19   C21   1.396386 A    
C46   H33   1.110860 S    
N1    C30   1.361011 A    
N2    C29   1.361011 A    
C39   H21   1.111499 S    
C5    C11   1.549214 S    
C9    C15   1.197082 T    
C41   H30   1.111540 S    
C32   N5    1.428082 S    
C6    C12   1.549213 S    
C10   C16   1.197082 T    
Cu1   Cu2   2.696322 S    
O2    C2    1.301181 A    
N3    O10   1.301517 A    
C28   C30   1.401229 A    
C27   C29   1.401226 A    
C36   H15   1.111497 S    
C30   H7    1.081159 S    
C45   H36   1.108427 S    
C37   H12   1.111064 S    
C7    C12   1.549241 S    
C38   C39   1.532076 S    
O4    C2    1.296234 A    
C43   H26   1.111038 S    
C42   C43   1.525935 S    
C5    C14   1.538660 S    
C27   C34   1.410294 A    
C36   C37   1.525993 S    
C28   C33   1.410305 A    
C3    C9    1.420814 S    
C8    C11   1.549242 S    
C20   C22   1.396384 A    
C40   H20   1.110471 S    
O7    Cu2   1.922154 S    
C25   C26   1.406743 A    
H2    C11   1.110206 S    
O6    C4    1.297642 A    
C44   H38   1.111541 S    
N4    O12   1.301515 A    
N5    O14   1.301360 A    
C20   C25   1.397788 A    
C46   H34   1.110510 S    
O7    C3    1.295029 A    
O3    Cu2   1.962222 S    
O8    C4    1.295028 A    
C29   H8    1.081157 S    
C41   H31   1.109841 S    
O1    Cu1   1.963689 S    
Cu1   N1    2.025909 S    
Cu2   N2    2.025909 S    
C1    C18   1.459787 S    
C6    C13   1.538659 S    
C5    C7    1.544340 S    
C45   H35   1.111513 S    
C37   H13   1.110471 S    
O6    Cu2   1.932950 S    
C19   H5    1.084405 S    
C18   C21   1.417482 A    
C24   H3    1.081009 S    
C35   H16   1.111546 S    
O3    C1    1.296228 A    
O8    Cu1   1.922157 S    
C43   H27   1.110509 S    
N1    C32   1.381777 A    
C31   N6    1.428077 S    
C13   C15   1.453875 S    
C14   C16   1.453875 S    
C19   C26   1.397784 A    
C21   N4    1.436666 S    
C7    C13   1.538576 S    
C24   C26   1.386092 A    
C23   H4    1.080999 S    
C8    C38   1.531189 S    
C33   C34   1.402739 A    
C35   C36   1.532077 S    
C5    C41   1.531160 S    
N6    O16   1.301354 A    
C17   C22   1.417482 A    
N4    O11   1.301298 A    
H1    C12   1.110206 S    
C11   C13   1.546239 S    
C40   H18   1.111065 S    
O2    Cu2   1.963687 S    
C43   H25   1.110858 S    
C42   H29   1.111514 S    
O5    Cu1   1.932947 S    
C2    C17   1.459793 S    
C38   H23   1.109822 S    
C45   C46   1.525934 S    
C27   H9    1.082077 S    
C6    C8    1.544341 S    
C28   H10   1.082073 S    
N5    O13   1.298951 A    
C20   H6    1.084405 S    
C38   H24   1.111546 S    
C46   H32   1.111038 S    
C7    C35   1.531189 S    
