data_mof_unit_54128.cif
_audit_creation_date              2012-12-10T18:59:17-0500
_audit_creation_method            fapswitch 2.2
_symmetry_space_group_name_H-M    P1
_symmetry_Int_Tables_number       1
_space_group_crystal_system       triclinic
_cell_length_a                    10.856079
_cell_length_b                    10.857827
_cell_length_c                    9.571586
_cell_angle_alpha                 90.176282
_cell_angle_beta                  90.959654
_cell_angle_gamma                 90.90682
_cell_volume                      1127.92981351

loop_
_atom_site_label
_atom_site_type_symbol
_atom_type_description
_atom_site_fract_x
_atom_site_fract_y
_atom_site_fract_z
_atom_type_partial_charge
C1    C     C_R   0.499452 0.262214 0.499437 0.883629
C2    C     C_R   0.064376 0.525773 0.628707 0.060171
C3    C     C_R   0.127680 0.515348 0.501014 -0.098921
C4    C     C_R   0.061255 0.490539 0.377459 -0.150575
C5    C     C_R   0.934451 0.476172 0.380175 -0.149459
C6    C     C_R   0.872399 0.474167 0.507633 -0.067505
C7    C     C_R   0.515955 0.063307 0.620207 0.067991
C8    C     C_R   0.491592 0.128457 0.498090 -0.061742
C9    C     C_R   0.452987 0.062809 0.377779 -0.126891
C10   C     C_R   0.448942 0.934052 0.378935 -0.133186
C11   C     C_R   0.481416 0.870022 0.501251 -0.054366
C12   C     C_R   0.262446 0.508679 0.499609 0.814668
C13   C     C_R   0.504263 0.936470 0.624254 0.045050
C14   C     C_3   0.610841 0.924359 0.722787 -0.481739
C15   C     C_3   0.632023 0.061345 0.706819 0.274407
C16   C     C_R   0.554640 0.594291 0.075024 0.146805
C17   C     C_R   0.426905 0.419833 0.072735 0.374527
C18   C     C_R   0.427934 0.418757 0.924023 0.406656
C19   C     C_R   0.552901 0.595619 0.928134 0.104441
C20   C     C_3   0.683053 0.640604 0.925406 -0.485834
C21   C     C_3   0.685424 0.636520 0.083946 0.214749
C22   C     C_R   0.495152 0.737318 0.500093 0.801165
C23   C     C_R   0.737473 0.488162 0.502053 0.846496
C24   C     C_R   0.119845 0.576262 0.751358 -0.110740
C25   C     C_R   0.069916 0.552759 0.881390 -0.149244
C26   C     C_R   0.965590 0.478169 0.890405 -0.158306
C27   C     C_R   0.901119 0.440927 0.769125 0.386998
C28   C     C_R   0.942550 0.479557 0.635307 0.027301
Cu1   Cu    Cu3+1 0.499990 0.499980 0.640670 1.036634
Cu2   Cu    Cu3+1 0.500010 0.500020 0.359330 1.034975
H1    H     H_    0.106964 0.483519 0.278073 0.191181
H2    H     H_    0.685268 0.866134 0.680978 0.231004
H3    H     H_    0.626003 0.113592 0.806356 0.181815
H4    H     H_    0.743097 0.573501 0.877575 0.204872
H5    H     H_    0.693380 0.734191 0.882224 0.219416
H6    H     H_    0.748335 0.566272 0.127331 0.119881
H7    H     H_    0.202310 0.633306 0.748042 0.156387
H8    H     H_    0.115796 0.586927 0.975389 0.159590
H9    H     H_    0.933358 0.450760 0.992368 0.163504
H10   H     H_    0.885111 0.465717 0.281648 0.155788
H11   H     H_    0.430620 0.110031 0.281700 0.215766
H12   H     H_    0.425421 0.885055 0.283170 0.182186
H13   H     H_    0.579160 0.899516 0.828978 0.194111
N1    N     N_R   0.500790 0.500930 0.147930 -0.265725
N2    N     N_R   0.500790 0.500890 0.852020 -0.225120
O1    O     O_R   0.500000 0.319640 0.618810 -0.517499
O2    O     O_R   0.500010 0.319680 0.381230 -0.549078
O3    O     O_R   0.319640 0.499980 0.618820 -0.557816
O4    O     O_R   0.319650 0.500020 0.381230 -0.552783
O5    O     O_R   0.499990 0.680320 0.618770 -0.594819
O6    O     O_R   0.500000 0.680360 0.381190 -0.554040
O7    O     O_R   0.680350 0.499980 0.618770 -0.553718
O8    O     O_R   0.680360 0.500020 0.381180 -0.586269
Cl1   Cl    Cl    0.766245 0.091289 0.604462 -0.498207
Cl2   Cl    Cl    0.324225 0.319209 0.158014 -0.558294
Cl3   Cl    Cl    0.330194 0.312490 0.834915 -0.510202
Cl4   Cl    Cl    0.701041 0.785380 0.162397 -0.567772
Cl5   Cl    Cl    0.783219 0.331218 0.795231 -0.582313

loop_
_geom_bond_atom_site_label_1
_geom_bond_atom_site_label_2
_ccdc_geom_bond_type
Cu2   O6    S    
C15   Cl1   S    
C21   Cl4   S    
Cu1   Cu2   S    
C25   H8    S    
C10   H12   S    
C1    C8    S    
C9    C10   A    
C16   N1    A    
C11   C22   S    
C9    H11   S    
C19   C20   S    
C18   Cl3   S    
Cu1   O1    S    
C22   O5    A    
C20   H4    S    
C7    C15   S    
C12   O4    A    
C23   O7    A    
C17   N1    A    
C7    C8    A    
C21   H6    S    
C13   C14   S    
C20   C21   S    
C4    C5    A    
C11   C13   A    
Cu2   N1    S    
C26   C27   A    
C16   C21   S    
C27   Cl5   S    
C16   C19   A    
C6    C23   S    
C12   O3    A    
C23   O8    A    
C2    C3    A    
Cu1   O5    S    
C2    C24   A    
C5    C6    A    
C26   H9    S    
Cu2   O8    S    
C6    C28   A    
C1    O1    A    
C22   O6    A    
C4    H1    S    
C10   C11   A    
Cu1   O3    S    
Cu2   O4    S    
C3    C4    A    
C18   N2    A    
Cu2   O2    S    
C7    C13   A    
C24   C25   A    
C17   C18   A    
C5    H10   S    
Cu1   N2    S    
C27   C28   A    
C24   H7    S    
C17   Cl2   S    
C14   C15   S    
C8    C9    A    
C2    C28   A    
C3    C12   S    
C25   C26   A    
C20   H5    S    
C15   H3    S    
C1    O2    A    
C19   N2    A    
C14   H2    S    
C14   H13   S    
Cu1   O7    S    
