data_mof_unit_36668.cif
_audit_creation_date              2012-12-10T19:00:12-0500
_audit_creation_method            fapswitch 2.2
_symmetry_space_group_name_H-M    P1
_symmetry_Int_Tables_number       1
_space_group_crystal_system       triclinic
_cell_length_a                    9.564291
_cell_length_b                    10.828613
_cell_length_c                    13.491595
_cell_angle_alpha                 90.214544
_cell_angle_beta                  73.238026
_cell_angle_gamma                 89.805668
_cell_volume                      1337.90399821

loop_
_atom_site_label
_atom_site_type_symbol
_atom_type_description
_atom_site_fract_x
_atom_site_fract_y
_atom_site_fract_z
_atom_type_partial_charge
C1    C     C_R   0.500729 0.737656 0.497856 0.792436
C2    C     C_R   0.443969 0.556953 0.976146 0.079475
C3    C     C_R   0.489220 0.558167 0.866453 0.063658
C4    C     C_R   0.551166 0.538740 0.029398 0.022419
C5    C     C_R   0.700700 0.526993 0.972203 0.169603
C6    C     C_R   0.744040 0.552279 0.866382 0.106334
C7    C     C_R   0.638871 0.574818 0.816282 -0.249329
C8    C     C_R   0.514332 0.527539 0.137320 -0.236153
C9    C     C_R   0.765739 0.484015 0.129345 -0.222743
C10   C     C_R   0.383097 0.545451 0.811261 -0.102443
C11   C     C_R   0.384221 0.937051 0.478366 0.147260
C12   C     C_R   0.423604 0.514257 0.699037 0.787839
C13   C     C_R   0.505647 0.870756 0.487146 -0.123207
C14   C     C_R   0.635634 0.935083 0.480579 -0.215440
C15   C     C_R   0.635966 0.063835 0.480775 -0.220802
C16   C     C_R   0.506135 0.129304 0.488114 -0.091103
C17   C     C_R   0.384131 0.064293 0.480280 0.071031
C18   C     C_3   0.228210 0.072585 0.544185 -0.510805
C19   C     C_3   0.227131 0.931848 0.541014 -0.048653
C20   C     C_R   0.941851 0.400424 0.462894 0.255937
C21   C     C_R   0.907317 0.593262 0.544743 -0.095060
C22   C     C_R   0.055404 0.592379 0.545946 -0.062610
C23   C     C_R   0.500995 0.262403 0.498307 0.815312
C24   C     C_R   0.089256 0.400716 0.462465 0.252707
C25   C     C_3   0.138616 0.349714 0.355146 -0.495661
C26   C     C_3   0.979698 0.349003 0.355743 -0.509085
C27   C     C_R   0.577510 0.499451 0.300454 0.800859
C28   C     C_R   0.804837 0.494002 0.022381 -0.175759
C29   C     C_R   0.620817 0.503475 0.187388 -0.040841
C30   C     C_R   0.235456 0.561422 0.865362 -0.200638
C31   C     C_R   0.192743 0.582113 0.971650 -0.152184
C32   C     C_R   0.293901 0.574534 0.027383 -0.169180
Cu1   Cu    Cu3+1 0.359330 0.500020 0.500010 0.949217
Cu2   Cu    Cu3+1 0.640670 0.499980 0.499990 0.938209
H1    H     H_    0.848832 0.461348 0.166320 0.147283
H2    H     H_    0.735498 0.111308 0.480677 0.158222
H3    H     H_    0.216257 0.110473 0.622932 0.189337
H4    H     H_    0.157762 0.117665 0.502130 0.192976
H5    H     H_    0.209309 0.886740 0.617600 0.150932
H6    H     H_    0.838233 0.670567 0.578874 0.128162
H7    H     H_    0.095546 0.667204 0.583147 0.156349
H8    H     H_    0.205755 0.415909 0.298588 0.213029
H9    H     H_    0.186464 0.255680 0.352309 0.190438
H10   H     H_    0.956389 0.414791 0.299593 0.211980
H11   H     H_    0.935586 0.254509 0.353685 0.188908
H12   H     H_    0.916526 0.475005 0.978692 0.165216
H13   H     H_    0.403272 0.537611 0.184404 0.146782
H14   H     H_    0.153274 0.559849 0.824985 0.183722
H15   H     H_    0.251115 0.586235 0.109931 0.123210
H16   H     H_    0.080004 0.601765 0.012218 0.145685
H17   H     H_    0.677811 0.609869 0.738879 0.176240
H18   H     H_    0.734962 0.886718 0.480582 0.162955
N1    N     N_R   0.852320 0.499070 0.499340 -0.182367
N2    N     N_R   0.148230 0.499110 0.499340 -0.184623
O1    O     O_R   0.381190 0.680360 0.500000 -0.569410
O2    O     O_R   0.618780 0.680320 0.499990 -0.595041
O3    O     O_R   0.323230 0.500000 0.650990 -0.582696
O4    O     O_R   0.560820 0.499960 0.650980 -0.585497
O5    O     O_R   0.381220 0.319680 0.500010 -0.575268
O6    O     O_R   0.618810 0.319640 0.500000 -0.583989
O7    O     O_R   0.439180 0.500040 0.349020 -0.586105
O8    O     O_R   0.676770 0.500000 0.349010 -0.582591
N3    N     N_3   0.134446 0.881987 0.481054 -0.578004
H19   H     H_    0.154141 0.927963 0.410243 0.232466
H20   H     H_    0.025696 0.899348 0.522691 0.208161
N4    N     N_3   0.895360 0.557578 0.809348 -0.635167
H21   H     H_    0.916750 0.645036 0.775926 0.206480
H22   H     H_    0.914870 0.491894 0.749885 0.231626

loop_
_geom_bond_atom_site_label_1
_geom_bond_atom_site_label_2
_ccdc_geom_bond_type
C25   H8    S    
Cu1   O1    S    
C2    C4    A    
N3    H20   S    
Cu2   O2    S    
C6    C7    A    
C27   O8    A    
C16   C17   A    
C27   C29   S    
C5    C28   A    
C27   O7    A    
C10   C30   A    
N4    H22   S    
C31   C32   A    
C26   H11   S    
C17   C18   S    
C9    C29   A    
C30   C31   A    
C4    C8    A    
C12   O4    A    
C25   H9    S    
C2    C3    A    
C18   H4    S    
C8    H13   S    
C7    H17   S    
Cu1   O5    S    
C3    C10   A    
C13   C14   A    
Cu2   O6    S    
C11   C13   A    
C11   C19   S    
C5    C6    A    
C21   H6    S    
C20   C26   S    
C12   O3    A    
C21   N1    A    
C2    C32   A    
C18   H3    S    
Cu1   Cu2   S    
C16   C23   S    
C3    C7    A    
C22   N2    A    
C1    O1    A    
C23   O6    A    
C10   C12   S    
Cu2   O4    S    
C14   H18   S    
C32   H15   S    
C22   H7    S    
C1    C13   S    
C8    C29   A    
C19   H5    S    
C26   H10   S    
N3    H19   S    
Cu2   O8    S    
C20   C24   A    
C15   H2    S    
C6    N4    S    
N4    H21   S    
C24   C25   S    
Cu2   N1    S    
Cu1   O7    S    
C18   C19   S    
C30   H14   S    
Cu1   N2    S    
C9    H1    S    
C28   H12   S    
C14   C15   A    
C4    C5    A    
Cu1   O3    S    
C31   H16   S    
C23   O5    A    
C25   C26   S    
C21   C22   A    
C24   N2    A    
C1    O2    A    
C11   C17   A    
C15   C16   A    
C9    C28   A    
C19   N3    S    
C20   N1    A    
