data_mof_unit_34841.cif
_audit_creation_date              2012-12-10T17:05:43-0500
_audit_creation_method            fapswitch 2.2
_symmetry_space_group_name_H-M    P1
_symmetry_Int_Tables_number       1
_space_group_crystal_system       triclinic
_cell_length_a                    15.861171
_cell_length_b                    11.057357
_cell_length_c                    9.820487
_cell_angle_alpha                 111.017614
_cell_angle_beta                  97.807405
_cell_angle_gamma                 90.124874
_cell_volume                      1590.4379271

loop_
_atom_site_label
_atom_site_type_symbol
_atom_type_description
_atom_site_fract_x
_atom_site_fract_y
_atom_site_fract_z
_atom_type_partial_charge
C1    C     C_R   0.493100 0.254611 0.441094 0.852772
C2    C     C_3   0.961818 0.455240 0.631570 0.721889
C3    C     C_3   0.917144 0.497068 0.502506 -0.034565
C4    C     C_3   0.947624 0.639461 0.531364 0.172590
C5    C     C_3   0.047413 0.651540 0.534015 0.724707
C6    C     C_1   0.824205 0.491426 0.494596 0.055030
C7    C     C_1   0.175796 0.513016 0.509838 0.046587
C8    C     C_1   0.251258 0.508941 0.508107 -0.240701
C9    C     C_2   0.485775 0.116292 0.407667 -0.332812
C10   C     C_2   0.482672 0.069674 0.514754 -0.281190
C11   C     C_2   0.499243 0.884331 0.588303 -0.457453
C12   C     C_R   0.340391 0.502482 0.502469 0.805990
C13   C     C_2   0.475443 0.929839 0.479713 0.474663
C14   C     C_2   0.508258 0.508727 0.080706 -0.070712
C15   C     C_2   0.493988 0.488223 0.918688 -0.093797
C16   C     C_R   0.503133 0.745673 0.558454 0.866295
C17   C     C_R   0.659488 0.497476 0.497594 0.819445
C18   C     C_3   0.061648 0.463917 0.631089 0.083462
C19   C     C_3   0.039484 0.410860 0.356589 0.286417
C20   C     C_3   0.941586 0.408346 0.352209 -0.470435
C21   C     C_1   0.748539 0.492687 0.493115 -0.215962
C22   C     C_3   0.082918 0.511887 0.507292 -0.048592
Cu1   Cu    Cu3+1 0.514650 0.521810 0.644910 0.936617
Cu2   Cu    Cu3+1 0.485350 0.478190 0.355090 0.942038
H1    H     H_    0.092584 0.537136 0.737170 0.098204
H2    H     H_    0.487838 0.134449 0.629415 0.161619
H3    H     H_    0.516438 0.950953 0.701524 0.120689
H4    H     H_    0.481409 0.052130 0.293027 0.185248
H5    H     H_    0.446358 0.415349 0.845781 0.162499
H6    H     H_    0.557430 0.579897 0.152974 0.182079
H7    H     H_    0.582149 0.622892 0.933973 0.196556
H8    H     H_    0.416691 0.379001 0.066546 0.191434
H9    H     H_    0.057408 0.311319 0.349360 0.136220
H10   H     H_    0.916470 0.307038 0.325170 0.178072
H11   H     H_    0.910762 0.439257 0.262215 0.233953
H12   H     H_    0.932106 0.699078 0.642095 0.081172
N1    N     N_2   0.463320 0.445430 0.137380 -0.291388
N2    N     N_2   0.536720 0.554500 0.862620 -0.281825
O1    O     O_R   0.507820 0.332330 0.577400 -0.571541
O2    O     O_R   0.483070 0.295500 0.332660 -0.576435
O3    O     O_R   0.391820 0.518430 0.622420 -0.568074
O4    O     O_R   0.367070 0.481600 0.377680 -0.582064
O5    O     O_R   0.516930 0.704500 0.667340 -0.580904
O6    O     O_R   0.492180 0.667670 0.422600 -0.523809
O7    O     O_R   0.632930 0.518400 0.622320 -0.568018
O8    O     O_R   0.608180 0.481570 0.377580 -0.573057
O9    O     O_3   0.936260 0.322650 0.602815 -0.558921
C23   C     C_3   0.861903 0.302784 0.659420 0.121355
H13   H     H_    0.822138 0.387963 0.693209 0.181903
H14   H     H_    0.881067 0.275939 0.757432 0.142918
C24   C     C_3   0.807071 0.190153 0.543643 -0.859159
H15   H     H_    0.843484 0.100943 0.514618 0.252402
H16   H     H_    0.749084 0.172976 0.587510 0.207147
H17   H     H_    0.787462 0.212470 0.442698 0.250504
O10   O     O_3   0.938608 0.543345 0.767164 -0.657578
C25   C     C_3   0.979723 0.526436 0.896042 0.017775
H18   H     H_    0.036527 0.595067 0.942850 0.163190
H19   H     H_    0.999952 0.426114 0.876600 0.163396
C26   C     C_3   0.919681 0.561655 0.011259 -0.733090
H20   H     H_    0.864700 0.489640 0.976001 0.208180
H21   H     H_    0.954033 0.563527 0.118093 0.287802
H22   H     H_    0.895774 0.659446 0.027260 0.248347
O11   O     O_3   0.904618 0.679826 0.418662 -0.564722
C27   C     C_3   0.841202 0.768363 0.468718 0.069358
H23   H     H_    0.870982 0.868455 0.519900 0.127649
H24   H     H_    0.807813 0.747604 0.551259 0.131753
C28   C     C_3   0.775044 0.759406 0.336175 -0.338745
H25   H     H_    0.804146 0.799209 0.263198 0.217699
H26   H     H_    0.754762 0.655852 0.272128 0.227878
C29   C     C_3   0.696347 0.833118 0.383602 -0.887482
H27   H     H_    0.664540 0.790518 0.451277 0.256266
H28   H     H_    0.650554 0.826178 0.284592 0.265607
H29   H     H_    0.714243 0.936864 0.448716 0.255167
O12   O     O_3   0.456128 0.847240 0.333256 -0.582107
C30   C     C_3   0.367028 0.839280 0.289765 0.063727
H30   H     H_    0.341765 0.937450 0.311682 0.132802
H31   H     H_    0.334676 0.788835 0.349949 0.133465
C31   C     C_3   0.347296 0.761432 0.124128 -0.304634
H32   H     H_    0.383373 0.806968 0.063844 0.223007
H33   H     H_    0.367804 0.661088 0.101372 0.232825
C32   C     C_3   0.252433 0.755167 0.066799 -0.951468
H34   H     H_    0.215678 0.703373 0.119453 0.257077
H35   H     H_    0.241234 0.701563 0.945681 0.270803
H36   H     H_    0.229487 0.854413 0.090292 0.258426
O13   O     O_3   0.093750 0.338243 0.604046 -0.583647
C33   C     C_3   0.160470 0.334945 0.713152 0.063165
H37   H     H_    0.131951 0.317006 0.801547 0.154092
H38   H     H_    0.202384 0.425667 0.760309 0.136145
C34   C     C_3   0.215457 0.222479 0.643003 -0.303992
H39   H     H_    0.174632 0.131641 0.591241 0.227066
H40   H     H_    0.245109 0.241079 0.555589 0.211965
C35   C     C_3   0.285403 0.204630 0.755869 -0.977459
H41   H     H_    0.323636 0.296827 0.816157 0.247061
H42   H     H_    0.327802 0.129055 0.698893 0.255917
H43   H     H_    0.257337 0.173434 0.836171 0.258500
O14   O     O_3   0.062217 0.441888 0.237233 -0.552531
C36   C     C_3   0.118832 0.353363 0.158278 0.064664
H44   H     H_    0.081245 0.277432 0.061584 0.139480
H45   H     H_    0.158328 0.305085 0.224706 0.132773
C37   C     C_3   0.181021 0.424816 0.104620 -0.824044
H46   H     H_    0.225581 0.490817 0.198709 0.254040
H47   H     H_    0.219799 0.354226 0.031343 0.203164
H48   H     H_    0.146322 0.481689 0.044441 0.228061
O15   O     O_3   0.087804 0.739038 0.675195 -0.656140
C38   C     C_3   0.057140 0.866021 0.717033 0.054374
H49   H     H_    0.008789 0.874926 0.791481 0.145884
H50   H     H_    0.027747 0.891477 0.622210 0.175300
C39   C     C_3   0.129805 0.965185 0.803861 -0.829182
H51   H     H_    0.180207 0.961425 0.734835 0.250420
H52   H     H_    0.105530 0.064221 0.839274 0.198319
H53   H     H_    0.157717 0.945271 0.903129 0.252245
O16   O     O_3   0.061012 0.694244 0.416568 -0.515692
C40   C     C_3   0.143800 0.746717 0.424245 0.138325
H54   H     H_    0.177932 0.673975 0.344682 0.159273
H55   H     H_    0.184092 0.774861 0.533309 0.161714
C41   C     C_3   0.135686 0.864101 0.378018 -0.860955
H56   H     H_    0.096132 0.936078 0.448136 0.254001
H57   H     H_    0.199575 0.910458 0.389070 0.191485
H58   H     H_    0.104711 0.833799 0.261552 0.262771

loop_
_geom_bond_atom_site_label_1
_geom_bond_atom_site_label_2
_ccdc_geom_bond_type
O10   C25   S    
C4    H12   S    
Cu1   O7    S    
C2    C18   S    
Cu2   O4    S    
C39   H51   S    
C19   C20   S    
C3    C6    S    
C36   C37   S    
C36   H44   S    
C7    C8    T    
O13   C33   S    
C41   H56   S    
C38   H50   S    
C4    O11   S    
C35   H41   S    
C17   O7    A    
C2    O10   S    
C33   H38   S    
Cu1   O5    S    
C25   H18   S    
O16   C40   S    
C12   O4    A    
C1    O2    A    
C32   H35   S    
C20   H11   S    
C23   C24   S    
C5    C22   S    
C39   H52   S    
Cu1   Cu2   S    
C29   H27   S    
C34   H40   S    
C9    C10   D    
C16   O6    A    
C40   C41   S    
C20   H10   S    
C10   H2    S    
C23   H14   S    
C5    O15   S    
C26   H20   S    
C18   C22   S    
C18   H1    S    
C14   H6    S    
C37   H47   S    
O15   C38   S    
C36   H45   S    
C15   H5    S    
C25   H19   S    
C38   C39   S    
C26   H21   S    
C18   O13   S    
O12   C30   S    
C28   H25   S    
C27   C28   S    
C19   C22   S    
C1    C9    S    
C17   O8    A    
C19   H9    S    
C31   H32   S    
C6    C21   T    
C10   C13   S    
C35   H43   S    
C32   H34   S    
C24   H15   S    
C28   H26   S    
C27   H24   S    
C30   H30   S    
C15   N2    D    
C12   O3    A    
C11   C16   S    
O9    C23   S    
C11   H3    S    
C8    C12   S    
O14   C36   S    
C29   H29   S    
C35   H42   S    
Cu2   N1    S    
C3    C20   S    
C39   H53   S    
H8    N1    S    
C34   C35   S    
C30   H31   S    
C16   O5    A    
C23   H13   S    
Cu2   O6    S    
C3    C4    S    
C7    C22   S    
C32   H36   S    
C40   H54   S    
C26   H22   S    
C33   H37   S    
C4    C5    S    
C33   C34   S    
C41   H58   S    
H7    N2    S    
C5    O16   S    
C2    O9    S    
Cu1   N2    S    
C38   H49   S    
Cu1   O3    S    
C25   C26   S    
C28   C29   S    
Cu2   O8    S    
C27   H23   S    
C24   H17   S    
C2    C3    S    
C14   N1    D    
C11   C13   D    
C31   C32   S    
Cu1   O1    S    
C37   H46   S    
Cu2   O2    S    
C41   H57   S    
C31   H33   S    
C37   H48   S    
C30   C31   S    
C17   C21   S    
C1    O1    A    
O11   C27   S    
C13   O12   S    
C14   C15   S    
C29   H28   S    
C24   H16   S    
C34   H39   S    
C19   O14   S    
C9    H4    S    
C40   H55   S    
