data_mof_unit_6582.cif
_audit_creation_date              2013-03-05T15:46:25-0500
_audit_creation_method            fapswitch 2.2
_symmetry_space_group_name_H-M    P1
_symmetry_Int_Tables_number       1
_space_group_crystal_system       triclinic
_cell_length_a                    15.872284
_cell_length_b                    10.82611
_cell_length_c                    9.875287
_cell_angle_alpha                 109.764402
_cell_angle_beta                  97.449852
_cell_angle_gamma                 92.172263
_cell_volume                      1577.3886435

loop_
_atom_site_label
_atom_site_type_symbol
_atom_site_description
_atom_site_fract_x
_atom_site_fract_y
_atom_site_fract_z
_atom_type_partial_charge
O1    O     O_R   0.507820 0.332330 0.577400 -0.565313
O2    O     O_R   0.483070 0.295500 0.332660 -0.565142
C1    C     C_R   0.497192 0.253394 0.442831 0.844162
O3    O     O_R   0.391820 0.518430 0.622420 -0.523187
O4    O     O_R   0.367070 0.481600 0.377680 -0.537604
C2    C     C_R   0.340760 0.499688 0.501598 0.823072
Cu1   Cu    Cu3+1 0.514650 0.521810 0.644910 1.041234
Cu2   Cu    Cu3+1 0.485350 0.478190 0.355090 1.076273
O5    O     O_R   0.516930 0.704500 0.667340 -0.562328
O6    O     O_R   0.492180 0.667670 0.422600 -0.555764
O7    O     O_R   0.632930 0.518400 0.622320 -0.566246
O8    O     O_R   0.608180 0.481570 0.377580 -0.592602
C3    C     C_R   0.509516 0.746499 0.557031 0.888058
C4    C     C_R   0.659163 0.498912 0.498110 0.825141
C5    C     C_3   0.049998 0.351788 0.528719 0.156612
C6    C     C_3   0.037993 0.485277 0.344643 0.196157
C7    C     C_3   0.938149 0.466411 0.340615 -0.101706
H1    H     H_    0.909708 0.547961 0.312972 0.242916
C8    C     C_1   0.747816 0.492761 0.493804 -0.032461
C9    C     C_3   0.083291 0.486648 0.503110 -0.020036
C10   C     C_3   0.948004 0.358586 0.547890 0.416230
C11   C     C_3   0.915444 0.478683 0.496246 -0.155081
C12   C     C_3   0.960381 0.614332 0.612870 0.022399
C13   C     C_3   0.061733 0.615375 0.632376 0.239920
C14   C     C_1   0.822885 0.486154 0.493366 0.194856
C15   C     C_1   0.176192 0.492228 0.504577 0.082008
C16   C     C_1   0.251660 0.496501 0.504318 -0.063701
H2    H     H_    0.939442 0.619741 0.715893 0.230834
C17   C     C_2   0.502178 0.111871 0.418623 -0.010957
C18   C     C_2   0.562702 0.071869 0.502651 0.097526
C19   C     C_2   0.520061 0.888114 0.581614 -0.159970
C20   C     C_2   0.562421 0.932423 0.492862 0.340851
N1    N     N_2   0.463320 0.445430 0.137380 -0.048228
C21   C     C_2   0.518815 0.470496 0.059787 0.184498
H3    H     H_    0.587201 0.615934 0.931837 0.213067
N2    N     N_2   0.536720 0.554500 0.862620 -0.352413
C22   C     C_2   0.492249 0.479651 0.911999 0.428909
N3    N     N_R   0.897195 0.230649 0.465590 0.185127
O9    O     O_R   0.822297 0.223803 0.390956 -0.373583
O10   O     O_R   0.915574 0.128098 0.500964 -0.196233
C23   C     C_3   0.104716 0.330038 0.661845 -0.514715
H4    H     H_    0.094639 0.392848 0.770910 0.266193
H5    H     H_    0.091013 0.227005 0.657031 0.255056
H6    H     H_    0.174094 0.341444 0.658833 0.255752
N4    N     N_R   0.934116 0.384042 0.702184 0.105654
O11   O     O_R   0.869746 0.447209 0.750197 -0.360663
O12   O     O_R   0.958880 0.301366 0.766022 -0.315419
N5    N     N_R   0.928719 0.735763 0.594560 0.126739
O13   O     O_R   0.942083 0.844859 0.706260 -0.271386
O14   O     O_R   0.874496 0.733850 0.483053 -0.313905
N6    N     N_R   0.614975 0.849883 0.397025 0.130904
O15   O     O_R   0.663719 0.773035 0.441642 -0.347850
O16   O     O_R   0.627636 0.871754 0.279192 -0.328514
C24   C     C_3   0.636086 0.164097 0.604421 -0.679390
H7    H     H_    0.685147 0.108022 0.642929 0.261228
H8    H     H_    0.667364 0.221314 0.547319 0.239116
H9    H     H_    0.613413 0.231908 0.702151 0.231313
C25   C     C_3   0.475977 0.979261 0.697401 -0.768206
H10   H     H_    0.445789 0.925910 0.759471 0.247087
H11   H     H_    0.522779 0.058132 0.775322 0.270298
H12   H     H_    0.424862 0.022563 0.645019 0.274212
C26   C     C_3   0.436492 0.014259 0.304405 -0.756232
H13   H     H_    0.391259 0.064865 0.249967 0.253609
H14   H     H_    0.468427 0.944652 0.220138 0.269033
H15   H     H_    0.399058 0.958121 0.355379 0.239046
N7    N     N_R   0.423065 0.389631 0.818459 0.164749
O17   O     O_R   0.429664 0.264285 0.787583 -0.395410
O18   O     O_R   0.347009 0.429627 0.808151 -0.281479
C27   C     C_3   0.612990 0.465164 0.100836 -0.795829
H16   H     H_    0.647947 0.453991 0.007569 0.202532
H17   H     H_    0.640401 0.557918 0.188474 0.293999
H18   H     H_    0.624494 0.376389 0.130379 0.251909
N8    N     N_R   0.068916 0.235725 0.405199 0.132284
O19   O     O_R   0.148032 0.217372 0.387283 -0.351751
O20   O     O_R   0.012018 0.143280 0.320315 -0.291531
N9    N     N_R   0.379009 0.463585 0.095428 0.269717
O21   O     O_R   0.320345 0.367787 0.069086 -0.282136
O22   O     O_R   0.356453 0.582395 0.117695 -0.314792
C28   C     C_3   0.059048 0.616718 0.317352 -0.740174
H19   H     H_    0.044755 0.605927 0.200525 0.272638
H20   H     H_    0.017772 0.694128 0.365756 0.252959
H21   H     H_    0.127516 0.652473 0.352756 0.238405
C29   C     C_3   0.070869 0.380818 0.211721 -0.575556
H22   H     H_    0.141530 0.387449 0.224299 0.249122
H23   H     H_    0.047391 0.277991 0.186460 0.268662
H24   H     H_    0.049005 0.396141 0.107474 0.231199
C30   C     C_3   0.889727 0.349839 0.211224 -0.692127
H25   H     H_    0.819798 0.350232 0.211288 0.244120
H26   H     H_    0.900639 0.360019 0.106501 0.252516
H27   H     H_    0.909151 0.253294 0.210943 0.303127
N10   N     N_R   0.096818 0.608872 0.776764 0.105755
O23   O     O_R   0.051914 0.632398 0.882838 -0.320771
O24   O     O_R   0.179035 0.609085 0.810369 -0.309945
C31   C     C_3   0.106595 0.750208 0.639320 -0.601697
H28   H     H_    0.110723 0.823358 0.751201 0.273364
H29   H     H_    0.173302 0.741531 0.617758 0.197768
H30   H     H_    0.074462 0.801847 0.571794 0.232119

loop_
_geom_bond_atom_site_label_1
_geom_bond_atom_site_label_2
_geom_bond_distance
_ccdc_geom_bond_type
N7    O18   1.301049 A    
C30   H25   1.110172 S    
C23   H4    1.098000 S    
C21   C22   1.503014 S    
N8    O20   1.299114 A    
Cu1   N2    2.037389 S    
H3    N2    1.030380 S    
C28   H21   1.109580 S    
Cu1   Cu2   2.711968 S    
N4    O11   1.302173 A    
Cu1   O7    1.919362 S    
C18   C24   1.514367 S    
C15   C16   1.197360 T    
C17   C18   1.366329 D    
C29   H22   1.109145 S    
C19   C25   1.505822 S    
N2    C22   1.306050 D    
N9    O22   1.301927 A    
N3    O9    1.300442 A    
O7    C4    1.298665 A    
C25   H11   1.110117 S    
C27   H17   1.108210 S    
N8    O19   1.304000 A    
C1    C17   1.475552 S    
O5    C3    1.308825 A    
C26   H14   1.109742 S    
C24   H7    1.111176 S    
C10   N3    1.487729 S    
C9    C13   1.623278 S    
C6    C7    1.583786 S    
C11   C14   1.471524 S    
C12   C13   1.594340 S    
C18   C20   1.479561 S    
C6    C9    1.630281 S    
C25   H12   1.108865 S    
N5    O14   1.300450 A    
N7    O17   1.297926 A    
O1    Cu1   1.924491 S    
C10   C11   1.627495 S    
C23   H5    1.112133 S    
C31   H28   1.112520 S    
O3    Cu1   1.930904 S    
N1    C21   1.316890 D    
C10   N4    1.501305 S    
N4    O12   1.302719 A    
C5    C9    1.643381 S    
C24   H8    1.110698 S    
N6    O15   1.301234 A    
N9    O21   1.300696 A    
C5    C23   1.570618 S    
O3    C2    1.301783 A    
N10   O23   1.302714 A    
C28   H20   1.100867 S    
C31   H30   1.096756 S    
C25   H10   1.110639 S    
C6    C29   1.578804 S    
O1    C1    1.299088 A    
C27   H18   1.109622 S    
C20   N6    1.441971 S    
C26   H13   1.110650 S    
C13   C31   1.575871 S    
N10   O24   1.303865 A    
N1    N9    1.390077 S    
C2    C16   1.417301 S    
Cu2   O8    1.930902 S    
C22   N7    1.433833 S    
C7    H1    1.104098 S    
C12   H2    1.094438 S    
C31   H29   1.107999 S    
C21   C27   1.505733 S    
N5    O13   1.302287 A    
C5    N8    1.497961 S    
O8    C4    1.301687 A    
C30   H26   1.110743 S    
C23   H6    1.108781 S    
C13   N10   1.487658 S    
Cu1   O5    1.912686 S    
C17   C26   1.510420 S    
C12   N5    1.483505 S    
C26   H15   1.110355 S    
C29   H23   1.094071 S    
C7    C30   1.548321 S    
C4    C8    1.416671 S    
C3    C19   1.468253 S    
C19   C20   1.364922 D    
O2    Cu2   1.912684 S    
O6    C3    1.299101 A    
O4    Cu2   1.919363 S    
C7    C11   1.587057 S    
C6    C28   1.567129 S    
O2    C1    1.312111 A    
N3    O10   1.303898 A    
O4    C2    1.298799 A    
C9    C15   1.471485 S    
Cu2   N1    2.037228 S    
C27   H16   1.110430 S    
C8    C14   1.196850 T    
C28   H19   1.111350 S    
C5    C10   1.655628 S    
C29   H24   1.111295 S    
Cu2   O6    1.924492 S    
C30   H27   1.100101 S    
C11   C12   1.598593 S    
N6    O16   1.301486 A    
C24   H9    1.109420 S    
