data_mof_unit_41007.cif
_audit_creation_date              2012-12-10T16:33:54-0500
_audit_creation_method            fapswitch 2.2
_symmetry_space_group_name_H-M    P1
_symmetry_Int_Tables_number       1
_space_group_crystal_system       triclinic
_cell_length_a                    28.251411
_cell_length_b                    18.490381
_cell_length_c                    17.077324
_cell_angle_alpha                 90.256751
_cell_angle_beta                  60.70983
_cell_angle_gamma                 90.396835
_cell_volume                      7780.14789776

loop_
_atom_site_label
_atom_site_type_symbol
_atom_type_description
_atom_site_fract_x
_atom_site_fract_y
_atom_site_fract_z
_atom_type_partial_charge
C1    C     C_R   0.701877 0.268853 0.675718 0.886309
C2    C     C_R   0.298120 0.731141 0.324283 0.886316
C3    C     C_R   0.298142 0.268800 0.324136 0.892415
C4    C     C_R   0.701857 0.731204 0.675865 0.892406
C5    C     C_R   0.201880 0.768859 0.675717 0.886305
C6    C     C_R   0.798123 0.231147 0.324282 0.886313
C7    C     C_R   0.798143 0.768796 0.324135 0.892412
C8    C     C_R   0.201858 0.231200 0.675864 0.892402
C9    C     C_R   0.077796 0.388332 0.428763 -0.210344
C10   C     C_R   0.922195 0.611668 0.571256 -0.210353
C11   C     C_R   0.975873 0.378746 0.422594 -0.211558
C12   C     C_R   0.024124 0.621259 0.577410 -0.211559
C13   C     C_R   0.577806 0.888349 0.428743 -0.210370
C14   C     C_R   0.422196 0.111672 0.571267 -0.210357
C15   C     C_R   0.475865 0.878727 0.422642 -0.211590
C16   C     C_R   0.524131 0.121269 0.577400 -0.211557
C17   C     C_R   0.720629 0.265115 0.953730 0.112717
C18   C     C_R   0.279369 0.734881 0.046270 0.112702
C19   C     C_R   0.278932 0.266097 0.046643 0.111905
C20   C     C_R   0.721073 0.733901 0.953349 0.111865
C21   C     C_R   0.220631 0.765119 0.953730 0.112702
C22   C     C_R   0.779371 0.234885 0.046270 0.112717
C23   C     C_R   0.778927 0.766098 0.046651 0.111864
C24   C     C_R   0.221068 0.233903 0.953357 0.111905
C25   C     C_R   0.777782 0.263921 0.907838 -0.175088
C26   C     C_R   0.222213 0.735973 0.092141 -0.175099
C27   C     C_R   0.255428 0.197524 0.053839 -0.178473
C28   C     C_R   0.744511 0.802502 0.946256 -0.178470
C29   C     C_R   0.277786 0.764027 0.907859 -0.175100
C30   C     C_R   0.722218 0.236079 0.092162 -0.175089
C31   C     C_R   0.755489 0.697497 0.053743 -0.178469
C32   C     C_R   0.244572 0.302476 0.946161 -0.178474
C33   C     C_R   0.806666 0.249017 0.953361 -0.175137
C34   C     C_R   0.193329 0.750881 0.046617 -0.175139
C35   C     C_R   0.227042 0.181581 0.007669 -0.179388
C36   C     C_R   0.772893 0.818447 0.992434 -0.179401
C37   C     C_R   0.306671 0.749119 0.953383 -0.175141
C38   C     C_R   0.693333 0.250982 0.046639 -0.175138
C39   C     C_R   0.727107 0.681553 0.007566 -0.179401
C40   C     C_R   0.272958 0.318419 0.992331 -0.179388
C41   C     C_R   0.643644 0.327090 0.945904 -0.202185
C42   C     C_R   0.356364 0.672923 0.054084 -0.202173
C43   C     C_R   0.356592 0.326431 0.054028 -0.203363
C44   C     C_R   0.643422 0.673551 0.945961 -0.203370
C45   C     C_R   0.143636 0.827077 0.945916 -0.202173
C46   C     C_R   0.856356 0.172910 0.054096 -0.202185
C47   C     C_R   0.856578 0.826449 0.054039 -0.203372
C48   C     C_R   0.143408 0.173569 0.945972 -0.203363
C49   C     C_R   0.616628 0.347478 0.898229 -0.064896
C50   C     C_R   0.383375 0.652529 0.101765 -0.064904
C51   C     C_R   0.383662 0.346925 0.101535 -0.066843
C52   C     C_R   0.616345 0.653065 0.898459 -0.066836
C53   C     C_R   0.116625 0.847471 0.898235 -0.064904
C54   C     C_R   0.883372 0.152522 0.101771 -0.064896
C55   C     C_R   0.883655 0.846935 0.101541 -0.066836
C56   C     C_R   0.116338 0.153074 0.898464 -0.066843
C57   C     C_R   0.633326 0.322353 0.813080 -0.267050
C58   C     C_R   0.366672 0.677647 0.186918 -0.267054
C59   C     C_R   0.366944 0.321962 0.186651 -0.262603
C60   C     C_R   0.633058 0.678038 0.813349 -0.262613
C61   C     C_R   0.133328 0.822353 0.813082 -0.267058
C62   C     C_R   0.866674 0.177647 0.186920 -0.267051
C63   C     C_R   0.866942 0.821962 0.186651 -0.262613
C64   C     C_R   0.133056 0.178038 0.813349 -0.262604
C65   C     C_R   0.679530 0.281715 0.770831 -0.047368
C66   C     C_R   0.320464 0.718275 0.229172 -0.047365
C67   C     C_R   0.320398 0.281434 0.229070 -0.047105
C68   C     C_R   0.679601 0.718572 0.770932 -0.047103
C69   C     C_R   0.179536 0.781725 0.770828 -0.047360
C70   C     C_R   0.820470 0.218285 0.229169 -0.047369
C71   C     C_R   0.820399 0.781428 0.229068 -0.047104
C72   C     C_R   0.179602 0.218566 0.770930 -0.047098
C73   C     C_R   0.707477 0.260301 0.816935 -0.188671
C74   C     C_R   0.292511 0.739679 0.183071 -0.188677
C75   C     C_R   0.292014 0.260253 0.183189 -0.198702
C76   C     C_R   0.707984 0.739758 0.816814 -0.198699
C77   C     C_R   0.207488 0.760321 0.816929 -0.188675
C78   C     C_R   0.792523 0.239699 0.183064 -0.188669
C79   C     C_R   0.792016 0.760242 0.183186 -0.198698
C80   C     C_R   0.207986 0.239747 0.816811 -0.198702
C81   C     C_R   0.689696 0.282965 0.905605 0.070018
C82   C     C_R   0.310302 0.717031 0.094394 0.069991
C83   C     C_R   0.309979 0.283100 0.094668 0.072699
C84   C     C_R   0.690026 0.716897 0.905326 0.072668
C85   C     C_R   0.189698 0.782969 0.905606 0.069991
C86   C     C_R   0.810303 0.217035 0.094395 0.070018
C87   C     C_R   0.809974 0.783103 0.094673 0.072668
C88   C     C_R   0.190021 0.216900 0.905332 0.072699
C89   C     C_R   0.690626 0.130082 0.537652 0.917201
C90   C     C_R   0.309373 0.869918 0.462355 0.917231
C91   C     C_R   0.304266 0.127516 0.479096 0.942835
C92   C     C_R   0.695730 0.872483 0.520915 0.942832
C93   C     C_R   0.190626 0.630082 0.537651 0.917204
C94   C     C_R   0.809373 0.369918 0.462349 0.917200
C95   C     C_R   0.804268 0.627517 0.479088 0.942844
C96   C     C_R   0.195731 0.372484 0.520913 0.942840
C97   C     C_R   0.073865 0.099812 0.934150 0.911147
C98   C     C_R   0.926130 0.900193 0.065854 0.911133
C99   C     C_R   0.925838 0.099409 0.066245 0.909452
C100  C     C_R   0.074159 0.900586 0.933759 0.909462
C101  C     C_R   0.573870 0.599807 0.934146 0.911134
C102  C     C_R   0.426135 0.400187 0.065850 0.911147
C103  C     C_R   0.425841 0.599413 0.066241 0.909463
C104  C     C_R   0.574162 0.400591 0.933755 0.909452
C105  C     C_R   0.546955 0.001767 0.509592 0.036096
C106  C     C_R   0.453035 0.998229 0.490458 0.036091
C107  C     C_R   0.046958 0.501770 0.509574 0.036095
C108  C     C_R   0.953036 0.498232 0.490442 0.036096
C109  C     C_R   0.510508 0.060751 0.541125 0.041369
C110  C     C_R   0.489483 0.939246 0.458927 0.041381
C111  C     C_R   0.462513 0.057982 0.533694 0.044015
C112  C     C_R   0.537480 0.942020 0.466350 0.044011
C113  C     C_R   0.010507 0.560750 0.541114 0.041365
C114  C     C_R   0.989487 0.439253 0.458901 0.041367
C115  C     C_R   0.962512 0.557981 0.533682 0.044015
C116  C     C_R   0.037480 0.442021 0.466336 0.044016
C117  C     C_R   0.628280 0.942530 0.495801 -0.001152
C118  C     C_R   0.371713 0.057471 0.504226 -0.001145
C119  C     C_R   0.392768 0.935556 0.445577 0.006659
C120  C     C_R   0.607229 0.064439 0.554451 0.006633
C121  C     C_R   0.128283 0.442532 0.495791 -0.001156
C122  C     C_R   0.871712 0.557470 0.504218 -0.001159
C123  C     C_R   0.892768 0.435562 0.445564 0.006643
C124  C     C_R   0.107229 0.564441 0.554443 0.006643
C125  C     C_R   0.668033 0.939148 0.524270 -0.227313
C126  C     C_R   0.331963 0.060852 0.475750 -0.227360
C127  C     C_R   0.343337 0.934816 0.442571 -0.185175
C128  C     C_R   0.656664 0.065182 0.557441 -0.185105
C129  C     C_R   0.168035 0.439150 0.524263 -0.227326
C130  C     C_R   0.831964 0.560852 0.475739 -0.227323
C131  C     C_R   0.843336 0.434818 0.442562 -0.185130
C132  C     C_R   0.156663 0.565184 0.557441 -0.185127
C133  C     C_R   0.680275 0.000597 0.558518 0.339201
C134  C     C_R   0.319723 0.999403 0.441492 0.339204
C135  C     C_R   0.180274 0.500598 0.558520 0.339213
C136  C     C_R   0.819726 0.499404 0.441479 0.339216
C137  C     C_R   0.593661 0.002643 0.520926 0.076492
C138  C     C_R   0.406329 0.997352 0.479117 0.076487
C139  C     C_R   0.093665 0.502647 0.520908 0.076492
C140  C     C_R   0.906330 0.497356 0.479102 0.076494
C141  C     C_R   0.122238 0.388876 0.442728 -0.154386
C142  C     C_R   0.877755 0.611124 0.557286 -0.154379
C143  C     C_R   0.928495 0.376926 0.416561 -0.148991
C144  C     C_R   0.071503 0.623079 0.583443 -0.148987
C145  C     C_R   0.622243 0.888884 0.442718 -0.154375
C146  C     C_R   0.377759 0.111130 0.557290 -0.154369
C147  C     C_R   0.428497 0.876918 0.416579 -0.149044
C148  C     C_R   0.571511 0.123089 0.583429 -0.149001
H1    H     H_    0.076769 0.345411 0.386767 0.136730
H2    H     H_    0.923223 0.654587 0.613252 0.136737
H3    H     H_    0.000421 0.330814 0.399803 0.136384
H4    H     H_    0.999578 0.669195 0.600193 0.136383
H5    H     H_    0.576787 0.845454 0.386707 0.136755
H6    H     H_    0.423222 0.154586 0.613275 0.136731
H7    H     H_    0.500385 0.830764 0.399951 0.136403
H8    H     H_    0.499591 0.169213 0.600155 0.136382
H9    H     H_    0.649416 0.250431 0.084187 0.132736
H10   H     H_    0.350589 0.749745 0.915860 0.132763
H11   H     H_    0.289565 0.372318 0.986491 0.134346
H12   H     H_    0.710550 0.627634 0.013323 0.134376
H13   H     H_    0.149411 0.750254 0.084140 0.132764
H14   H     H_    0.850584 0.249568 0.915813 0.132736
H15   H     H_    0.789450 0.872365 0.986676 0.134376
H16   H     H_    0.210435 0.127682 0.013509 0.134347
H17   H     H_    0.800397 0.275971 0.836797 0.133745
H18   H     H_    0.199599 0.723839 0.163162 0.133769
H19   H     H_    0.259814 0.155681 0.093955 0.137794
H20   H     H_    0.740075 0.844364 0.906216 0.137825
H21   H     H_    0.300401 0.776160 0.836838 0.133767
H22   H     H_    0.699603 0.224029 0.163203 0.133745
H23   H     H_    0.759925 0.655635 0.093784 0.137826
H24   H     H_    0.240186 0.344319 0.906045 0.137794
H25   H     H_    0.630412 0.348388 0.012583 0.148874
H26   H     H_    0.369603 0.651642 0.987394 0.148889
H27   H     H_    0.371103 0.345625 0.986187 0.147904
H28   H     H_    0.628922 0.654342 0.013792 0.147932
H29   H     H_    0.130397 0.848358 0.012606 0.148889
H30   H     H_    0.869588 0.151612 0.987417 0.148874
H31   H     H_    0.871078 0.845658 0.986208 0.147931
H32   H     H_    0.128897 0.154375 0.013813 0.147905
H33   H     H_    0.743599 0.227453 0.783298 0.153225
H34   H     H_    0.256379 0.772509 0.216714 0.153248
H35   H     H_    0.254672 0.229339 0.217535 0.151033
H36   H     H_    0.745320 0.770686 0.782474 0.151056
H37   H     H_    0.243620 0.727491 0.783286 0.153247
H38   H     H_    0.756401 0.272547 0.216702 0.153225
H39   H     H_    0.754680 0.729314 0.217525 0.151056
H40   H     H_    0.245328 0.270661 0.782464 0.151032
O1    O     O_R   0.746490 0.236330 0.638080 -0.629521
O2    O     O_R   0.253510 0.763670 0.361920 -0.629519
O3    O     O_R   0.253510 0.236330 0.361920 -0.641504
O4    O     O_R   0.746490 0.763670 0.638080 -0.641507
O5    O     O_R   0.246490 0.736330 0.638080 -0.629524
O6    O     O_R   0.753510 0.263670 0.361920 -0.629520
O7    O     O_R   0.753510 0.736330 0.361920 -0.641504
O8    O     O_R   0.246490 0.263670 0.638080 -0.641511
O9    O     O_R   0.674170 0.186160 0.516270 -0.643358
O10   O     O_R   0.325830 0.813840 0.483730 -0.643349
O11   O     O_R   0.325830 0.186160 0.483730 -0.642393
O12   O     O_R   0.674170 0.813840 0.516270 -0.642388
O13   O     O_R   0.174170 0.686160 0.516270 -0.643336
O14   O     O_R   0.825830 0.313840 0.483730 -0.643329
O15   O     O_R   0.825830 0.686160 0.483730 -0.642392
O16   O     O_R   0.174170 0.313840 0.516270 -0.642393
O17   O     O_R   0.739960 0.127620 0.525000 -0.598643
O18   O     O_R   0.260040 0.872380 0.475000 -0.598630
O19   O     O_R   0.260040 0.127620 0.475000 -0.606024
O20   O     O_R   0.739960 0.872380 0.525000 -0.606049
O21   O     O_R   0.239960 0.627620 0.525000 -0.598657
O22   O     O_R   0.760040 0.372380 0.475000 -0.598661
O23   O     O_R   0.760040 0.627620 0.475000 -0.606061
O24   O     O_R   0.239960 0.372380 0.525000 -0.606057
O25   O     O_R   0.680700 0.294870 0.629350 -0.640644
O26   O     O_R   0.319300 0.705130 0.370650 -0.640639
O27   O     O_R   0.319300 0.294870 0.370650 -0.634088
O28   O     O_R   0.680700 0.705130 0.629350 -0.634089
O29   O     O_R   0.180700 0.794870 0.629350 -0.640646
O30   O     O_R   0.819300 0.205130 0.370650 -0.640640
O31   O     O_R   0.819300 0.794870 0.370650 -0.634088
O32   O     O_R   0.180700 0.205130 0.629350 -0.634094
O33   O     O_R   0.062020 0.072840 0.007170 -0.628845
O34   O     O_R   0.937980 0.927160 0.992830 -0.628850
O35   O     O_R   0.937980 0.072840 0.992830 -0.628202
O36   O     O_R   0.062020 0.927160 0.007170 -0.628188
O37   O     O_R   0.562020 0.572840 0.007170 -0.628850
O38   O     O_R   0.437980 0.427160 0.992830 -0.628845
O39   O     O_R   0.437980 0.572840 0.992830 -0.628189
O40   O     O_R   0.562020 0.427160 0.007170 -0.628202
O41   O     O_R   0.947860 0.073950 0.109290 -0.624198
O42   O     O_R   0.052140 0.926050 0.890710 -0.624186
O43   O     O_R   0.052140 0.073950 0.890710 -0.623912
O44   O     O_R   0.947860 0.926050 0.109290 -0.623917
O45   O     O_R   0.447860 0.573950 0.109290 -0.624185
O46   O     O_R   0.552140 0.426050 0.890710 -0.624198
O47   O     O_R   0.552140 0.573950 0.890710 -0.623918
O48   O     O_R   0.447860 0.426050 0.109290 -0.623912
Zn1   Zn    Zn3+2 0.792340 0.208750 0.507670 0.956042
Zn2   Zn    Zn3+2 0.207660 0.791250 0.492330 0.956049
Zn3   Zn    Zn3+2 0.207660 0.208750 0.492330 0.953953
Zn4   Zn    Zn3+2 0.792340 0.791250 0.507670 0.953947
Zn5   Zn    Zn3+2 0.292340 0.708750 0.507670 0.956030
Zn6   Zn    Zn3+2 0.707660 0.291250 0.492330 0.956018
Zn7   Zn    Zn3+2 0.707660 0.708750 0.492330 0.953943
Zn8   Zn    Zn3+2 0.292340 0.291250 0.507670 0.953937
Zn9   Zn    Zn3+2 0.505960 0.500000 0.080520 0.933786
Zn10  Zn    Zn3+2 0.494040 0.500000 0.919480 0.933783
Zn11  Zn    Zn3+2 0.005960 0.000000 0.080520 0.933786
Zn12  Zn    Zn3+2 0.994040 0.000000 0.919480 0.933785
O49   O     O_3   0.716117 0.999006 0.591451 -0.726930
H41   H     H_    0.752955 0.997017 0.538261 0.352549
O50   O     O_3   0.283866 0.000994 0.408578 -0.726846
H42   H     H_    0.247028 0.002982 0.461788 0.352515
O51   O     O_3   0.216110 0.499003 0.591474 -0.726895
H43   H     H_    0.252955 0.497015 0.538288 0.352534
O52   O     O_3   0.783892 0.500998 0.408522 -0.726906
H44   H     H_    0.747047 0.502984 0.461706 0.352537
H45   H     H_    0.152483 0.347702 0.408673 0.168974
H46   H     H_    0.847510 0.652299 0.591340 0.168976
H47   H     H_    0.921258 0.330083 0.385585 0.162634
H48   H     H_    0.078740 0.669926 0.614414 0.162637
H49   H     H_    0.652493 0.847718 0.408654 0.168966
H50   H     H_    0.347514 0.152307 0.591340 0.168967
H51   H     H_    0.421263 0.830083 0.385613 0.162675
H52   H     H_    0.578763 0.169952 0.614362 0.162666
H53   H     H_    0.612366 0.338788 0.777219 0.175537
H54   H     H_    0.387633 0.661213 0.222779 0.175537
H55   H     H_    0.388144 0.338469 0.222366 0.177230
H56   H     H_    0.611857 0.661532 0.777636 0.177229
H57   H     H_    0.112367 0.838787 0.777221 0.175537
H58   H     H_    0.887633 0.161212 0.222781 0.175538
H59   H     H_    0.888143 0.838468 0.222364 0.177230
H60   H     H_    0.111856 0.161531 0.777634 0.177230

loop_
_geom_bond_atom_site_label_1
_geom_bond_atom_site_label_2
_ccdc_geom_bond_type
O31   Zn4   S    
C122  C140  A    
C102  O48   A    
C121  C139  A    
C4    O28   A    
C91   C126  S    
C39   H12   S    
C70   C78   A    
C77   H37   S    
C46   H30   S    
C124  C139  A    
C69   C77   A    
O43   Zn12  S    
O2    Zn2   S    
C127  C134  A    
C13   C145  A    
C48   H32   S    
C34   H13   S    
O1    Zn1   S    
C92   C125  S    
O20   Zn4   S    
C49   C104  S    
C71   C79   A    
C46   C86   A    
C49   C57   A    
O13   Zn2   S    
C94   O14   A    
C51   C102  S    
C42   C82   A    
C9    H1    S    
O49   H41   S    
C79   H39   S    
C27   C35   A    
O8    Zn8   S    
O26   Zn5   S    
C92   O20   A    
C134  O50   S    
C108  C115  A    
C117  C145  A    
O25   Zn6   S    
C18   C37   A    
C60   H56   S    
C12   C113  A    
C13   C112  A    
C3    O3    A    
C109  C111  A    
C119  C127  A    
C7    C71   S    
O51   H43   S    
C106  C138  A    
C63   H59   S    
C100  O36   A    
C95   O15   A    
C66   C74   A    
C43   C83   A    
C102  O38   A    
C65   C73   A    
C124  C132  A    
C101  O37   A    
C142  H46   S    
O34   Zn12  S    
C11   C114  A    
C4    O4    A    
C107  C113  A    
C104  O40   A    
C47   H31   S    
C52   C60   A    
C59   C67   A    
C124  C144  A    
C90   O18   A    
C43   H27   S    
C26   C34   A    
C89   O17   A    
C31   C39   A    
C146  H50   S    
C55   C63   A    
C123  C143  A    
C16   C109  A    
C95   C130  S    
C1    C65   S    
C90   C127  S    
C48   C88   A    
O32   Zn3   S    
C10   C142  A    
C78   H38   S    
C74   H34   S    
C62   H58   S    
C93   C132  S    
C64   H60   S    
C121  C129  A    
O47   Zn10  S    
C15   H7    S    
O45   Zn9   S    
C45   H29   S    
C91   O11   A    
C78   C86   A    
O28   Zn7   S    
C104  O46   A    
O42   Zn12  S    
C32   H24   S    
C75   H35   S    
C50   C103  S    
C103  O45   A    
C5    O5    A    
C129  C135  A    
C79   C87   A    
C14   H6    S    
O3    Zn3   S    
C93   O21   A    
C9    C116  A    
C15   C110  A    
C76   C84   A    
C53   C61   A    
C56   C97   S    
C74   C82   A    
O16   Zn3   S    
C19   C83   S    
C96   O16   A    
C41   C49   A    
C105  C109  A    
C99   O41   A    
C58   C66   A    
O11   Zn8   S    
O38   Zn10  S    
C3    O27   A    
C99   O35   A    
C106  C111  A    
C53   C100  S    
O37   Zn9   S    
C14   C111  A    
C52   C101  S    
C21   C85   S    
O9    Zn6   S    
C8    C72   S    
C24   C35   A    
C96   C129  S    
C50   C58   A    
C75   C83   A    
O23   Zn7   S    
C118  C146  A    
C143  H47   S    
O19   Zn3   S    
O22   Zn6   S    
O50   H42   S    
C131  C136  A    
C42   H26   S    
O21   Zn5   S    
C58   H54   S    
C108  C140  A    
C20   C39   A    
C9    C141  A    
O40   Zn9   S    
O33   Zn11  S    
C25   H17   S    
C13   H5    S    
C145  H49   S    
C4    C68   S    
C123  C140  A    
C130  C136  A    
C135  O51   S    
C12   C144  A    
C113  C115  A    
C47   C87   A    
C37   H10   S    
C45   C85   A    
C24   C32   A    
C16   H8    S    
C8    O32   A    
C121  C141  A    
C36   H15   S    
C73   H33   S    
C19   C40   A    
O36   Zn11  S    
C91   O19   A    
C61   H57   S    
C42   C50   A    
C126  C134  A    
C41   C81   A    
C18   C26   A    
C46   C54   A    
C56   C64   A    
O27   Zn8   S    
O18   Zn2   S    
C148  H52   S    
O17   Zn1   S    
C24   C88   S    
O12   Zn7   S    
C60   C68   A    
O15   Zn4   S    
C73   C81   A    
C98   O44   A    
C89   C128  S    
C11   H3    S    
O7    Zn7   S    
C105  C112  A    
C63   C71   A    
O6    Zn6   S    
C2    O26   A    
C20   C84   S    
C1    O25   A    
O35   Zn12  S    
O14   Zn1   S    
C30   H22   S    
C54   C99   S    
C51   C59   A    
C122  C142  A    
C103  O39   A    
C7    O7    A    
O52   H44   S    
C76   H36   S    
C133  O49   S    
C101  O47   A    
C6    O6    A    
C32   C40   A    
C19   C27   A    
C47   C55   A    
O10   Zn5   S    
C106  C110  A    
C21   C29   A    
C61   C69   A    
C89   O9    A    
C6    C70   S    
C22   C33   A    
C41   H25   S    
C26   H18   S    
C22   C30   A    
C120  C148  A    
C123  C131  A    
C119  C138  A    
O5    Zn5   S    
O48   Zn9   S    
C117  C137  A    
C2    O2    A    
C38   H9    S    
C57   C65   A    
C108  C114  A    
C2    C66   S    
C44   C52   A    
C136  O52   S    
C114  C116  A    
C11   C143  A    
C62   C70   A    
C94   O22   A    
C21   C34   A    
C35   H16   S    
C48   C56   A    
C93   O13   A    
C68   C76   A    
C122  C130  A    
C20   C28   A    
C90   O10   A    
C14   C146  A    
C125  C133  A    
C94   C131  S    
O30   Zn1   S    
C59   H55   S    
C16   C148  A    
O44   Zn11  S    
C95   O23   A    
C6    O30   A    
C105  C137  A    
C100  O42   A    
C33   H14   S    
C119  C147  A    
C17   C25   A    
C80   C88   A    
C118  C138  A    
C128  C133  A    
C10   H2    S    
O39   Zn10  S    
C15   C147  A    
C43   C51   A    
C120  C128  A    
C97   O43   A    
C31   H23   S    
C96   O24   A    
C77   C85   A    
C132  C135  A    
C45   C53   A    
C98   O34   A    
C55   C98   S    
C18   C82   S    
C97   O33   A    
C8    O8    A    
C17   C81   S    
C17   C38   A    
C22   C86   S    
C107  C139  A    
C144  H48   S    
C110  C112  A    
C107  C116  A    
C44   H28   S    
O4    Zn4   S    
C44   C84   A    
C28   H20   S    
C57   H53   S    
C12   H4    S    
O41   Zn11  S    
C40   H11   S    
C67   C75   A    
C28   C36   A    
C72   C80   A    
C23   C36   A    
C29   C37   A    
C7    O31   A    
C141  H45   S    
C54   C62   A    
C5    O29   A    
C23   C87   S    
C120  C137  A    
C118  C126  A    
C30   C38   A    
C29   H21   S    
C3    C67   S    
C92   O12   A    
C117  C125  A    
C147  H51   S    
O29   Zn2   S    
C5    C69   S    
C27   H19   S    
O46   Zn10  S    
C10   C115  A    
C64   C72   A    
C25   C33   A    
O24   Zn8   S    
C80   H40   S    
C23   C31   A    
C1    O1    A    
