data_mof_unit_52665.cif
_audit_creation_date              2012-12-11T14:21:06-0500
_audit_creation_method            fapswitch 2.2
_symmetry_space_group_name_H-M    P1
_symmetry_Int_Tables_number       1
_space_group_crystal_system       triclinic
_cell_length_a                    11.50811
_cell_length_b                    11.528107
_cell_length_c                    19.549407
_cell_angle_alpha                 90.508472
_cell_angle_beta                  90.141308
_cell_angle_gamma                 59.895402
_cell_volume                      2243.61981254

loop_
_atom_site_label
_atom_site_type_symbol
_atom_type_description
_atom_site_fract_x
_atom_site_fract_y
_atom_site_fract_z
_atom_type_partial_charge
C1    C     C_R   0.640693 0.117459 0.599229 0.537203
C2    C     C_1   0.651620 0.683791 0.664228 0.001285
C3    C     C_1   0.145647 0.189216 0.862989 0.009990
C4    C     C_1   0.225602 0.146006 0.735397 -0.029627
C5    C     C_1   0.186260 0.165298 0.804855 -0.025161
C6    C     C_1   0.257014 0.133706 0.675833 0.002090
C7    C     C_1   0.678047 0.191477 0.860767 0.007025
C8    C     C_1   0.658502 0.167384 0.729008 -0.031203
C9    C     C_1   0.665270 0.181162 0.800308 -0.029583
C10   C     C_1   0.653209 0.149720 0.668612 0.001937
C11   C     C_R   0.651759 0.659470 0.197032 0.027982
C12   C     C_R   0.613902 0.743447 0.598003 0.534988
C13   C     C_R   0.572599 0.623002 0.239758 0.006765
C14   C     C_R   0.599603 0.607723 0.309905 0.015875
C15   C     C_R   0.732087 0.717507 0.297014 -0.168102
C16   C     C_R   0.725684 0.713140 0.226527 -0.018246
C17   C     C_R   0.463523 0.606800 0.216760 -0.094161
C18   C     C_R   0.395942 0.566127 0.260754 -0.152754
C19   C     C_R   0.437493 0.534409 0.327903 -0.111113
C20   C     C_R   0.542394 0.549882 0.351824 -0.075244
C21   C     C_R   0.666305 0.669214 0.338509 -0.017032
C22   C     C_R   0.150387 0.205484 0.192972 0.018615
C23   C     C_R   0.297115 0.120596 0.605408 0.557319
C24   C     C_R   0.125229 0.313561 0.238445 0.007737
C25   C     C_R   0.115491 0.296956 0.308833 0.019441
C26   C     C_R   0.224719 0.056057 0.289476 -0.169292
C27   C     C_R   0.209331 0.074787 0.218844 -0.012479
C28   C     C_R   0.115562 0.435611 0.217218 -0.087514
C29   C     C_R   0.076167 0.542621 0.262819 -0.145614
C30   C     C_R   0.042678 0.532168 0.329717 -0.121107
C31   C     C_R   0.059531 0.410822 0.352511 -0.078727
C32   C     C_R   0.177664 0.165852 0.334779 -0.017829
C33   C     C_R   0.694210 0.177300 0.198086 0.021816
C34   C     C_R   0.645618 0.115208 0.403965 0.536348
C35   C     C_R   0.808613 0.086582 0.239257 0.034744
C36   C     C_R   0.795801 0.098691 0.310663 0.015459
C37   C     C_R   0.553370 0.233957 0.296827 -0.141489
C38   C     C_R   0.568106 0.249176 0.227960 -0.142886
C39   C     C_R   0.933163 0.979935 0.213640 -0.086340
C40   C     C_R   0.041687 0.905023 0.256841 -0.158367
C41   C     C_R   0.033077 0.937471 0.325694 -0.122174
C42   C     C_R   0.911326 0.035655 0.352548 -0.087712
C43   C     C_R   0.666542 0.160211 0.338546 -0.006824
C44   C     C_R   0.084081 0.229928 0.929212 0.551160
C45   C     C_R   0.621067 0.733697 0.404487 0.538142
C46   C     C_R   0.708960 0.546392 0.922569 0.555651
C47   C     C_R   0.707953 0.206621 0.930146 0.548944
C48   C     C_R   0.085628 0.236661 0.125099 0.590287
C49   C     C_R   0.680716 0.610228 0.126599 0.623239
C50   C     C_R   0.711952 0.209531 0.127980 0.560151
C51   C     C_R   0.240185 0.141722 0.402378 0.544050
C52   C     C_1   0.698434 0.581632 0.851799 0.004156
C53   C     C_1   0.672822 0.645386 0.722449 -0.027808
C54   C     C_1   0.688795 0.609484 0.792032 -0.027701
Cr1   Cr    Cr6+3 0.404720 0.198220 0.499960 1.013780
Cr2   Cr    Cr6+3 0.698290 0.897110 0.500380 1.014640
Cr3   Cr    Cr6+3 0.396970 0.904720 0.499610 1.019354
Cr4   Cr    Cr6+3 0.926180 0.151990 0.028120 1.064818
Cr5   Cr    Cr6+3 0.921330 0.451820 0.027470 1.062417
Cr6   Cr    Cr6+3 0.626260 0.446870 0.028710 1.035362
H1    H     H_    0.778429 0.770817 0.319393 0.140156
H2    H     H_    0.071488 0.633922 0.246101 0.095627
H3    H     H_    0.008554 0.616448 0.364661 0.116747
H4    H     H_    0.037071 0.403800 0.405576 0.125984
H5    H     H_    0.452303 0.277787 0.317048 0.150605
H6    H     H_    0.947501 0.941452 0.162092 0.166125
H7    H     H_    0.480435 0.312502 0.197398 0.128217
H8    H     H_    0.132657 0.821022 0.236723 0.094403
H9    H     H_    0.118952 0.882688 0.358785 0.122598
H10   H     H_    0.905757 0.056342 0.406956 0.127586
H11   H     H_    0.418688 0.635719 0.166869 0.154974
H12   H     H_    0.312241 0.557282 0.242130 0.102463
H13   H     H_    0.386790 0.500326 0.361839 0.117177
H14   H     H_    0.571614 0.526765 0.404905 0.118223
H15   H     H_    0.281428 0.954689 0.308855 0.134638
H16   H     H_    0.146824 0.447662 0.167043 0.145322
O1    O     O_R   0.267740 0.231960 0.575440 -0.505121
O2    O     O_R   0.685970 0.784660 0.430010 -0.507018
O3    O     O_R   0.502530 0.767000 0.423990 -0.517055
O4    O     O_R   0.288330 0.026350 0.429250 -0.498127
O5    O     O_3   0.499990 0.000020 0.499980 -0.262525
O6    O     O_R   0.821500 0.119340 0.952830 -0.494193
O7    O     O_R   0.037130 0.162530 0.957360 -0.484555
O8    O     O_R   0.056440 0.344740 0.951340 -0.513436
O9    O     O_R   0.797900 0.560360 0.957470 -0.473013
O10   O     O_R   0.596130 0.579390 0.952730 -0.484519
O11   O     O_R   0.639060 0.321160 0.958670 -0.512294
O12   O     O_R   0.527280 0.186640 0.570530 -0.510616
O13   O     O_R   0.821240 0.124200 0.104370 -0.524579
O14   O     O_R   0.036890 0.167040 0.097840 -0.461440
O15   O     O_R   0.056180 0.349610 0.102880 -0.541052
O16   O     O_R   0.797660 0.564870 0.097950 -0.457220
O17   O     O_R   0.595880 0.584250 0.104270 -0.531412
O18   O     O_R   0.638830 0.325670 0.099150 -0.503579
O19   O     O_3   0.824590 0.350230 0.028100 -0.297190
O20   O     O_R   0.728090 0.003450 0.576380 -0.504723
O21   O     O_R   0.682970 0.789190 0.570490 -0.495523
O22   O     O_R   0.499290 0.771880 0.575530 -0.514116
O23   O     O_R   0.285330 0.030870 0.569730 -0.491000
O24   O     O_R   0.270980 0.227080 0.423890 -0.516183
O25   O     O_R   0.530280 0.182120 0.430050 -0.506776
O26   O     O_R   0.731330 0.998570 0.424830 -0.520467
C55   C     C_2   0.785174 0.778849 0.186184 0.235914
H17   H     H_    0.860012 0.796618 0.209439 0.088280
O27   O     O_2   0.746952 0.819595 0.128377 -0.478528
C56   C     C_2   0.269749 0.954988 0.173707 0.239600
H18   H     H_    0.295003 0.859296 0.194656 0.083007
O28   O     O_2   0.297589 0.960590 0.114051 -0.478063

loop_
_geom_bond_atom_site_label_1
_geom_bond_atom_site_label_2
_ccdc_geom_bond_type
C25   C31   A    
C23   O23   A    
C26   C32   A    
C41   C42   A    
Cr3   O3    S    
C22   C48   S    
C35   C36   A    
C44   O7    A    
C2    C12   S    
Cr2   O5    S    
C53   C54   S    
C26   C27   A    
C29   C30   A    
C14   C21   A    
C28   C29   A    
Cr4   O6    S    
C30   C31   A    
Cr1   O1    S    
C56   H18   S    
Cr3   O22   S    
C15   C16   A    
Cr3   O23   S    
C46   C52   S    
C42   H10   S    
Cr2   O2    S    
C7    C9    T    
C18   C19   A    
C47   O6    A    
Cr1   O12   S    
C51   O4    A    
C50   O13   A    
C36   C42   A    
C19   C20   A    
C8    C9    S    
C48   O15   A    
C37   H5    S    
Cr1   O24   S    
C45   O2    A    
Cr1   O5    S    
C12   O22   A    
C46   O9    A    
Cr6   O17   S    
C25   C32   A    
C48   O14   A    
C30   H3    S    
Cr3   O4    S    
Cr5   O19   S    
Cr2   O21   S    
Cr6   O11   S    
C52   C54   T    
C26   H15   S    
C21   C45   S    
C18   H12   S    
C3    C44   S    
C34   O25   A    
C34   C43   S    
C14   C20   A    
C19   H13   S    
Cr5   O8    S    
C45   O3    A    
C39   C40   A    
Cr6   O10   S    
C50   O18   A    
Cr5   O15   S    
C27   C56   S    
C44   O8    A    
C33   C50   S    
C23   O1    A    
C47   O11   A    
C37   C43   A    
C35   C39   A    
Cr4   O19   S    
Cr5   O9    S    
C32   C51   S    
C37   C38   A    
C11   C49   S    
C11   C16   A    
C16   C55   S    
C17   C18   A    
C15   H1    S    
C20   H14   S    
C55   O27   D    
C34   O26   A    
C24   C25   A    
Cr4   O14   S    
C12   O21   A    
C4    C6    T    
C40   C41   A    
C17   H11   S    
C22   C27   A    
C39   H6    S    
C22   C24   A    
C49   O16   A    
C28   H16   S    
C41   H9    S    
C51   O24   A    
Cr2   O20   S    
C29   H2    S    
C31   H4    S    
C1    C10   S    
C24   C28   A    
C4    C5    S    
C3    C5    T    
C2    C53   T    
Cr1   O25   S    
C33   C38   A    
C13   C17   A    
Cr2   O26   S    
Cr4   O7    S    
C11   C13   A    
C56   O28   D    
C1    O12   A    
C1    O20   A    
C6    C23   S    
C33   C35   A    
Cr3   O5    S    
Cr5   O16   S    
Cr4   O13   S    
Cr6   O19   S    
C15   C21   A    
C38   H7    S    
C8    C10   T    
C40   H8    S    
C55   H17   S    
C36   C43   A    
C49   O17   A    
C13   C14   A    
C7    C47   S    
C46   O10   A    
Cr6   O18   S    
