data_mof_unit_66300.cif
_audit_creation_date              2013-03-05T16:28:13-0500
_audit_creation_method            fapswitch 2.2
_symmetry_space_group_name_H-M    P1
_symmetry_Int_Tables_number       1
_space_group_crystal_system       triclinic
_cell_length_a                    17.044799
_cell_length_b                    18.303037
_cell_length_c                    19.604753
_cell_angle_alpha                 90.272128
_cell_angle_beta                  91.488469
_cell_angle_gamma                 86.518378
_cell_volume                      6102.74676931

loop_
_atom_site_label
_atom_site_type_symbol
_atom_site_description
_atom_site_fract_x
_atom_site_fract_y
_atom_site_fract_z
_atom_type_partial_charge
O1    O     O_R   0.500030 0.438020 0.599820 -0.529384
O2    O     O_R   0.499970 0.561980 0.400180 -0.557100
O3    O     O_R   0.500000 0.561930 0.599810 -0.520839
O4    O     O_R   0.500000 0.438070 0.400190 -0.506780
C1    C     C_R   0.494356 0.500675 0.631980 0.869949
C2    C     C_R   0.504824 0.499758 0.367847 0.872835
O5    O     O_R   0.613620 0.430860 0.500010 -0.607022
O6    O     O_R   0.386380 0.569140 0.499990 -0.537715
O7    O     O_R   0.613580 0.554770 0.500010 -0.536899
O8    O     O_R   0.386420 0.445230 0.499990 -0.588398
C3    C     C_R   0.650118 0.490554 0.502703 0.773012
C4    C     C_R   0.349212 0.509411 0.500697 0.755514
Cu1   Cu    Cu3+1 0.500020 0.426640 0.500000 0.972337
Cu2   Cu    Cu3+1 0.499980 0.573360 0.500000 1.002181
C5    C     C_R   0.733268 0.485126 0.520861 -0.043488
C6    C     C_R   0.263119 0.514956 0.506418 -0.085124
C7    C     C_R   0.789109 0.462311 0.473245 -0.346622
C8    C     C_R   0.222100 0.452073 0.515781 -0.330611
C9    C     C_R   0.869520 0.460251 0.491606 0.497543
C10   C     C_R   0.140437 0.456092 0.525127 0.474253
C11   C     C_R   0.892111 0.479213 0.558975 0.082395
C12   C     C_R   0.100319 0.526154 0.528191 0.031163
C13   C     C_R   0.835364 0.496278 0.607537 -0.291799
C14   C     C_R   0.141518 0.588809 0.516459 -0.241682
C15   C     C_R   0.756192 0.498981 0.588447 -0.187383
C16   C     C_R   0.221810 0.583341 0.505544 -0.202755
C17   C     C_2   0.975281 0.488288 0.576459 0.386024
C18   C     C_2   0.014427 0.535837 0.538930 0.316870
H1    H     H_    0.770013 0.446874 0.422380 0.127671
H2    H     H_    0.253748 0.399724 0.515857 0.152266
H3    H     H_    0.251699 0.633089 0.498365 0.206134
H4    H     H_    0.712542 0.511743 0.626347 0.146118
H5    H     H_    0.852393 0.510518 0.659260 0.142950
H6    H     H_    0.112032 0.642754 0.516680 0.168053
C19   C     C_R   0.548549 0.555484 0.256923 0.271927
C20   C     C_R   0.499492 0.438703 0.745624 0.278966
C21   C     C_R   0.558332 0.547457 0.185187 0.395855
C22   C     C_R   0.516698 0.445370 0.814859 0.408428
C23   C     C_R   0.510126 0.499181 0.148130 -0.147396
C24   C     C_R   0.483703 0.506270 0.851100 -0.165538
C25   C     C_R   0.469930 0.448316 0.185519 0.362252
C26   C     C_R   0.445149 0.564635 0.813078 0.351695
C27   C     C_R   0.488405 0.439114 0.254469 0.284859
C28   C     C_R   0.453840 0.566462 0.741197 0.313140
C29   C     C_R   0.513814 0.498831 0.292493 -0.391026
C30   C     C_R   0.483144 0.502451 0.707001 -0.422828
C31   C     C_R   0.499510 0.437105 0.032752 0.332319
C32   C     C_R   0.503374 0.570523 0.965477 0.311382
C33   C     C_R   0.477329 0.442020 0.963591 0.315898
C34   C     C_R   0.497692 0.569588 0.036786 0.307952
C35   C     C_R   0.488369 0.506722 0.927388 -0.211189
C36   C     C_R   0.501504 0.501942 0.071905 -0.204647
C37   C     C_R   0.531477 0.275343 0.553405 0.419759
C38   C     C_R   0.437827 0.726093 0.473208 0.419504
C39   C     C_R   0.522207 0.199261 0.555849 0.227687
C40   C     C_R   0.436399 0.803181 0.478541 0.241222
C41   C     C_R   0.507043 0.160776 0.494450 -0.156399
C42   C     C_R   0.506783 0.837918 0.493990 -0.170561
C43   C     C_R   0.484762 0.203076 0.436146 0.193932
C44   C     C_R   0.572830 0.791994 0.514026 0.171236
C45   C     C_R   0.469689 0.280325 0.444410 0.396693
C46   C     C_R   0.563961 0.716815 0.526439 0.425575
N1    N     N_R   0.500010 0.316380 0.499980 -0.294592
N2    N     N_R   0.499990 0.683620 0.500020 -0.279542
C47   C     C_R   0.462225 0.040197 0.447080 -0.322308
C48   C     C_R   0.560006 0.957784 0.536219 -0.305937
H7    H     H_    0.419103 0.069958 0.415330 0.194693
H8    H     H_    0.595196 0.928413 0.574967 0.225053
C49   C     C_R   0.467155 0.963585 0.441308 0.459342
C50   C     C_R   0.567549 0.033638 0.531530 0.448363
C51   C     C_R   0.511039 0.920479 0.490464 0.025114
C52   C     C_R   0.513136 0.077528 0.490887 0.029425
O9    O     O_3   0.511997 0.368729 0.062408 -0.509332
C53   C     C_3   0.581729 0.333088 0.037695 0.097314
H9    H     H_    0.632142 0.345908 0.071777 0.108951
H10   H     H_    0.596102 0.349013 0.985021 0.153204
C54   C     C_3   0.573331 0.250835 0.037025 -0.747389
H11   H     H_    0.525557 0.237156 0.000419 0.262275
H12   H     H_    0.629210 0.222198 0.021076 0.188118
H13   H     H_    0.559067 0.231470 0.088467 0.239687
O10   O     O_3   0.516144 0.636030 0.934141 -0.487089
C55   C     C_3   0.596271 0.636383 0.917992 0.123897
H14   H     H_    0.612432 0.592456 0.880600 0.113470
H15   H     H_    0.634567 0.629448 0.964765 0.126129
C56   C     C_3   0.611258 0.709346 0.885579 -0.763594
H16   H     H_    0.597070 0.754702 0.921897 0.253476
H17   H     H_    0.674047 0.710213 0.872023 0.180516
H18   H     H_    0.574045 0.717462 0.838533 0.257021
O11   O     O_3   0.447092 0.381899 0.931867 -0.518406
C57   C     C_3   0.365679 0.382122 0.944624 0.097114
H19   H     H_    0.332071 0.410130 0.901920 0.114804
H20   H     H_    0.348104 0.410403 0.993001 0.127078
C58   C     C_3   0.341898 0.303571 0.949281 -0.780834
H21   H     H_    0.371706 0.276463 0.994303 0.259645
H22   H     H_    0.277288 0.303048 0.954967 0.191165
H23   H     H_    0.358719 0.272478 0.902650 0.249165
O12   O     O_3   0.492346 0.635479 0.071437 -0.490439
C59   C     C_3   0.412473 0.652581 0.085260 0.120281
H24   H     H_    0.389626 0.611591 0.120248 0.114243
H25   H     H_    0.375843 0.654848 0.037348 0.135976
C60   C     C_3   0.404547 0.727162 0.119454 -0.778280
H26   H     H_    0.426804 0.769179 0.085461 0.252332
H27   H     H_    0.341805 0.741813 0.129767 0.190000
H28   H     H_    0.438819 0.726048 0.168450 0.265817
O13   O     O_3   0.567131 0.308619 0.608097 -0.527421
C61   C     C_3   0.649304 0.308028 0.599311 0.165381
H29   H     H_    0.668014 0.363228 0.613698 0.166492
H30   H     H_    0.668072 0.297598 0.545716 0.099445
C62   C     C_3   0.691875 0.252066 0.647135 -0.366807
H31   H     H_    0.669692 0.259378 0.699633 0.248686
H32   H     H_    0.679764 0.196070 0.629926 0.262431
C63   C     C_3   0.780527 0.259969 0.648290 -0.940049
H33   H     H_    0.803889 0.251976 0.596239 0.266673
H34   H     H_    0.809882 0.218055 0.682616 0.262475
H35   H     H_    0.794358 0.315089 0.667429 0.271741
O14   O     O_3   0.373123 0.693649 0.446020 -0.581326
C64   C     C_3   0.373519 0.698405 0.374116 0.100673
H36   H     H_    0.433732 0.687915 0.353773 0.178058
H37   H     H_    0.350232 0.753824 0.357718 0.162224
C65   C     C_3   0.320540 0.641351 0.343769 -0.309843
H38   H     H_    0.340306 0.586158 0.363157 0.222129
H39   H     H_    0.259111 0.653860 0.359856 0.215783
C66   C     C_3   0.322512 0.640083 0.266065 -0.970949
H40   H     H_    0.302088 0.694438 0.245201 0.261104
H41   H     H_    0.283207 0.598452 0.245770 0.248897
H42   H     H_    0.383138 0.625544 0.249108 0.274064
O15   O     O_3   0.534582 0.163740 0.617645 -0.547564
C67   C     C_3   0.461985 0.141870 0.641234 0.102656
H43   H     H_    0.435798 0.101847 0.605796 0.131499
H44   H     H_    0.419391 0.189829 0.646672 0.114742
C68   C     C_3   0.475752 0.105384 0.710728 -0.298009
H45   H     H_    0.517697 0.056861 0.705501 0.229765
H46   H     H_    0.502065 0.144448 0.746992 0.226104
C69   C     C_3   0.399147 0.080981 0.739275 -0.956547
H47   H     H_    0.356794 0.128817 0.746144 0.266906
H48   H     H_    0.411226 0.054539 0.789619 0.262089
H49   H     H_    0.372561 0.040905 0.704241 0.254055
O16   O     O_3   0.366008 0.843183 0.467052 -0.545883
C70   C     C_3   0.331951 0.859374 0.530650 0.089430
H50   H     H_    0.373359 0.887536 0.565452 0.126005
H51   H     H_    0.314888 0.808084 0.555249 0.131328
C71   C     C_3   0.258498 0.910251 0.519116 -0.303226
H52   H     H_    0.274846 0.960863 0.493220 0.228393
H53   H     H_    0.215717 0.882607 0.485616 0.221752
C72   C     C_3   0.219887 0.931072 0.586410 -0.960022
H54   H     H_    0.202230 0.881333 0.612868 0.254880
H55   H     H_    0.166616 0.967761 0.576245 0.261831
H56   H     H_    0.261145 0.960330 0.620052 0.255656
O17   O     O_3   0.499815 0.171641 0.372478 -0.575473
C73   C     C_3   0.435165 0.178819 0.325992 0.095504
H57   H     H_    0.429776 0.234182 0.303193 0.223111
H58   H     H_    0.379391 0.165827 0.349906 0.115984
C74   C     C_3   0.448990 0.124834 0.267686 -0.830592
H59   H     H_    0.452308 0.068016 0.287391 0.255140
H60   H     H_    0.399825 0.131143 0.229477 0.205318
H61   H     H_    0.504888 0.134897 0.242457 0.254239
O18   O     O_3   0.645907 0.819932 0.522445 -0.581832
C75   C     C_3   0.688248 0.806722 0.462177 0.094152
H62   H     H_    0.650597 0.813194 0.414822 0.116249
H63   H     H_    0.716282 0.750346 0.463544 0.174345
C76   C     C_3   0.751956 0.861110 0.458067 -0.819452
H64   H     H_    0.790700 0.857770 0.504431 0.256072
H65   H     H_    0.788059 0.848896 0.412604 0.199297
H66   H     H_    0.724597 0.917560 0.453622 0.244640
O19   O     O_3   0.427394 0.319953 0.395107 -0.517034
C77   C     C_3   0.346511 0.317728 0.407900 0.094381
H67   H     H_    0.334235 0.328849 0.462169 0.138545
H68   H     H_    0.324662 0.263307 0.396091 0.087403
C78   C     C_3   0.300718 0.373827 0.362853 -0.735984
H69   H     H_    0.308337 0.358946 0.308381 0.243663
H70   H     H_    0.237193 0.375100 0.374200 0.184842
H71   H     H_    0.322310 0.429167 0.371687 0.245916
O20   O     O_3   0.619578 0.676821 0.565774 -0.533425
C79   C     C_3   0.615631 0.702763 0.633924 0.120337
H72   H     H_    0.643717 0.755839 0.639053 0.158741
H73   H     H_    0.553743 0.710112 0.651166 0.163042
C80   C     C_3   0.659251 0.648394 0.681853 -0.801125
H74   H     H_    0.660088 0.671007 0.734482 0.198263
H75   H     H_    0.628986 0.596441 0.682285 0.243750
H76   H     H_    0.720776 0.637823 0.665578 0.245964
O21   O     O_3   0.428875 0.932614 0.386349 -0.567314
C81   C     C_3   0.485323 0.910189 0.337720 0.060214
H77   H     H_    0.519590 0.859814 0.355353 0.131599
H78   H     H_    0.526737 0.953904 0.328459 0.134452
C82   C     C_3   0.443330 0.893313 0.270261 -0.330166
H79   H     H_    0.404609 0.847382 0.277421 0.217959
H80   H     H_    0.406163 0.942238 0.253415 0.222415
C83   C     C_3   0.502203 0.872672 0.215039 -0.924191
H81   H     H_    0.542980 0.917042 0.208347 0.256320
H82   H     H_    0.470258 0.864655 0.165839 0.262425
H83   H     H_    0.536643 0.821112 0.228797 0.264643
O22   O     O_3   0.629548 0.062680 0.567012 -0.576352
C84   C     C_3   0.686675 0.082842 0.520541 0.083548
H84   H     H_    0.677490 0.142343 0.509608 0.149049
H85   H     H_    0.684608 0.052468 0.470938 0.122355
C85   C     C_3   0.768460 0.067392 0.552994 -0.343501
H86   H     H_    0.772493 0.096072 0.602893 0.232151
H87   H     H_    0.778390 0.007606 0.562230 0.224283
C86   C     C_3   0.832474 0.092530 0.507068 -0.924778
H88   H     H_    0.830964 0.062944 0.457483 0.256777
H89   H     H_    0.890991 0.080765 0.532192 0.259368
H90   H     H_    0.824181 0.152374 0.497769 0.257808
O23   O     O_3   0.972387 0.593389 0.505795 -0.639843
C87   C     C_3   0.950957 0.648885 0.553930 0.006328
H91   H     H_    0.990451 0.694517 0.548798 0.155638
H92   H     H_    0.955612 0.630510 0.608271 0.110115
C88   C     C_3   0.866503 0.678536 0.539324 -0.316896
H93   H     H_    0.862703 0.705776 0.488704 0.218594
H94   H     H_    0.826682 0.632786 0.538153 0.241215
C89   C     C_3   0.839385 0.733176 0.594191 -0.909993
H95   H     H_    0.843773 0.707180 0.645337 0.246433
H96   H     H_    0.777156 0.751818 0.584076 0.297530
H97   H     H_    0.875896 0.781414 0.594270 0.247601
O24   O     O_3   0.012966 0.441661 0.624087 -0.609632
C90   C     C_3   0.033840 0.481406 0.683256 0.006504
H98   H     H_    0.984311 0.482154 0.719113 0.157045
H99   H     H_    0.047209 0.539138 0.672735 0.102455
C91   C     C_3   0.106897 0.443129 0.717199 -0.308586
H100  H     H_    0.096445 0.384588 0.725954 0.223031
H101  H     H_    0.157376 0.445897 0.682753 0.200020
C92   C     C_3   0.127895 0.478803 0.785253 -0.950834
H102  H     H_    0.138319 0.537478 0.777944 0.259735
H103  H     H_    0.182344 0.450893 0.807363 0.249965
H104  H     H_    0.079622 0.474133 0.821663 0.259266
O25   O     O_3   0.097356 0.393642 0.522101 -0.574169
C93   C     C_3   0.133248 0.333884 0.559686 0.131931
H105  H     H_    0.087574 0.310950 0.591310 0.184899
H106  H     H_    0.180078 0.349533 0.596786 0.104745
C94   C     C_3   0.163553 0.273604 0.510797 -0.368688
H107  H     H_    0.112941 0.244749 0.489272 0.226234
H108  H     H_    0.193363 0.297908 0.467565 0.212486
C95   C     C_3   0.221084 0.218412 0.546806 -0.976837
H109  H     H_    0.274063 0.245738 0.565439 0.238699
H110  H     H_    0.239955 0.174467 0.510459 0.258112
H111  H     H_    0.192706 0.193341 0.590597 0.267816
O26   O     O_3   0.927014 0.434808 0.446934 -0.592876
C96   C     C_3   0.921442 0.474536 0.385185 0.055410
H112  H     H_    0.908661 0.534188 0.394275 0.178383
H113  H     H_    0.874760 0.453158 0.351241 0.133292
C97   C     C_3   0.999945 0.464718 0.349340 -0.281231
H114  H     H_    0.047399 0.484933 0.383118 0.239130
H115  H     H_    0.013687 0.405605 0.339048 0.222193
C98   C     C_3   0.997847 0.506604 0.282136 -0.948330
H116  H     H_    0.951622 0.486525 0.247049 0.256538
H117  H     H_    0.055606 0.498314 0.257427 0.259414
H118  H     H_    0.985751 0.566090 0.291463 0.264547
O27   O     O_3   0.557913 0.622239 0.289471 -0.591228
C99   C     C_3   0.637338 0.640147 0.295460 0.087701
H119  H     H_    0.638273 0.700777 0.294191 0.143623
H120  H     H_    0.674228 0.619841 0.253538 0.180528
C100  C     C_3   0.674206 0.613365 0.363181 -0.345048
H121  H     H_    0.643185 0.642399 0.405404 0.246150
H122  H     H_    0.668091 0.553550 0.367901 0.201390
C101  C     C_3   0.761273 0.628099 0.368062 -0.995162
H123  H     H_    0.793996 0.596626 0.328177 0.253186
H124  H     H_    0.785474 0.610760 0.418841 0.269908
H125  H     H_    0.769648 0.687330 0.361532 0.252997
O28   O     O_3   0.501659 0.369649 0.716792 -0.515879
C102  C     C_3   0.423477 0.351585 0.699890 0.176601
H126  H     H_    0.425422 0.313956 0.655591 0.164056
H127  H     H_    0.383973 0.399475 0.683217 0.087036
C103  C     C_3   0.387251 0.313202 0.759380 -0.370058
H128  H     H_    0.423678 0.262694 0.772785 0.243233
H129  H     H_    0.386224 0.350288 0.804103 0.243634
C104  C     C_3   0.303229 0.293748 0.741887 -0.999492
H130  H     H_    0.265585 0.344113 0.730534 0.259241
H131  H     H_    0.278704 0.265675 0.785898 0.270203
H132  H     H_    0.302146 0.256661 0.696953 0.256003
O29   O     O_3   0.610873 0.589679 0.152394 -0.559874
C105  C     C_3   0.671399 0.544471 0.121841 0.058320
H133  H     H_    0.702393 0.579118 0.086204 0.156524
H134  H     H_    0.648405 0.499968 0.089932 0.127267
C106  C     C_3   0.732329 0.511778 0.174325 -0.420255
H135  H     H_    0.767741 0.555825 0.195741 0.213708
H136  H     H_    0.702499 0.485474 0.216667 0.203370
C107  C     C_3   0.788240 0.454373 0.141572 -0.915301
H137  H     H_    0.755175 0.408060 0.121528 0.248230
H138  H     H_    0.832245 0.432830 0.180336 0.254860
H139  H     H_    0.819644 0.478959 0.099232 0.253926
O30   O     O_3   0.562772 0.389589 0.846089 -0.538863
C108  C     C_3   0.640111 0.412343 0.857599 0.050820
H140  H     H_    0.672543 0.369499 0.888945 0.155719
H141  H     H_    0.640426 0.463766 0.888019 0.095035
C109  C     C_3   0.684546 0.420168 0.790880 -0.345350
H142  H     H_    0.679107 0.370221 0.759338 0.248328
H143  H     H_    0.658887 0.467927 0.761402 0.189672
C110  C     C_3   0.771424 0.431352 0.804952 -0.945757
H144  H     H_    0.778241 0.481958 0.835493 0.250643
H145  H     H_    0.801571 0.436739 0.755882 0.257526
H146  H     H_    0.799684 0.383741 0.833007 0.260539
O31   O     O_3   0.416392 0.403795 0.155189 -0.529549
C111  C     C_3   0.340196 0.436967 0.163201 0.069513
H147  H     H_    0.330940 0.484458 0.127988 0.111655
H148  H     H_    0.330652 0.456118 0.216704 0.133935
C112  C     C_3   0.279648 0.381114 0.145845 -0.311083
H149  H     H_    0.286156 0.362622 0.092161 0.220310
H150  H     H_    0.290124 0.332644 0.179550 0.222020
C113  C     C_3   0.196039 0.413616 0.155285 -0.959619
H151  H     H_    0.187687 0.430602 0.209228 0.257826
H152  H     H_    0.153448 0.371932 0.141976 0.261657
H153  H     H_    0.183980 0.461788 0.121524 0.255752
O32   O     O_3   0.404135 0.622020 0.845260 -0.545874
C114  C     C_3   0.333155 0.597483 0.870447 0.056199
H154  H     H_    0.344958 0.560619 0.914815 0.134382
H155  H     H_    0.299948 0.567680 0.830546 0.115672
C115  C     C_3   0.281359 0.663453 0.893918 -0.318013
H156  H     H_    0.315205 0.696703 0.930481 0.235334
H157  H     H_    0.263303 0.698393 0.849383 0.202278
C116  C     C_3   0.207852 0.639521 0.928283 -0.960763
H158  H     H_    0.172658 0.606781 0.892320 0.262493
H159  H     H_    0.171181 0.688562 0.944165 0.260671
H160  H     H_    0.224360 0.606252 0.974289 0.247813
O33   O     O_3   0.481210 0.371387 0.283164 -0.531180
C117  C     C_3   0.557408 0.335562 0.289967 0.146407
H161  H     H_    0.556426 0.294556 0.331076 0.206425
H162  H     H_    0.603924 0.372951 0.306098 0.087321
C118  C     C_3   0.580338 0.295775 0.224049 -0.363185
H163  H     H_    0.531280 0.262814 0.205931 0.248499
H164  H     H_    0.591408 0.336886 0.184731 0.231720
C119  C     C_3   0.654550 0.245791 0.234499 -0.952019
H165  H     H_    0.704299 0.278084 0.252341 0.258002
H166  H     H_    0.670250 0.218836 0.185448 0.260100
H167  H     H_    0.644630 0.202792 0.272605 0.278090
O34   O     O_3   0.438656 0.630438 0.703943 -0.583813
C120  C     C_3   0.358097 0.654847 0.701739 0.115994
H168  H     H_    0.351904 0.700261 0.664192 0.139185
H169  H     H_    0.339923 0.680052 0.750557 0.175987
C121  C     C_3   0.302252 0.596303 0.678009 -0.390466
H170  H     H_    0.319557 0.576314 0.626937 0.229337
H171  H     H_    0.305777 0.548798 0.713129 0.189519
C122  C     C_3   0.217387 0.627849 0.674898 -0.933232
H172  H     H_    0.199394 0.648114 0.725996 0.248166
H173  H     H_    0.178258 0.584500 0.658560 0.267099
H174  H     H_    0.210642 0.673609 0.637788 0.255300

loop_
_geom_bond_atom_site_label_1
_geom_bond_atom_site_label_2
_geom_bond_distance
_ccdc_geom_bond_type
O18   C75   1.412697 S    
O31   C111  1.412087 S    
C72   H54   1.110994 S    
C50   O22   1.381922 S    
C23   C25   1.408361 A    
C108  C109  1.539955 S    
C83   H83   1.111212 S    
C109  H142  1.108442 S    
C64   H37   1.112354 S    
C70   C71   1.526911 S    
C41   C43   1.414332 A    
C61   H29   1.110752 S    
C42   C44   1.411866 A    
C106  C107  1.525852 S    
C44   C46   1.416257 A    
C45   N1    1.376517 A    
C81   H77   1.112612 S    
C101  H124  1.108002 S    
C3    C5    1.449932 S    
C4    C6    1.471943 S    
O34   C120  1.417553 S    
C33   C35   1.408387 A    
C38   O14   1.378067 S    
C88   C89   1.526526 S    
C34   C36   1.416757 A    
C110  H145  1.109952 S    
C32   C34   1.404122 A    
C86   H88   1.110969 S    
C60   H27   1.110106 S    
C25   C27   1.388653 A    
C26   C28   1.421550 A    
C69   H49   1.111093 S    
C76   H65   1.110375 S    
C28   C30   1.417904 A    
C43   O17   1.395252 S    
C119  H167  1.111020 S    
C114  H155  1.113682 S    
C66   H42   1.110291 S    
C117  H161  1.105029 S    
C54   H11   1.110611 S    
C14   H6    1.080406 S    
C81   C82   1.526614 S    
C118  C119  1.525357 S    
C90   H98   1.111927 S    
C94   H107  1.111538 S    
C57   H20   1.117331 S    
C114  H154  1.110091 S    
Cu1   N1    2.018103 S    
Cu2   N2    2.018100 S    
C95   H110  1.110500 S    
C115  H156  1.110860 S    
C44   O18   1.380619 S    
C74   H61   1.110394 S    
C79   C80   1.519428 S    
C55   H15   1.114902 S    
C39   C41   1.417680 A    
C75   H62   1.117442 S    
C105  H134  1.108865 S    
C113  H151  1.111137 S    
C19   C29   1.419463 A    
C72   H56   1.111131 S    
C57   C58   1.521069 S    
C109  C110  1.525078 S    
C85   H86   1.110537 S    
C102  H127  1.117199 S    
C103  H129  1.106130 S    
C70   H50   1.115866 S    
C31   C36   1.411941 A    
C55   C56   1.519995 S    
C1    C30   1.487995 S    
C111  H148  1.117143 S    
C48   C50   1.405709 A    
O2    Cu2   1.967015 S    
O5    Cu1   1.942505 S    
C94   H108  1.108078 S    
C84   H84   1.111859 S    
C62   H31   1.110373 S    
C49   O21   1.382248 S    
C37   C39   1.412131 A    
C9    O26   1.389072 S    
C63   H34   1.110203 S    
O12   C59   1.411189 S    
C57   H19   1.111463 S    
C66   H40   1.110260 S    
C112  H150  1.111640 S    
C56   H16   1.110638 S    
C53   H10   1.111784 S    
C9    C11   1.413697 A    
C14   C16   1.388215 A    
C94   C95   1.526723 S    
C62   H32   1.107091 S    
C82   H80   1.111445 S    
O26   C96   1.413248 S    
C83   H82   1.108817 S    
C120  H169  1.103906 S    
C79   H72   1.111793 S    
C80   H75   1.109189 S    
C53   C54   1.520864 S    
C86   H90   1.111178 S    
C46   N2    1.369106 A    
C20   C30   1.403670 A    
C20   O28   1.380920 S    
O33   C117  1.422310 S    
C84   C85   1.528330 S    
C24   C26   1.423203 A    
C58   H22   1.110390 S    
Cu1   Cu2   2.685380 S    
C77   H68   1.105827 S    
C78   H70   1.109877 S    
C21   O29   1.389681 S    
C85   C86   1.526053 S    
C106  H135  1.110541 S    
C116  H159  1.110248 S    
C43   C45   1.430817 A    
O30   C108  1.418597 S    
C90   C91   1.529596 S    
C100  C101  1.524868 S    
C101  H125  1.110460 S    
C46   O20   1.382865 S    
C119  H166  1.110222 S    
C92   H102  1.109687 S    
C122  H173  1.108007 S    
C91   H101  1.111162 S    
O6    C4    1.296692 A    
C98   H118  1.110937 S    
C104  H131  1.110069 S    
C39   O15   1.382913 S    
C59   H24   1.113224 S    
C89   H96   1.107499 S    
C67   C68   1.526501 S    
C65   H38   1.110913 S    
C91   C92   1.526351 S    
C56   H18   1.111078 S    
C5    C15   1.398062 A    
C105  H133  1.110591 S    
C18   O23   1.391279 S    
C107  H138  1.110361 S    
C121  H170  1.105487 S    
C103  H128  1.110550 S    
C108  H141  1.112046 S    
C47   C52   1.408950 A    
C109  H143  1.111141 S    
O28   C102  1.422826 S    
C64   H36   1.116167 S    
C37   N1    1.370474 A    
C61   H30   1.118445 S    
C97   H114  1.111690 S    
C106  H136  1.111217 S    
C40   C42   1.416742 A    
C45   O19   1.373674 S    
C122  H174  1.110753 S    
C81   H78   1.117179 S    
C37   O13   1.376544 S    
C87   H91   1.110617 S    
C93   H105  1.110789 S    
C96   C97   1.528068 S    
C88   H94   1.109252 S    
C73   H57   1.107198 S    
C71   H53   1.111680 S    
C61   C62   1.529131 S    
C60   H26   1.110377 S    
C2    C29   1.489088 S    
C7    H1    1.082502 S    
O9    C53   1.416230 S    
C71   C72   1.526002 S    
C68   C69   1.526033 S    
C103  C104  1.526649 S    
C76   H64   1.109267 S    
C100  H121  1.109784 S    
O21   C81   1.413875 S    
C58   H21   1.110674 S    
O1    C1    1.305678 A    
C92   H104  1.110628 S    
C42   C51   1.519237 S    
C66   H41   1.110410 S    
C117  H162  1.117034 S    
C98   H116  1.110682 S    
C118  H164  1.107382 S    
C75   C76   1.520929 S    
C99   H120  1.097509 S    
C47   H7    1.074818 S    
C73   C74   1.521009 S    
C115  H157  1.110588 S    
C74   H60   1.110480 S    
C65   C66   1.524653 S    
C117  C118  1.528336 S    
C54   H12   1.110373 S    
C11   C17   1.468848 S    
C12   C18   1.484325 S    
O29   C105  1.425300 S    
C67   H43   1.112346 S    
C75   H63   1.110609 S    
C105  C106  1.539547 S    
C113  H152  1.110268 S    
C121  C122  1.524408 S    
C72   H55   1.110359 S    
C114  C115  1.528217 S    
C6    C16   1.398292 A    
C115  C116  1.526054 S    
C88   H93   1.111319 S    
C31   O9    1.384801 S    
O4    C2    1.305529 A    
C64   C65   1.529910 S    
C112  H149  1.110260 S    
O20   C79   1.417676 S    
C55   H14   1.112498 S    
C97   C98   1.525999 S    
C113  H153  1.110930 S    
O7    Cu2   1.945495 S    
C101  H123  1.110716 S    
C48   C51   1.411370 A    
C87   C88   1.527698 S    
C110  H146  1.110717 S    
C69   H47   1.110413 S    
O3    Cu2   1.968879 S    
C22   O30   1.384750 S    
C10   C12   1.417921 A    
C60   H28   1.110800 S    
C59   H25   1.113807 S    
C11   C13   1.395656 A    
C12   C14   1.403516 A    
O15   C67   1.413124 S    
C24   C35   1.495672 S    
C76   H66   1.110304 S    
C99   H119  1.111203 S    
C54   H13   1.108349 S    
C5    C7    1.394955 A    
O3    C1    1.298830 A    
C67   H44   1.111176 S    
C59   C60   1.518103 S    
O13   C61   1.414987 S    
C20   C22   1.387572 A    
C21   C23   1.426432 A    
O17   C73   1.411909 S    
C119  H165  1.110971 S    
C22   C24   1.414434 A    
C82   H79   1.111480 S    
C47   C49   1.403850 A    
C95   H109  1.111305 S    
C41   C52   1.522319 S    
C120  H168  1.111323 S    
C79   H73   1.116225 S    
C28   O34   1.390338 S    
O16   C70   1.411579 S    
C80   H74   1.109938 S    
C86   H89   1.110478 S    
C71   H52   1.112065 S    
O11   C57   1.416158 S    
C48   H8    1.080226 S    
O23   C87   1.421061 S    
O19   C77   1.410703 S    
C70   H51   1.114983 S    
C78   H69   1.109802 S    
C122  H172  1.110742 S    
C102  C103  1.527384 S    
O10   C55   1.410359 S    
C31   C33   1.399948 A    
C116  H158  1.110714 S    
C32   O10   1.381290 S    
O5    C3    1.289894 A    
C38   N2    1.370463 A    
C111  H147  1.113722 S    
C19   C21   1.426375 A    
C90   H99   1.115707 S    
C100  H122  1.110544 S    
O14   C64   1.412979 S    
O4    Cu1   1.968879 S    
C49   C51   1.417303 A    
C32   C35   1.415875 A    
C110  H144  1.110904 S    
C84   H85   1.118666 S    
C107  H139  1.110827 S    
C8    H2    1.070630 S    
C104  H130  1.110723 S    
C99   C100  1.524231 S    
C15   H4    1.079884 S    
C23   C36   1.498555 S    
C16   H3    1.081540 S    
O2    C2    1.300025 A    
C63   H33   1.110816 S    
C65   H39   1.111536 S    
C112  C113  1.526020 S    
C56   H17   1.110472 S    
C38   C40   1.413103 A    
C53   H9    1.110429 S    
C27   O33   1.377253 S    
C121  H171  1.109456 S    
C62   C63   1.526243 S    
O24   C90   1.415402 S    
C82   C83   1.525861 S    
C69   H48   1.110240 S    
C13   H5    1.082497 S    
C108  H140  1.110157 S    
C95   H111  1.110798 S    
C10   O25   1.395805 S    
C83   H81   1.110915 S    
C120  C121  1.538430 S    
C89   H97   1.110621 S    
C17   O24   1.386588 S    
C40   O16   1.380989 S    
C80   H76   1.109564 S    
C97   H115  1.111664 S    
O25   C93   1.420020 S    
C25   O31   1.381247 S    
C107  H137  1.110822 S    
C27   C29   1.403878 A    
O7    C3    1.296944 A    
O8    C4    1.300823 A    
C87   H92   1.118099 S    
C58   H23   1.109360 S    
C93   H106  1.115265 S    
C96   H113  1.112156 S    
C77   H67   1.105220 S    
C78   H71   1.109820 S    
C73   H58   1.109848 S    
O1    Cu1   1.967013 S    
C102  H126  1.105777 S    
C26   O32   1.384697 S    
C116  H160  1.111156 S    
O32   C114  1.417179 S    
C34   O12   1.380698 S    
O6    Cu2   1.942507 S    
C111  C112  1.527256 S    
C33   O11   1.381662 S    
C68   H46   1.111471 S    
O8    Cu1   1.945493 S    
O27   C99   1.413932 S    
C93   C94   1.532712 S    
C19   O27   1.391573 S    
O22   C84   1.416767 S    
C92   H103  1.110756 S    
C91   H100  1.111660 S    
C7    C9    1.406316 A    
C8    C10   1.406103 A    
C13   C15   1.389027 A    
C118  H163  1.110472 S    
C104  H132  1.110012 S    
C85   H87   1.112030 S    
C77   C78   1.522781 S    
C6    C8    1.397723 A    
C89   H95   1.110722 S    
C17   C18   1.358697 D    
C50   C52   1.420418 A    
C98   H117  1.110331 S    
C74   H59   1.108804 S    
C96   H112  1.114699 S    
C63   H35   1.111232 S    
C68   H45   1.111859 S    
