data_mof_unit_7450.cif
_audit_creation_date              2013-03-05T16:19:10-0500
_audit_creation_method            fapswitch 2.2
_symmetry_space_group_name_H-M    P1
_symmetry_Int_Tables_number       1
_space_group_crystal_system       triclinic
_cell_length_a                    36.670316
_cell_length_b                    39.453018
_cell_length_c                    8.413792
_cell_angle_alpha                 89.92448
_cell_angle_beta                  93.907802
_cell_angle_gamma                 90.162144
_cell_volume                      12144.3348249

loop_
_atom_site_label
_atom_site_type_symbol
_atom_site_description
_atom_site_fract_x
_atom_site_fract_y
_atom_site_fract_z
_atom_type_partial_charge
P1    P     P_3+3 0.075650 0.535480 0.098240 0.535537
P2    P     P_3+3 0.075650 0.464520 0.598240 0.537341
P3    P     P_3+3 0.575650 0.035480 0.098240 0.535555
P4    P     P_3+3 0.575650 0.964520 0.598240 0.537271
O1    O     O_2   0.072110 0.546320 0.923350 -0.339267
O2    O     O_2   0.072110 0.453680 0.423350 -0.341290
O3    O     O_2   0.572110 0.046320 0.923350 -0.339262
O4    O     O_2   0.572110 0.953680 0.423350 -0.341346
O5    O     O_3   0.042000 0.516250 0.155330 -0.396880
O6    O     O_3   0.042000 0.483750 0.655330 -0.391037
O7    O     O_3   0.542000 0.016250 0.155330 -0.396876
O8    O     O_3   0.542000 0.983750 0.655330 -0.390986
O9    O     O_3   0.012540 0.574900 0.645500 -0.399128
O10   O     O_3   0.012540 0.425100 0.145500 -0.408797
O11   O     O_3   0.512540 0.074900 0.645500 -0.399125
O12   O     O_3   0.512540 0.925100 0.145500 -0.408846
O13   O     O_2   0.067464 0.605316 0.802386 -0.313550
O14   O     O_2   0.069277 0.395198 0.295856 -0.307281
O15   O     O_2   0.567465 0.105316 0.802388 -0.313555
O16   O     O_2   0.569286 0.895205 0.295808 -0.307612
O17   O     O_3   0.114352 0.509557 0.112847 -0.526233
O18   O     O_3   0.114675 0.490135 0.615207 -0.528841
O19   O     O_3   0.614350 0.009554 0.112835 -0.526224
O20   O     O_3   0.614676 0.990133 0.615206 -0.528790
O21   O     O_3   0.028114 0.645310 0.622692 -0.504844
O22   O     O_3   0.025268 0.353557 0.143458 -0.540532
O23   O     O_3   0.528116 0.145309 0.622688 -0.504846
O24   O     O_3   0.525259 0.853556 0.143557 -0.540324
H1    H     H_    0.975375 0.627524 0.577274 0.103664
H2    H     H_    0.977820 0.374698 0.221778 0.172899
H3    H     H_    0.475376 0.127526 0.577257 0.103668
H4    H     H_    0.477807 0.874704 0.221789 0.172720
C1    C     C_3   0.979946 0.679176 0.503736 -0.956967
C2    C     C_3   0.969203 0.323125 0.150677 -0.821322
C3    C     C_3   0.479950 0.179177 0.503709 -0.956978
C4    C     C_3   0.469182 0.823135 0.150658 -0.821232
H5    H     H_    0.974083 0.689599 0.621749 0.275369
H6    H     H_    0.981616 0.310096 0.257925 0.266787
H7    H     H_    0.474086 0.189602 0.621718 0.275363
H8    H     H_    0.481568 0.810108 0.257963 0.266733
H9    H     H_    0.999494 0.696168 0.447076 0.270079
H10   H     H_    0.972551 0.306972 0.044690 0.258803
H11   H     H_    0.499500 0.196167 0.447050 0.270083
H12   H     H_    0.472548 0.806976 0.044706 0.258866
P5    P     P_3+3 0.924520 0.535770 0.591580 0.529215
P6    P     P_3+3 0.924520 0.464230 0.091580 0.509223
P7    P     P_3+3 0.424520 0.035770 0.591580 0.529217
P8    P     P_3+3 0.424520 0.964230 0.091580 0.509239
P9    P     P_3+3 0.951881 0.604044 0.052262 0.484966
P10   P     P_3+3 0.955180 0.393105 0.559625 0.445991
P11   P     P_3+3 0.451879 0.104041 0.052268 0.484965
P12   P     P_3+3 0.455187 0.893100 0.559617 0.445859
O25   O     O_2   0.928110 0.546600 0.766510 -0.352665
O26   O     O_2   0.928110 0.453400 0.266510 -0.347641
O27   O     O_2   0.428110 0.046600 0.766510 -0.352658
O28   O     O_2   0.428110 0.953400 0.266510 -0.347669
O29   O     O_3   0.987780 0.574950 0.044470 -0.359434
O30   O     O_3   0.987780 0.425050 0.544470 -0.381160
O31   O     O_3   0.487780 0.074950 0.044470 -0.359431
O32   O     O_3   0.487780 0.925050 0.544470 -0.381622
O33   O     O_2   0.918195 0.590593 0.952095 -0.373307
O34   O     O_2   0.923951 0.399076 0.429502 -0.379822
O35   O     O_2   0.418192 0.090587 0.952122 -0.373283
O36   O     O_2   0.423968 0.899048 0.429419 -0.379910
O37   O     O_3   0.887917 0.507107 0.560763 -0.583698
O38   O     O_3   0.890470 0.495710 0.089855 -0.579969
O39   O     O_3   0.387916 0.007109 0.560745 -0.583727
O40   O     O_3   0.390468 0.995708 0.089852 -0.579964
O41   O     O_3   0.964407 0.640944 0.954082 -0.496281
O42   O     O_3   0.976006 0.355312 0.506807 -0.529254
O43   O     O_3   0.464399 0.140941 0.954067 -0.496289
O44   O     O_3   0.476030 0.855302 0.506983 -0.529477
C5    C     C_3   0.990337 0.658022 0.055828 0.390988
C6    C     C_3   0.008729 0.352022 0.603342 0.409563
C7    C     C_3   0.490330 0.158022 0.055796 0.391003
C8    C     C_3   0.508884 0.852164 0.602746 0.410464
H13   H     H_    0.014417 0.641613 0.087970 0.091486
H14   H     H_    0.028047 0.372871 0.579062 0.119585
H15   H     H_    0.514412 0.141617 0.087924 0.091500
H16   H     H_    0.528180 0.872915 0.576739 0.120671
H17   H     H_    0.977669 0.666337 0.165314 0.058746
H18   H     H_    0.003272 0.351944 0.731916 0.036132
H19   H     H_    0.477664 0.166336 0.165291 0.058738
H20   H     H_    0.503651 0.852403 0.731558 0.035467
C9    C     C_3   0.003651 0.689583 0.973460 -0.861542
C10   C     C_3   0.027204 0.318777 0.566416 -0.915296
C11   C     C_3   0.503636 0.189586 0.973419 -0.861573
C12   C     C_3   0.527230 0.818788 0.567000 -0.915642
H21   H     H_    0.018516 0.682429 0.868272 0.290830
H22   H     H_    0.035541 0.318987 0.442047 0.286699
H23   H     H_    0.518501 0.182433 0.868229 0.290825
H24   H     H_    0.535340 0.818663 0.442292 0.286218
H25   H     H_    0.980122 0.706006 0.934996 0.251648
H26   H     H_    0.008240 0.297232 0.582370 0.258699
H27   H     H_    0.480103 0.206004 0.934957 0.251655
H28   H     H_    0.508273 0.797326 0.584831 0.258823
C13   C     C_3   0.859132 0.484948 0.166113 0.208596
C14   C     C_3   0.864973 0.505573 0.687885 0.143070
C15   C     C_3   0.359132 0.984944 0.166119 0.208564
C16   C     C_3   0.364977 0.005565 0.687882 0.143105
H29   H     H_    0.865622 0.466233 0.262596 0.131274
H30   H     H_    0.881330 0.499836 0.799866 0.116996
H31   H     H_    0.365625 0.966235 0.262627 0.131261
H32   H     H_    0.381339 0.999825 0.799848 0.116989
C17   C     C_3   0.831012 0.469121 0.045327 -0.921364
C18   C     C_3   0.843634 0.538858 0.705398 -0.692474
C19   C     C_3   0.331016 0.969105 0.045350 -0.921166
C20   C     C_3   0.343633 0.038846 0.705431 -0.692470
H33   H     H_    0.844029 0.450852 0.967796 0.266472
H34   H     H_    0.861835 0.559436 0.752191 0.264275
H35   H     H_    0.344040 0.950852 0.967767 0.266428
H36   H     H_    0.361831 0.059425 0.752222 0.264288
H37   H     H_    0.809688 0.455499 0.108293 0.279243
H38   H     H_    0.822323 0.535807 0.791891 0.207787
H39   H     H_    0.309708 0.955464 0.108334 0.279243
H40   H     H_    0.322326 0.035788 0.791927 0.207798
H41   H     H_    0.817509 0.488981 0.969049 0.239549
H42   H     H_    0.830442 0.546822 0.588708 0.286891
H43   H     H_    0.317490 0.988960 0.969120 0.239575
H44   H     H_    0.330436 0.046811 0.588755 0.286861
Ba1   Ba    Ba6+2 0.000060 0.523150 0.844950 1.618689
Ba2   Ba    Ba6+2 0.000060 0.476850 0.344950 1.613515
Ba3   Ba    Ba6+2 0.500060 0.023150 0.844950 1.618672
Ba4   Ba    Ba6+2 0.500060 0.976850 0.344950 1.613414
C21   C     C_3   0.106423 0.477969 0.044715 0.382949
C22   C     C_3   0.108339 0.520682 0.535687 0.395704
C23   C     C_3   0.606415 0.977965 0.044732 0.382942
C24   C     C_3   0.608341 0.020682 0.535700 0.395717
H45   H     H_    0.094776 0.481016 0.920901 0.101693
H46   H     H_    0.095118 0.516512 0.415234 0.100879
H47   H     H_    0.594764 0.981007 0.920923 0.101676
H48   H     H_    0.595109 0.016517 0.415264 0.100851
H49   H     H_    0.087100 0.463830 0.116428 0.113329
H50   H     H_    0.090963 0.536827 0.607064 0.095657
H51   H     H_    0.587094 0.963829 0.116469 0.113388
H52   H     H_    0.590976 0.036830 0.607113 0.095667
C25   C     C_3   0.142135 0.458383 0.043224 -0.800319
C26   C     C_3   0.145220 0.537761 0.519509 -0.811548
C27   C     C_3   0.642125 0.958375 0.043231 -0.800287
C28   C     C_3   0.645223 0.037754 0.519465 -0.811514
H53   H     H_    0.161657 0.472342 0.971674 0.276365
H54   H     H_    0.163725 0.520288 0.460230 0.280953
H55   H     H_    0.661644 0.972327 0.971638 0.276356
H56   H     H_    0.663715 0.020281 0.460109 0.280942
H57   H     H_    0.137613 0.432952 0.990466 0.207568
H58   H     H_    0.142217 0.561025 0.446504 0.207274
H59   H     H_    0.637598 0.932940 0.990516 0.207577
H60   H     H_    0.642219 0.061024 0.446508 0.207269
H61   H     H_    0.154370 0.455330 0.166804 0.281471
H62   H     H_    0.157803 0.544510 0.639136 0.273746
H63   H     H_    0.654367 0.955329 0.166805 0.281474
H64   H     H_    0.657823 0.044491 0.639079 0.273745
O45   O     O_3   0.958050 0.483830 0.034350 -0.330624
O46   O     O_3   0.958050 0.516170 0.534350 -0.350239
O47   O     O_3   0.458050 0.983830 0.034350 -0.330599
O48   O     O_3   0.458050 0.016170 0.534350 -0.350226
P13   P     P_3+3 0.045716 0.393646 0.136303 0.474000
P14   P     P_3+3 0.047437 0.604836 0.635129 0.500868
P15   P     P_3+3 0.545712 0.893643 0.136295 0.473862
P16   P     P_3+3 0.547438 0.104836 0.635129 0.500866
C29   C     C_3   0.995973 0.643780 0.522991 0.457250
C30   C     C_3   0.987193 0.357384 0.129142 0.418274
C31   C     C_3   0.495976 0.143780 0.522977 0.457227
C32   C     C_3   0.487185 0.857390 0.129163 0.417973
H65   H     H_    0.001882 0.634058 0.403498 -0.011277
H66   H     H_    0.978467 0.367370 0.009647 0.020706
H67   H     H_    0.501886 0.134057 0.403487 -0.011253
H68   H     H_    0.478471 0.867377 0.009652 0.021040
H69   H     H_    0.953989 0.678174 0.427844 0.228604
H70   H     H_    0.939747 0.326863 0.167203 0.247764
H71   H     H_    0.453994 0.178175 0.427813 0.228604
H72   H     H_    0.439721 0.826881 0.167061 0.247723
H73   H     H_    0.022571 0.704020 0.057127 0.234433
H74   H     H_    0.052011 0.315386 0.648176 0.216736
H75   H     H_    0.522553 0.204026 0.057079 0.234432
H76   H     H_    0.552165 0.815548 0.648125 0.216833
C33   C     C_R   0.822040 0.356380 0.957481 0.559715
C34   C     C_R   0.832409 0.645021 0.564122 0.561576
C35   C     C_R   0.322041 0.856383 0.957516 0.559752
C36   C     C_R   0.332405 0.145018 0.564121 0.561574
O49   O     O_2   0.813569 0.386049 0.936033 -0.568197
O50   O     O_2   0.835152 0.618811 0.640842 -0.609474
O51   O     O_2   0.313571 0.886053 0.936110 -0.568229
O52   O     O_2   0.335149 0.118807 0.640841 -0.609456
N1    N     N_R   0.857821 0.346332 0.942515 -0.168460
N2    N     N_R   0.854006 0.650481 0.435988 -0.160875
N3    N     N_R   0.357819 0.846332 0.942498 -0.168448
N4    N     N_R   0.354002 0.150478 0.435990 -0.160874
C37   C     C_R   0.867262 0.312538 0.963587 0.508564
C38   C     C_R   0.846845 0.679508 0.343234 0.519999
C39   C     C_R   0.367257 0.812537 0.963518 0.508573
C40   C     C_R   0.346841 0.179505 0.343234 0.520006
C41   C     C_2   0.906256 0.367292 0.781006 -0.116713
C42   C     C_2   0.900368 0.626496 0.262745 -0.114086
C43   C     C_2   0.406249 0.867296 0.780972 -0.116673
C44   C     C_2   0.400367 0.126495 0.262752 -0.114101
C45   C     C_3   0.938623 0.390535 0.764113 0.096980
C46   C     C_3   0.937664 0.610500 0.257538 0.004862
C47   C     C_3   0.438618 0.890536 0.764086 0.097865
C48   C     C_3   0.437664 0.110501 0.257546 0.004880
C49   C     C_1   0.915590 0.426031 0.971029 0.207573
C50   C     C_1   0.920665 0.575953 0.480653 0.280555
C51   C     C_1   0.415591 0.926031 0.971023 0.207650
C52   C     C_1   0.420667 0.075954 0.480663 0.280589
C53   C     C_2   0.892941 0.401633 0.013163 -0.263748
C54   C     C_2   0.899839 0.601490 0.525904 -0.228332
C55   C     C_2   0.392944 0.901631 0.013163 -0.263778
C56   C     C_2   0.399838 0.101489 0.525911 -0.228280
C57   C     C_2   0.885644 0.371267 0.907465 0.159418
C58   C     C_2   0.884181 0.626862 0.403831 0.124013
C59   C     C_2   0.385642 0.871267 0.907448 0.159249
C60   C     C_2   0.384180 0.126861 0.403836 0.124007
C61   C     C_R   0.804624 0.298211 0.019174 -0.072921
C62   C     C_R   0.797988 0.697012 0.506113 -0.074935
C63   C     C_R   0.304622 0.798212 0.019162 -0.072919
C64   C     C_R   0.297983 0.197008 0.506110 -0.074932
C65   C     C_R   0.795027 0.332475 0.995097 -0.070641
C66   C     C_R   0.806578 0.669447 0.607332 -0.056480
C67   C     C_R   0.295027 0.832477 0.995134 -0.070647
C68   C     C_R   0.306573 0.169442 0.607329 -0.056486
C69   C     C_R   0.758626 0.342096 0.009064 -0.060214
C70   C     C_R   0.788546 0.666378 0.748204 -0.060158
C71   C     C_R   0.258629 0.842101 0.009153 -0.060213
C72   C     C_R   0.288540 0.166373 0.748200 -0.060158
C73   C     C_R   0.841193 0.288420 0.006543 -0.046871
C74   C     C_R   0.816478 0.700326 0.366911 -0.046242
C75   C     C_R   0.341189 0.788419 0.006477 -0.046887
C76   C     C_R   0.316472 0.200322 0.366909 -0.046246
C77   C     C_2   0.932996 0.424607 0.838714 -0.371664
C78   C     C_2   0.939595 0.578227 0.352698 -0.331918
C79   C     C_2   0.432995 0.924608 0.838698 -0.372127
C80   C     C_2   0.439600 0.078230 0.352720 -0.332040
H77   H     H_    0.878888 0.403902 0.122100 0.171206
H78   H     H_    0.899299 0.607041 0.651715 0.196773
H79   H     H_    0.378898 0.903897 0.122116 0.171250
H80   H     H_    0.399295 0.107039 0.651722 0.196769
H81   H     H_    0.750215 0.368161 0.989509 0.175134
H82   H     H_    0.794157 0.645244 0.828489 0.170583
H83   H     H_    0.250219 0.868167 0.989638 0.175134
H84   H     H_    0.294151 0.145239 0.828485 0.170585
C81   C     C_2   0.062408 0.580682 0.327078 -0.522739
C82   C     C_2   0.060803 0.419682 0.826702 -0.559841
C83   C     C_2   0.562409 0.080681 0.327080 -0.522722
C84   C     C_2   0.560791 0.919671 0.826648 -0.559697
C85   C     C_R   0.215314 0.759675 0.126004 0.049511
C86   C     C_R   0.229000 0.244126 0.731922 0.059883
C87   C     C_R   0.715313 0.259673 0.125968 0.049510
C88   C     C_R   0.729007 0.744131 0.731929 0.059884
C89   C     C_R   0.260269 0.713973 0.097259 -0.030424
C90   C     C_R   0.233914 0.272196 0.470664 -0.030553
C91   C     C_R   0.760274 0.213973 0.097309 -0.030432
C92   C     C_R   0.733921 0.772201 0.470670 -0.030549
C93   C     C_R   0.224931 0.724751 0.135612 0.101885
C94   C     C_R   0.217475 0.269474 0.618972 0.103440
C95   C     C_R   0.724932 0.224750 0.135617 0.101882
C96   C     C_R   0.717483 0.769479 0.618978 0.103442
C97   C     C_R   0.179920 0.769038 0.166895 -0.195144
C98   C     C_R   0.215292 0.245510 0.884988 -0.230984
C99   C     C_R   0.679916 0.269036 0.166822 -0.195148
C100  C     C_R   0.715299 0.745515 0.884995 -0.230977
C101  C     C_R   0.154605 0.744979 0.210993 -0.073191
C102  C     C_R   0.190925 0.270545 0.924939 -0.046404
C103  C     C_R   0.654601 0.244977 0.210923 -0.073190
C104  C     C_R   0.690932 0.770550 0.924946 -0.046394
C105  C     C_R   0.163463 0.710484 0.218194 -0.067912
C106  C     C_R   0.177751 0.294411 0.812030 -0.048356
C107  C     C_R   0.663462 0.210483 0.218160 -0.067914
C108  C     C_R   0.677758 0.794416 0.812035 -0.048377
C109  C     C_R   0.198772 0.700332 0.181707 -0.056897
C110  C     C_R   0.190047 0.293159 0.657668 -0.068783
C111  C     C_R   0.698773 0.200331 0.181709 -0.056897
C112  C     C_R   0.690054 0.793164 0.657673 -0.068790
C113  C     C_R   0.207879 0.665726 0.190804 -0.090070
C114  C     C_R   0.175421 0.316086 0.543035 -0.098140
C115  C     C_R   0.707882 0.165726 0.190837 -0.090073
C116  C     C_R   0.675427 0.816090 0.543039 -0.098113
C117  C     C_R   0.182068 0.641909 0.239873 0.631452
C118  C     C_R   0.146496 0.337749 0.579937 0.597523
C119  C     C_R   0.682070 0.141909 0.239899 0.631442
C120  C     C_R   0.646502 0.837752 0.579938 0.597498
N5    N     N_R   0.146888 0.651880 0.267173 -0.157461
N6    N     N_R   0.137223 0.341661 0.736370 -0.160560
N7    N     N_R   0.646888 0.151880 0.267172 -0.157462
N8    N     N_R   0.637228 0.841663 0.736370 -0.160566
C121  C     C_R   0.137530 0.685835 0.258602 0.580076
C122  C     C_R   0.153836 0.320527 0.852907 0.589680
C123  C     C_R   0.637529 0.185834 0.258571 0.580090
C124  C     C_R   0.653841 0.820531 0.852909 0.589740
C125  C     C_2   0.104096 0.625672 0.439866 -0.170019
C126  C     C_2   0.091333 0.366538 0.904535 -0.227115
C127  C     C_2   0.604097 0.125672 0.439866 -0.170022
C128  C     C_2   0.591330 0.866533 0.904514 -0.226996
C129  C     C_3   0.079926 0.596131 0.478151 0.140346
C130  C     C_3   0.075418 0.398613 0.965944 0.200931
C131  C     C_3   0.579927 0.096131 0.478154 0.140335
C132  C     C_3   0.575404 0.898604 0.965897 0.201079
C133  C     C_1   0.083351 0.575956 0.206851 0.168299
C134  C     C_1   0.083391 0.424751 0.711855 0.148457
C135  C     C_1   0.583353 0.075955 0.206854 0.168293
C136  C     C_1   0.583387 0.924748 0.711838 0.148055
C137  C     C_2   0.108960 0.599136 0.175688 0.256099
C138  C     C_2   0.111086 0.403076 0.689323 0.287788
C139  C     C_2   0.608961 0.099135 0.175691 0.256090
C140  C     C_2   0.611086 0.903076 0.689323 0.287717
C141  C     C_2   0.119438 0.626360 0.297907 -0.001791
C142  C     C_2   0.112537 0.369234 0.778502 -0.016539
C143  C     C_2   0.619439 0.126360 0.297907 -0.001775
C144  C     C_2   0.612538 0.869233 0.778498 -0.016828
O53   O     O_2   0.106500 0.694541 0.284047 -0.587618
O54   O     O_2   0.148833 0.324894 0.993390 -0.570853
O55   O     O_2   0.606497 0.194540 0.283992 -0.587615
O56   O     O_2   0.648837 0.824897 0.993392 -0.570828
C145  C     C_R   0.741280 0.283982 0.076837 0.044074
C146  C     C_R   0.754462 0.718924 0.690721 0.046896
C147  C     C_R   0.241281 0.783984 0.076876 0.044074
C148  C     C_R   0.254455 0.218919 0.690716 0.046895
C149  C     C_R   0.777703 0.273668 0.056454 0.090866
C150  C     C_R   0.770907 0.721258 0.543415 0.090058
C151  C     C_R   0.277701 0.773670 0.056445 0.090868
C152  C     C_R   0.270901 0.221254 0.543410 0.090060
C153  C     C_R   0.787678 0.239077 0.075162 0.052954
C154  C     C_R   0.760298 0.747188 0.431734 0.054636
C155  C     C_R   0.287673 0.739077 0.075106 0.052952
C156  C     C_R   0.260291 0.247183 0.431729 0.054633
C157  C     C_R   0.732361 0.318488 0.049105 -0.195786
C158  C     C_R   0.763493 0.690738 0.790244 -0.213694
C159  C     C_R   0.232364 0.818493 0.049194 -0.195780
C160  C     C_R   0.263487 0.190734 0.790238 -0.213694
H85   H     H_    0.112200 0.644032 0.531714 0.186922
H86   H     H_    0.087932 0.342970 0.968153 0.211867
H87   H     H_    0.612200 0.144033 0.531712 0.186914
H88   H     H_    0.587930 0.842964 0.968125 0.211878
H89   H     H_    0.127843 0.753640 0.240004 0.168427
H90   H     H_    0.182131 0.270910 0.045331 0.160716
H91   H     H_    0.627837 0.253637 0.239906 0.168427
H92   H     H_    0.682138 0.770915 0.045337 0.160717
H93   H     H_    0.170981 0.795003 0.168611 0.132228
H94   H     H_    0.223984 0.228348 0.979590 0.123426
H95   H     H_    0.670975 0.295000 0.168508 0.132229
H96   H     H_    0.723992 0.728354 0.979597 0.123425
H97   H     H_    0.705018 0.328089 0.054762 0.133330
H98   H     H_    0.750789 0.686068 0.899898 0.131675
H99   H     H_    0.205023 0.828096 0.054892 0.133329
H100  H     H_    0.250783 0.186063 0.899892 0.131674
O57   O     O_2   0.898470 0.303376 0.945207 -0.615958
O58   O     O_2   0.867453 0.688338 0.243114 -0.604679
O59   O     O_2   0.398463 0.803373 0.945087 -0.615900
O60   O     O_2   0.367449 0.188336 0.243116 -0.604679
C161  C     C_R   0.851262 0.254900 0.042237 -0.067558
C162  C     C_R   0.804071 0.724260 0.252915 -0.068906
C163  C     C_R   0.351255 0.754896 0.042124 -0.067525
C164  C     C_R   0.304065 0.224256 0.252912 -0.068902
H101  H     H_    0.902067 0.345691 0.701993 0.161139
H102  H     H_    0.889202 0.639135 0.156435 0.199997
H103  H     H_    0.402056 0.845698 0.701942 0.161220
H104  H     H_    0.389201 0.139133 0.156441 0.200003
H105  H     H_    0.879556 0.247015 0.043203 0.170595
H106  H     H_    0.815811 0.725588 0.138271 0.168203
H107  H     H_    0.379549 0.747009 0.043050 0.170604
H108  H     H_    0.315806 0.225584 0.138269 0.168202
C165  C     C_R   0.266443 0.678373 0.082226 -0.133012
C166  C     C_R   0.223503 0.300568 0.370782 -0.161282
C167  C     C_R   0.766452 0.178373 0.082312 -0.133004
C168  C     C_R   0.723510 0.800573 0.370787 -0.161294
C169  C     C_R   0.241591 0.655184 0.140159 -0.089619
C170  C     C_R   0.191934 0.319022 0.398644 -0.066516
C171  C     C_R   0.741598 0.155184 0.140234 -0.089625
C172  C     C_R   0.691941 0.819026 0.398649 -0.066508
O61   O     O_2   0.190781 0.612164 0.256711 -0.554307
O62   O     O_2   0.129813 0.353233 0.472380 -0.534815
O63   O     O_2   0.690784 0.112165 0.256755 -0.554312
O64   O     O_2   0.629818 0.853235 0.472380 -0.534790
C173  C     C_R   0.825252 0.231078 0.080856 -0.133752
C174  C     C_R   0.774989 0.745545 0.280788 -0.160590
C175  C     C_R   0.325247 0.731075 0.080750 -0.133747
C176  C     C_R   0.274983 0.245541 0.280783 -0.160591
H109  H     H_    0.247331 0.628300 0.133048 0.207223
H110  H     H_    0.183175 0.339122 0.316748 0.224152
H111  H     H_    0.747340 0.128300 0.133149 0.207221
H112  H     H_    0.683182 0.839127 0.316752 0.224155
H113  H     H_    0.835322 0.206500 0.118957 0.128716
H114  H     H_    0.764275 0.760152 0.180342 0.122282
H115  H     H_    0.335316 0.706494 0.118816 0.128719
H116  H     H_    0.264269 0.260147 0.180337 0.122283
H117  H     H_    0.941308 0.447561 0.779213 0.160969
H118  H     H_    0.962713 0.561680 0.338211 0.157391
H119  H     H_    0.441310 0.947562 0.779209 0.161040
H120  H     H_    0.462724 0.061688 0.338255 0.157398
H121  H     H_    0.032971 0.577632 0.310852 0.168395
H122  H     H_    0.031522 0.422689 0.803716 0.183985
H123  H     H_    0.532972 0.077632 0.310853 0.168392
H124  H     H_    0.531509 0.922661 0.803607 0.183963
C177  C     C_2   0.294588 0.663871 0.983341 1.005206
O65   O     O_2   0.301999 0.678013 0.860081 -0.617271
O66   O     O_R   0.311573 0.633285 0.027899 -0.780777
H125  H     H_    0.329893 0.625811 0.950132 0.342604
C178  C     C_2   0.247783 0.316669 0.258281 1.011654
O67   O     O_2   0.280669 0.318695 0.292776 -0.600422
O68   O     O_R   0.232854 0.331043 0.116495 -0.776147
H126  H     H_    0.252106 0.341447 0.050380 0.345106
C179  C     C_2   0.794606 0.163868 0.983477 1.005208
O69   O     O_2   0.802023 0.178005 0.860214 -0.617270
O70   O     O_R   0.811592 0.133285 0.028084 -0.780781
H127  H     H_    0.829917 0.125810 0.950347 0.342600
C180  C     C_2   0.747790 0.816674 0.258287 1.011653
O71   O     O_2   0.780676 0.818700 0.292781 -0.600422
O72   O     O_R   0.732861 0.831048 0.116502 -0.776151
H128  H     H_    0.752113 0.841452 0.050387 0.345106
N9    N     N_R   0.127205 0.598352 0.029472 0.266177
O73   O     O_R   0.132433 0.626403 0.952599 -0.396041
O74   O     O_R   0.144428 0.571230 0.989290 -0.333694
N10   N     N_R   0.144231 0.415491 0.627151 0.254617
O75   O     O_R   0.175566 0.409555 0.703964 -0.383863
O76   O     O_R   0.143775 0.428312 0.484532 -0.325063
N11   N     N_R   0.627208 0.098350 0.029479 0.266173
O77   O     O_R   0.632438 0.126400 0.952603 -0.396033
O78   O     O_R   0.644431 0.071227 0.989303 -0.333684
N12   N     N_R   0.644230 0.915494 0.627159 0.254677
O79   O     O_R   0.675565 0.909562 0.703983 -0.383837
O80   O     O_R   0.643775 0.928312 0.484535 -0.325029
C181  C     C_2   0.841497 0.514952 0.243011 1.063807
O81   O     O_2   0.815134 0.509936 0.321089 -0.590726
O82   O     O_R   0.853754 0.548349 0.226517 -0.773849
H129  H     H_    0.874696 0.551104 0.155409 0.325793
C182  C     C_2   0.839115 0.475889 0.654304 1.042868
O83   O     O_2   0.806019 0.479621 0.652656 -0.545227
O84   O     O_R   0.852647 0.443707 0.622560 -0.751767
H130  H     H_    0.880100 0.443460 0.617080 0.294473
C183  C     C_2   0.341490 0.014948 0.242995 1.063780
O85   O     O_2   0.315115 0.009931 0.320992 -0.590699
O86   O     O_R   0.353756 0.048344 0.226576 -0.773827
H131  H     H_    0.374718 0.051099 0.155580 0.325792
C184  C     C_2   0.339124 0.975878 0.654290 1.042762
O87   O     O_2   0.306028 0.979604 0.652684 -0.545252
O88   O     O_R   0.352661 0.943700 0.622484 -0.751798
H132  H     H_    0.380113 0.943459 0.616972 0.294477

loop_
_geom_bond_atom_site_label_1
_geom_bond_atom_site_label_2
_geom_bond_distance
_ccdc_geom_bond_type
C146  C150  1.417587 A    
C15   H31   1.110824 S    
O84   H130  1.010967 S    
C89   C93   1.422922 A    
C11   H23   1.107868 S    
C182  O83   1.222090 D    
C110  C114  1.402154 A    
C9    H25   1.110650 S    
C2    H10   1.110535 S    
C100  C104  1.390610 A    
C41   H101  1.085668 S    
C103  C107  1.400329 A    
P8    C51   1.833936 S    
C161  C173  1.391006 A    
C97   C101  1.393342 A    
O38   C13   1.417599 S    
O19   C23   1.394040 S    
C99   C103  1.393341 A    
C178  O68   1.398358 S    
C167  C179  1.485418 S    
N4    C40   1.400322 Am   
C76   C164  1.399707 A    
C125  C141  1.354733 D    
C16   H32   1.105398 S    
C134  C138  1.352850 D    
C39   O59   1.221029 D    
C20   H44   1.109929 S    
C165  C169  1.399918 A    
C116  C120  1.415120 A    
C163  H107  1.083550 S    
O42   C6    1.408636 S    
C66   C70   1.400985 A    
C119  N7    1.383935 Am   
P4    O8    1.554361 S    
C28   H64   1.110692 S    
N12   O80   1.300679 A    
C13   C17   1.530079 S    
P9    O41   1.748602 S    
C18   H42   1.109959 S    
C8    H20   1.113521 S    
P11   O43   1.748604 S    
C5    H17   1.109960 S    
C160  H100  1.076955 S    
P3    Ba3   3.413467 S    
Ba3   O48   2.954533 S    
C65   C69   1.401430 A    
C151  C155  1.419675 A    
O30   Ba2   2.699301 S    
C126  C142  1.360900 D    
Ba1   O46   2.954533 S    
C171  H111  1.084449 S    
C92   C168  1.435690 A    
C32   H68   1.106498 S    
C10   H22   1.109985 S    
C92   C154  1.437436 A    
C22   H46   1.105546 S    
C86   C148  1.425086 A    
C84   C132  1.504991 S    
C139  N11   1.440305 S    
P5    Ba1   3.415542 S    
C14   H30   1.105401 S    
C85   C93   1.424049 A    
C125  C129  1.509900 S    
C69   H81   1.083551 S    
C10   H74   1.110770 S    
P13   C130  1.868173 S    
C52   C80   1.322942 D    
C1    C29   1.520839 S    
P12   O44   1.748824 S    
P7    Ba3   3.415542 S    
C137  C141  1.518362 S    
C56   C60   1.518815 S    
P3    C135  1.852301 S    
C34   O50   1.219057 D    
C83   H123  1.085165 S    
O39   C16   1.406310 S    
C126  H86   1.083409 S    
C90   C166  1.435692 A    
P8    O47   1.554343 S    
N3    C59   1.459551 S    
N1    C57   1.459542 S    
C4    H12   1.110534 S    
C137  N9    1.440305 S    
H2    C30   1.109721 S    
O28   Ba4   2.829005 S    
C15   C19   1.530097 S    
C166  C170  1.402623 A    
C25   H57   1.105191 S    
P6    O45   1.554343 S    
C35   C67   1.416911 A    
C164  C176  1.391825 A    
C114  C170  1.398399 A    
O3    Ba3   2.828740 S    
O29   Ba1   2.704575 S    
C176  H116  1.074904 S    
C177  O65   1.223403 D    
C138  C142  1.529989 S    
P3    O3    1.528936 D    
C14   C18   1.542886 S    
C24   H52   1.108108 S    
O12   Ba4   2.704267 S    
O11   P16   1.745449 S    
O14   P13   1.547314 D    
C71   H83   1.083551 S    
C180  O71   1.223384 D    
C170  H110  1.084746 S    
N4    C60   1.487721 S    
C121  O53   1.222378 D    
C16   C184  1.519397 S    
C70   H82   1.083696 S    
P7    C52   1.839488 S    
P10   O42   1.748800 S    
N5    C141  1.457007 S    
P3    O7    1.550326 S    
C119  O63   1.222634 D    
C168  C180  1.484027 S    
C44   C60   1.363009 D    
C21   H45   1.105170 S    
C22   H50   1.108106 S    
C154  C174  1.414600 A    
C5    H13   1.114508 S    
P6    Ba2   3.414076 S    
P5    O46   1.558428 S    
P4    C136  1.848723 S    
C145  C157  1.416344 A    
N9    O73   1.301393 A    
C97   H93   1.076851 S    
C29   H65   1.111782 S    
C36   O52   1.219061 D    
C87   C145  1.429989 A    
C181  O81   1.220840 D    
C155  C175  1.412035 A    
O7    Ba4   2.764302 S    
C15   C183  1.517092 S    
C169  H109  1.084449 S    
C179  O69   1.223404 D    
C55   H79   1.085588 S    
Ba3   Ba4   4.588571 S    
C81   H121  1.085164 S    
C183  O85   1.220799 D    
C127  H87   1.085897 S    
C64   C76   1.398519 A    
O15   P16   1.542489 D    
C17   H37   1.111014 S    
N10   O75   1.301080 A    
C172  H112  1.084746 S    
C140  N12   1.439937 S    
O68   H126  1.013709 S    
P9    O29   1.753658 S    
P4    Ba4   3.414902 S    
P4    O4    1.529816 D    
C47   C79   1.505024 S    
C128  H88   1.083411 S    
O23   C31   1.400526 S    
C27   H55   1.110786 S    
P6    C49   1.833903 S    
C108  C112  1.404524 A    
O21   C29   1.400529 S    
C11   H27   1.110649 S    
N11   O78   1.300821 A    
C3    H11   1.110647 S    
C105  C121  1.415496 A    
C49   C77   1.321808 D    
P5    O25   1.530061 D    
C88   C100  1.415214 A    
C55   C59   1.505469 S    
C98   C102  1.390614 A    
C13   C181  1.517061 S    
C74   C162  1.399708 A    
C43   C47   1.512060 S    
C16   C20   1.542904 S    
C52   C56   1.337254 D    
C128  C132  1.501953 S    
C62   C66   1.403619 A    
C67   C71   1.401429 A    
C34   N2    1.396673 Am   
P2    O18   1.747546 S    
C84   H124  1.084781 S    
C42   C58   1.363009 D    
O9    Ba1   2.698965 S    
C54   C58   1.518817 S    
O86   H131  1.010659 S    
C100  H96   1.076482 S    
C91   C167  1.430436 A    
C4    H72   1.108739 S    
C72   H84   1.083697 S    
C5    C9    1.519718 S    
C7    C11   1.519719 S    
C114  C118  1.415129 A    
C164  H108  1.083915 S    
P5    O37   1.758523 S    
Ba2   O45   2.954703 S    
C101  H89   1.083584 S    
C158  H98   1.076952 S    
C84   C136  1.329469 D    
C103  H91   1.083584 S    
C72   C160  1.393914 A    
C56   H80   1.082764 S    
C38   C74   1.410731 A    
C19   H35   1.103858 S    
C8    H16   1.111850 S    
P14   C129  1.870763 S    
C2    C30   1.518394 S    
C44   H104  1.080007 S    
C145  C149  1.418926 A    
C45   C77   1.505015 S    
C11   H75   1.110644 S    
C12   H76   1.110710 S    
C54   H78   1.082763 S    
C24   C28   1.523562 S    
C178  O67   1.223385 D    
N8    C144  1.476085 S    
C42   C46   1.511222 S    
O8    Ba3   2.771549 S    
C7    H15   1.114510 S    
C26   H58   1.105313 S    
C33   O49   1.221881 D    
H4    C32   1.109734 S    
C27   H63   1.110565 S    
C63   C75   1.407575 A    
P1    Ba1   3.413467 S    
C61   C73   1.407576 A    
P11   C48   1.855910 S    
C140  C144  1.529991 S    
C83   C135  1.324782 D    
Ba4   O47   2.954703 S    
O21   P14   1.748891 S    
O20   C24   1.390096 S    
C49   C53   1.332942 D    
C174  H114  1.074903 S    
C108  C124  1.412848 A    
C147  C159  1.416341 A    
C70   C158  1.393911 A    
C90   C94   1.426118 A    
C12   H28   1.110516 S    
O10   Ba2   2.704267 S    
C3    H71   1.110103 S    
C1    H69   1.110102 S    
C42   H102  1.080006 S    
Ba3   O47   2.762925 S    
P1    O17   1.749104 S    
C122  O54   1.220950 D    
Ba1   O45   2.762925 S    
P1    O1    1.528936 D    
C152  C156  1.425031 A    
P1    C133  1.852309 S    
C23   H51   1.110165 S    
O37   C14   1.406330 S    
P6    O38   1.762966 S    
C25   H53   1.110787 S    
N6    C142  1.476097 S    
C81   C129  1.512749 S    
P4    O20   1.747546 S    
C102  H90   1.083899 S    
C117  O61   1.222630 D    
C35   N3    1.385728 Am   
P7    O48   1.558428 S    
C148  C160  1.417465 A    
C33   N1    1.385731 Am   
P8    O28   1.529187 D    
C105  C109  1.410170 A    
C17   H33   1.103862 S    
C36   N4    1.396672 Am   
C30   H66   1.106472 S    
C107  C111  1.410171 A    
C93   C109  1.429406 A    
P5    C50   1.839498 S    
C184  O88   1.397222 S    
C88   C146  1.425080 A    
C39   C75   1.410983 A    
O41   C5    1.406384 S    
C85   C97   1.415380 A    
O44   C8    1.408650 S    
C82   H122  1.084795 S    
P7    O27   1.530061 D    
C126  C130  1.501985 S    
N5    C121  1.384394 Am   
C182  O84   1.397210 S    
C17   H41   1.108386 S    
C6    H18   1.113484 S    
C19   H43   1.108374 S    
P10   C45   1.865652 S    
O27   Ba3   2.833319 S    
P2    Ba2   3.414902 S    
O31   Ba3   2.704575 S    
P9    O33   1.540565 D    
C150  C154  1.425028 A    
O10   P13   1.745744 S    
N7    C123  1.384393 Am   
P10   O30   1.745186 S    
C64   C68   1.403619 A    
N8    C124  1.395354 Am   
P1    O5    1.550326 S    
P15   C132  1.868184 S    
C71   C159  1.395367 A    
C26   H54   1.110912 S    
P16   C131  1.870764 S    
C161  H105  1.083551 S    
C9    H21   1.107872 S    
O4    Ba4   2.833010 S    
C81   C133  1.324782 D    
C86   C94   1.423711 A    
C163  C175  1.391005 A    
P3    O19   1.749106 S    
O22   C30   1.401787 S    
C113  C117  1.412964 A    
C20   H36   1.105226 S    
C77   H117  1.087053 S    
C3    C31   1.520842 S    
C3    H7    1.109920 S    
C101  C105  1.400328 A    
C63   C67   1.408723 A    
C177  O66   1.398526 S    
C106  C122  1.412853 A    
C91   C95   1.422919 A    
C43   H103  1.085666 S    
C112  C116  1.402152 A    
P6    O26   1.529187 D    
C46   C78   1.502454 S    
O5    Ba2   2.764302 S    
P11   O35   1.540563 D    
P8    O40   1.762956 S    
N1    C37   1.386530 Am   
Ba1   Ba2   4.588571 S    
O11   Ba3   2.698965 S    
C125  H85   1.085900 S    
C37   O57   1.221026 D    
C89   C165  1.430435 A    
N2    C58   1.487716 S    
C99   H95   1.076853 S    
C61   C149  1.430559 A    
C33   C65   1.416911 A    
C63   C151  1.430565 A    
C64   C152  1.431242 A    
C117  N5    1.383935 Am   
C14   C182  1.519398 S    
C167  C171  1.399920 A    
C34   C66   1.418121 A    
C91   C153  1.429999 A    
C28   H56   1.110914 S    
C113  C169  1.399311 A    
O66   H125  1.013852 S    
C115  C171  1.399316 A    
C138  N10   1.439937 S    
C147  C151  1.418929 A    
C109  C113  1.407223 A    
C148  C152  1.417587 A    
C1    H9    1.110649 S    
C20   H40   1.109678 S    
C23   H47   1.105172 S    
N10   O76   1.300681 A    
O25   Ba1   2.833319 S    
C51   C79   1.321823 D    
C7    H19   1.109957 S    
C1    H5    1.109921 S    
C40   O60   1.219259 D    
C165  C177  1.485418 S    
C149  C153  1.419676 A    
C118  O62   1.221319 D    
C162  H106  1.083916 S    
P8    Ba4   3.414076 S    
C6    H14   1.111834 S    
C4    C32   1.518387 S    
C153  C173  1.412037 A    
C127  C131  1.509908 S    
C135  C139  1.347228 D    
C89   C155  1.430000 A    
C136  C140  1.352857 D    
C87   C95   1.424049 A    
O43   C7    1.406386 S    
N2    C38   1.400318 Am   
P12   O36   1.547762 D    
C69   C157  1.395371 A    
O70   H127  1.013853 S    
C44   C48   1.511229 S    
O6    Ba1   2.771549 S    
C28   H60   1.105308 S    
C75   C163  1.400745 A    
C95   C111  1.429408 A    
C26   H62   1.110692 S    
C85   C147  1.429989 A    
C96   C112  1.428864 A    
C27   H59   1.105188 S    
C21   C25   1.523238 S    
C18   H38   1.109751 S    
C38   O58   1.219258 D    
C111  C115  1.407223 A    
C180  O72   1.398358 S    
O18   C22   1.390092 S    
C83   C131  1.512747 S    
O1    Ba1   2.828740 S    
O22   P13   1.751181 S    
O32   Ba4   2.699301 S    
C10   H26   1.110522 S    
C116  C172  1.398398 A    
C12   H24   1.109955 S    
O16   P15   1.547302 D    
C9    H73   1.110648 S    
O72   H128  1.013710 S    
C115  C119  1.412960 A    
N9    O74   1.300819 A    
P12   O32   1.745143 S    
C8    C12   1.520058 S    
N3    C39   1.386536 Am   
C2    H70   1.108742 S    
C92   C96   1.426116 A    
O26   Ba2   2.829005 S    
C181  O82   1.400715 S    
O12   P15   1.745741 S    
Ba2   O46   2.770172 S    
C25   H61   1.110564 S    
P2    O2    1.529816 D    
C23   C27   1.523234 S    
P2    C134  1.848711 S    
C24   H48   1.105552 S    
P7    O39   1.758517 S    
C179  O70   1.398524 S    
N7    C143  1.457002 S    
C82   C130  1.504999 S    
C35   O51   1.221882 D    
P9    C46   1.855904 S    
C183  O86   1.400745 S    
H3    C31   1.110821 S    
C78   H118  1.084975 S    
H1    C29   1.110821 S    
C4    H8    1.108948 S    
C106  C110  1.404522 A    
O82   H129  1.010698 S    
C61   C65   1.408725 A    
C139  C143  1.518354 S    
O23   P16   1.748893 S    
C51   C55   1.332954 D    
C94   C110  1.428863 A    
O24   P15   1.751204 S    
C168  C172  1.402618 A    
C31   H67   1.111784 S    
C43   C59   1.355992 D    
C86   C98   1.415213 A    
C41   C57   1.355992 D    
N11   O77   1.301394 A    
C53   C57   1.505454 S    
C104  C108  1.400047 A    
P12   C47   1.865652 S    
C6    C10   1.520055 S    
O13   P14   1.542484 D    
C19   H39   1.111008 S    
C159  H99   1.076942 S    
C120  O64   1.221320 D    
Ba4   O48   2.770172 S    
C50   C54   1.337256 D    
P10   O34   1.547748 D    
C36   C68   1.418127 A    
P11   O31   1.753664 S    
O2    Ba2   2.833010 S    
P2    O6    1.554361 S    
O9    P14   1.745441 S    
C68   C72   1.400986 A    
C157  H97   1.076943 S    
O24   C32   1.401803 S    
C166  C178  1.484027 S    
C104  H92   1.083898 S    
N12   O79   1.301076 A    
C80   H120  1.084979 S    
C21   H49   1.110163 S    
C82   C134  1.329468 D    
C22   C26   1.523563 S    
C133  C137  1.347229 D    
C2    H6    1.108967 S    
C79   H119  1.087048 S    
C37   C73   1.410983 A    
C120  N8    1.390553 Am   
C90   C156  1.437437 A    
C128  C144  1.360898 D    
C102  C106  1.400048 A    
C87   C99   1.415380 A    
C88   C96   1.423709 A    
C50   C78   1.322950 D    
N6    C122  1.395361 Am   
C53   H77   1.085585 S    
O40   C15   1.417602 S    
C156  C176  1.414600 A    
C127  C143  1.354732 D    
C162  C174  1.391822 A    
C173  H113  1.079103 S    
C41   C45   1.512074 S    
C73   C161  1.400743 A    
C62   C74   1.398520 A    
C62   C150  1.431235 A    
C98   H94   1.076482 S    
C107  C123  1.415497 A    
O88   H132  1.010962 S    
C40   C76   1.410735 A    
C48   C80   1.502451 S    
C18   H34   1.105254 S    
C184  O87   1.222091 D    
C118  N6    1.390556 Am   
C123  O55   1.222379 D    
O17   C21   1.394030 S    
C124  O56   1.220951 D    
C13   H29   1.110811 S    
C146  C158  1.417464 A    
C175  H115  1.079099 S    
