data_mof_unit_12681.cif
_audit_creation_date              2012-12-10T18:59:20-0500
_audit_creation_method            fapswitch 2.2
_symmetry_space_group_name_H-M    P1
_symmetry_Int_Tables_number       1
_space_group_crystal_system       triclinic
_cell_length_a                    9.984873
_cell_length_b                    10.69764
_cell_length_c                    16.648916
_cell_angle_alpha                 86.534716
_cell_angle_beta                  94.425752
_cell_angle_gamma                 89.69271
_cell_volume                      1769.7125223

loop_
_atom_site_label
_atom_site_type_symbol
_atom_type_description
_atom_site_fract_x
_atom_site_fract_y
_atom_site_fract_z
_atom_type_partial_charge
C1    C     C_R   0.499837 0.260418 0.499151 0.880924
C2    C     C_R   0.080038 0.429774 0.557254 0.020041
C3    C     C_R   0.517462 0.501895 0.653293 0.884432
C4    C     C_R   0.482509 0.498419 0.346694 0.883734
C5    C     C_R   0.527050 0.519681 0.739301 -0.075230
C6    C     C_R   0.472744 0.482056 0.260543 -0.075066
C7    C     C_R   0.416947 0.570988 0.773675 -0.195978
C8    C     C_R   0.582306 0.430429 0.225832 -0.195579
C9    C     C_R   0.422788 0.588455 0.856113 0.010113
C10   C     C_R   0.576364 0.414610 0.143192 0.010391
C11   C     C_R   0.540287 0.550376 0.904088 0.214117
C12   C     C_R   0.499751 0.739690 0.499380 0.886788
C13   C     C_R   0.459271 0.454495 0.095437 0.214721
C14   C     C_R   0.652753 0.506695 0.868981 -0.160983
C15   C     C_R   0.347324 0.498733 0.130809 -0.160559
C16   C     C_R   0.646447 0.491303 0.786664 -0.202259
C17   C     C_R   0.353757 0.512611 0.213292 -0.205431
C18   C     C_R   0.387911 0.062074 0.523269 -0.158346
C19   C     C_R   0.608455 0.938363 0.470054 -0.155779
C20   C     C_2   0.691621 0.357347 0.107006 0.400805
C21   C     C_2   0.306962 0.645416 0.891898 0.402578
C22   C     C_3   0.134147 0.692496 0.407469 -0.386891
C23   C     C_R   0.388458 0.934014 0.524143 -0.226435
C24   C     C_3   0.058780 0.784052 0.344766 -0.440925
C25   C     C_3   0.151547 0.888348 0.316559 -0.836617
C26   C     C_3   0.875288 0.327705 0.611693 -0.398850
C27   C     C_3   0.904355 0.193580 0.588897 -0.369244
C28   C     C_3   0.831711 0.097118 0.640688 -0.832578
C29   C     C_2   0.839329 0.620269 0.370365 0.451993
C30   C     C_2   0.159731 0.372741 0.628681 0.457341
C31   C     C_R   0.607165 0.066662 0.468416 -0.209203
C32   C     C_R   0.499091 0.872456 0.498009 -0.015411
C33   C     C_R   0.498448 0.127953 0.496895 -0.024444
C34   C     C_R   0.064275 0.579860 0.446729 0.038151
C35   C     C_R   0.936726 0.424910 0.555388 0.060789
C36   C     C_R   0.920134 0.570827 0.442840 0.038885
H1    H     H_    0.672106 0.401794 0.263312 0.186964
H2    H     H_    0.690260 0.117602 0.444730 0.158351
H3    H     H_    0.683671 0.336157 0.043927 0.087110
H4    H     H_    0.314801 0.667972 0.954734 0.086474
H5    H     H_    0.190058 0.942253 0.368332 0.266976
H6    H     H_    0.237790 0.848467 0.287930 0.261849
H7    H     H_    0.095002 0.953419 0.271519 0.267765
H8    H     H_    0.022327 0.734237 0.290822 0.233250
H9    H     H_    0.974291 0.829361 0.371937 0.264717
H10   H     H_    0.167971 0.750394 0.457927 0.229443
H11   H     H_    0.221360 0.659745 0.378382 0.258863
H12   H     H_    0.326757 0.598070 0.736094 0.188499
H13   H     H_    0.867515 0.101951 0.705254 0.266524
H14   H     H_    0.721530 0.114268 0.633640 0.266535
H15   H     H_    0.852427 0.001636 0.621669 0.256811
H16   H     H_    0.871514 0.184215 0.524413 0.229340
H17   H     H_    0.013335 0.171866 0.596900 0.245620
H18   H     H_    0.912728 0.340047 0.675248 0.161431
H19   H     H_    0.767007 0.337568 0.610230 0.275974
H20   H     H_    0.855046 0.583163 0.312554 0.044150
H21   H     H_    0.141939 0.402349 0.688172 0.045179
H22   H     H_    0.742819 0.478466 0.906257 0.153442
H23   H     H_    0.257575 0.528357 0.093675 0.153438
H24   H     H_    0.733080 0.453768 0.760588 0.157336
H25   H     H_    0.267578 0.550637 0.239616 0.161030
H26   H     H_    0.301936 0.108669 0.544015 0.205788
H27   H     H_    0.694179 0.891471 0.449145 0.202601
H28   H     H_    0.303758 0.883533 0.546400 0.157166
N1    N     N_2   0.541886 0.541079 0.988370 -0.213803
N2    N     N_2   0.457461 0.464142 0.011167 -0.214143
N3    N     N_R   0.857210 0.499970 0.500020 -0.124594
N4    N     N_R   0.142790 0.500030 0.499980 -0.125223
O1    O     O_R   0.614620 0.316750 0.500010 -0.650004
O2    O     O_2   0.201472 0.668786 0.851499 -0.579989
O3    O     O_2   0.758197 0.704927 0.373444 -0.587739
O4    O     O_2   0.240625 0.288972 0.622830 -0.584993
O5    O     O_R   0.385380 0.683250 0.499990 -0.662050
O6    O     O_R   0.385290 0.316780 0.500000 -0.562001
O7    O     O_R   0.614710 0.683220 0.500000 -0.564430
O8    O     O_R   0.627460 0.498830 0.616130 -0.646194
O9    O     O_R   0.372540 0.501170 0.383870 -0.642052
O10   O     O_R   0.398130 0.498850 0.616130 -0.598229
O11   O     O_R   0.601870 0.501150 0.383870 -0.597722
O12   O     O_2   0.796766 0.332196 0.147342 -0.581291
Zn1   Zn    Zn3+2 0.653130 0.499980 0.500000 0.968128
Zn2   Zn    Zn3+2 0.346870 0.500020 0.500000 0.963704

loop_
_geom_bond_atom_site_label_1
_geom_bond_atom_site_label_2
_ccdc_geom_bond_type
C2    C35   A    
C19   C31   A    
C26   H19   S    
C25   H7    S    
C36   N3    A    
C1    C33   S    
C29   C36   S    
C26   C27   S    
C24   H9    S    
C2    N4    A    
C28   H15   S    
C30   H21   S    
C15   C17   A    
C16   H24   S    
C5    C16   A    
C17   H25   S    
C28   H14   S    
C19   H27   S    
C31   C33   A    
C34   C36   A    
C22   H11   S    
C12   O5    A    
C12   C32   S    
O6    Zn2   S    
C22   C34   S    
C19   C32   A    
C26   H18   S    
C13   N2    S    
C14   H22   S    
C20   O12   D    
C18   C23   A    
C24   C25   S    
C4    O11   A    
C4    C6    S    
C34   N4    A    
C5    C7    A    
C20   H3    S    
O7    Zn1   S    
C6    C8    A    
C1    O1    A    
C25   H6    S    
C28   H13   S    
O10   Zn2   S    
C35   N3    A    
C3    O8    A    
C9    C11   A    
C23   H28   S    
C22   H10   S    
N3    Zn1   S    
C13   C15   A    
C24   H8    S    
C22   C24   S    
C8    H1    S    
C1    O6    A    
C25   H5    S    
O5    Zn2   S    
C27   H16   S    
O11   Zn1   S    
C7    C9    A    
C6    C17   A    
C15   H23   S    
C18   H26   S    
C3    C5    S    
C10   C13   A    
O8    Zn1   S    
C30   O4    D    
C27   H17   S    
C29   H20   S    
C31   H2    S    
C21   O2    D    
C2    C30   S    
N4    Zn2   S    
C7    H12   S    
C4    O9    A    
C23   C32   A    
C9    C21   S    
C21   H4    S    
C10   C20   S    
O9    Zn2   S    
C11   C14   A    
C14   C16   A    
C18   C33   A    
O1    Zn1   S    
C26   C35   S    
C8    C10   A    
N1    N2    D    
C12   O7    A    
C27   C28   S    
C3    O10   A    
C11   N1    S    
C29   O3    D    
