data_mof_unit_20230.cif
_audit_creation_date              2012-10-26T20:33:41-0400
_audit_creation_method            fapswitch 2.2
_symmetry_space_group_name_H-M    P1
_symmetry_Int_Tables_number       1
_space_group_crystal_system       triclinic
_cell_length_a                    10.750496
_cell_length_b                    9.095358
_cell_length_c                    7.789369
_cell_angle_alpha                 90.000042
_cell_angle_beta                  90.0
_cell_angle_gamma                 90.000036
_cell_volume                      761.641461389

loop_
_atom_site_label
_atom_site_type_symbol
_atom_type_description
_atom_site_fract_x
_atom_site_fract_y
_atom_site_fract_z
_atom_type_partial_charge
C1    C     C_R   0.500000 0.220047 0.499998 0.547783
C2    C     C_1   0.500000 0.934629 0.499994 -0.060708
C3    C     C_3   0.071784 0.638790 0.408257 -0.235334
C4    C     C_3   0.928216 0.638793 0.408266 -0.235338
C5    C     C_3   0.121558 0.499971 0.501174 0.048369
C6    C     C_3   0.878441 0.499971 0.501174 0.048365
C7    C     C_R   0.259219 0.499979 0.500256 0.536855
C8    C     C_R   0.740781 0.499979 0.500256 0.536855
C9    C     C_R   0.500000 0.779960 0.499998 0.547708
C10   C     C_1   0.500000 0.065378 0.499994 -0.060724
C11   C     C_3   0.071227 0.499891 0.688238 -0.231903
C12   C     C_3   0.071784 0.361228 0.408099 -0.235333
C13   C     C_3   0.928773 0.499883 0.688238 -0.231905
C14   C     C_3   0.928215 0.361233 0.408091 -0.235331
Cu1   Cu    Cu3+1 0.500000 0.500010 0.669080 0.995525
Cu2   Cu    Cu3+1 0.500000 0.500010 0.330920 0.995881
H1    H     H_    0.105290 0.598668 0.758444 0.128694
H2    H     H_    0.106540 0.260321 0.473210 0.108825
H3    H     H_    0.894706 0.401045 0.758319 0.128664
H4    H     H_    0.893451 0.260323 0.473185 0.108824
H5    H     H_    0.106024 0.358384 0.273270 0.129728
H6    H     H_    0.894702 0.598648 0.758454 0.128697
H7    H     H_    0.893984 0.358403 0.273259 0.129732
H8    H     H_    0.106548 0.739643 0.473473 0.108826
H9    H     H_    0.106016 0.641739 0.273428 0.129712
H10   H     H_    0.893461 0.739641 0.473498 0.108829
H11   H     H_    0.893975 0.641757 0.273443 0.129710
H12   H     H_    0.105301 0.401062 0.758334 0.128666
N1    N     N_1   0.500000 0.499970 0.076820 -0.086640
N2    N     N_1   0.500000 0.499970 0.923180 -0.086720
O1    O     O_R   0.500000 0.288400 0.642760 -0.495708
O2    O     O_R   0.500000 0.288400 0.357240 -0.495993
O3    O     O_R   0.317700 0.499990 0.642790 -0.511413
O4    O     O_R   0.317700 0.499990 0.357210 -0.510008
O5    O     O_R   0.682300 0.499990 0.642790 -0.511413
O6    O     O_R   0.682300 0.499990 0.357210 -0.510008
O7    O     O_R   0.500000 0.711620 0.642810 -0.495740
O8    O     O_R   0.500000 0.711620 0.357190 -0.496027

loop_
_geom_bond_atom_site_label_1
_geom_bond_atom_site_label_2
_ccdc_geom_bond_type
C14   H7    S    
C4    H10   S    
Cu1   O1    S    
N1    N2    T    
C6    C14   S    
C11   C13   S    
C3    H9    S    
C9    O7    A    
Cu2   O6    S    
C6    C13   S    
C7    O3    A    
C3    H8    S    
C11   H12   S    
C5    C12   S    
Cu1   O5    S    
C9    O8    A    
C12   C14   S    
C13   H6    S    
C5    C11   S    
C7    O4    A    
Cu2   O2    S    
C13   H3    S    
C3    C4    S    
C2    C10   T    
C14   H4    S    
C1    O1    A    
C4    H11   S    
Cu1   N2    S    
C4    C6    S    
C8    O6    A    
C12   H2    S    
C5    C7    S    
C11   H1    S    
C6    C8    S    
Cu2   O4    S    
Cu2   N1    S    
C2    C9    S    
C12   H5    S    
Cu1   O3    S    
C1    O2    A    
Cu1   O7    S    
C1    C10   S    
Cu1   Cu2   S    
Cu2   O8    S    
C3    C5    S    
C8    O5    A    
