data_mof_unit_67307.cif
_audit_creation_date              2013-03-05T16:02:34-0500
_audit_creation_method            fapswitch 2.2
_symmetry_space_group_name_H-M    P1
_symmetry_Int_Tables_number       1
_space_group_crystal_system       triclinic
_cell_length_a                    8.686367
_cell_length_b                    14.843081
_cell_length_c                    16.571375
_cell_angle_alpha                 106.572062
_cell_angle_beta                  81.946829
_cell_angle_gamma                 92.183759
_cell_volume                      2027.63922849

loop_
_atom_site_label
_atom_site_type_symbol
_atom_site_description
_atom_site_fract_x
_atom_site_fract_y
_atom_site_fract_z
_atom_type_partial_charge
P1    P     P_3+3 0.619500 0.379780 0.307000 0.482553
O1    O     O_2   0.449810 0.404330 0.292300 -0.369999
O2    O     O_3   0.665430 0.428070 0.399450 -0.409841
O3    O     O_3   0.183150 0.584440 0.337010 -0.407810
O4    O     O_2   0.352131 0.503254 0.191154 -0.404149
O5    O     O_3   0.628572 0.254095 0.263465 -0.525487
O6    O     O_3   0.212029 0.665553 0.203593 -0.505631
H1    H     H_    0.127580 0.732484 0.330474 0.066201
C1    C     C_3   0.134617 0.834125 0.264334 0.436235
P2    P     P_3+3 0.105540 0.727570 0.557610 0.563332
P3    P     P_3+3 0.604679 0.763059 0.387595 0.521359
O7    O     O_2   0.286000 0.735700 0.531070 -0.307444
O8    O     O_3   0.580930 0.641410 0.378050 -0.356040
O9    O     O_2   0.451476 0.810744 0.436827 -0.316065
O10   O     O_3   0.062248 0.786259 0.668345 -0.513367
O11   O     O_3   0.605250 0.781244 0.286383 -0.515359
C2    C     C_3   0.576370 0.695628 0.226724 0.324552
H2    H     H_    0.458992 0.672111 0.244786 0.164538
H3    H     H_    0.657734 0.640565 0.228474 0.025569
C3    C     C_3   0.595510 0.702409 0.133735 0.682374
C4    C     C_3   0.676156 0.793961 0.745312 0.665599
H4    H     H_    0.789551 0.757267 0.730186 0.072351
C5    C     C_3   0.622712 0.818870 0.842285 -0.096040
H5    H     H_    0.537700 0.767278 0.856965 0.091723
H6    H     H_    0.721936 0.813297 0.875885 0.158014
Ba1   Ba    Ba6+2 0.356390 0.534880 0.456030 1.594302
C6    C     C_3   0.554204 0.200008 0.314211 0.177654
H7    H     H_    0.432287 0.221953 0.333773 0.071018
H8    H     H_    0.619807 0.206566 0.368129 0.066266
C7    C     C_3   0.550183 0.092941 0.266441 0.196482
H9    H     H_    0.521459 0.055427 0.315679 0.125904
C8    C     C_3   0.150436 0.760698 0.722913 0.187097
H10   H     H_    0.271471 0.744121 0.692596 0.118254
H11   H     H_    0.086603 0.703858 0.743084 0.057874
C9    C     C_3   0.160430 0.840257 0.805857 0.289311
H12   H     H_    0.260761 0.886106 0.795683 0.215862
P4    P     P_3+3 0.570190 0.620290 0.693000 0.489953
O12   O     O_2   0.739870 0.595710 0.707750 -0.382895
O13   O     O_3   0.524260 0.572010 0.600550 -0.328066
O14   O     O_3   0.006540 0.415640 0.663000 -0.344498
O15   O     O_3   0.564301 0.740389 0.698991 -0.570191
P5    P     P_3+3 0.586663 0.237460 0.614371 0.439982
O16   O     O_3   0.149240 0.378950 0.461440 -0.429999
O17   O     O_3   0.608760 0.358670 0.621950 -0.398833
O18   O     O_2   0.747139 0.190337 0.578037 -0.384162
O19   O     O_3   0.553765 0.224736 0.717807 -0.528285
Ba2   Ba    Ba6+2 0.833430 0.465200 0.543970 1.553341
P6    P     P_3+3 0.195867 0.556072 0.227187 0.431085
C10   C     C_3   0.109549 0.730641 0.265081 0.516500
H13   H     H_    0.041960 0.873389 0.311359 0.052464
O20   O     O_3   0.040450 0.621130 0.538560 -0.376205
C11   C     C_3   0.116258 0.264072 0.275832 0.382472
H14   H     H_    0.137146 0.335909 0.309559 0.076649
C12   C     C_3   0.233363 0.247736 0.193974 -0.085558
H15   H     H_    0.233459 0.311248 0.171096 0.139834
H16   H     H_    0.351305 0.241691 0.208804 0.184979
P7    P     P_3+3 0.089646 0.259706 0.437727 0.471494
O21   O     O_2   0.903680 0.264350 0.468980 -0.342514
O22   O     O_3   0.142710 0.207296 0.326648 -0.549472
C13   C     C_3   0.581238 0.311194 0.776109 0.277268
H17   H     H_    0.698872 0.335309 0.758053 0.177420
H18   H     H_    0.499215 0.365590 0.773059 0.037647
C14   C     C_3   0.563484 0.303943 0.868826 0.593493
P8    P     P_3+3 0.990800 0.449457 0.773404 0.431445
C15   C     C_3   0.073888 0.289498 0.796030 0.462048
H19   H     H_    0.129476 0.325582 0.852099 0.063458
O23   O     O_2   0.842108 0.510424 0.803136 -0.409013
O24   O     O_3   0.942991 0.343941 0.798405 -0.565743
C16   C     C_3   0.015471 0.192541 0.805558 0.175568
H20   H     H_    0.935382 0.206034 0.865754 0.185279
C17   C     C_2   0.265740 0.549818 0.754049 -0.169239
C18   C     C_R   0.906515 0.464293 0.252668 -0.282186
C19   C     C_2   0.465269 0.591824 0.850101 -0.414380
C20   C     C_2   0.426085 0.583154 0.772604 0.228463
C21   C     C_2   0.167705 0.515395 0.810663 0.225342
C22   C     C_3   0.219482 0.514496 0.895872 -0.217498
C23   C     C_3   0.344942 0.587082 0.923170 0.214074
C24   C     C_2   0.094601 0.515917 0.971263 0.234608
C25   C     C_2   0.120353 0.478590 0.034968 -0.096640
C26   C     C_R   0.862926 0.415145 0.082053 -0.028390
C27   C     C_R   0.998209 0.464223 0.104636 -0.107303
C28   C     C_R   0.747327 0.394780 0.142324 0.201244
C29   C     C_R   0.761921 0.424278 0.229554 0.235017
C30   C     C_R   0.022967 0.486530 0.190986 0.217226
H21   H     H_    0.580518 0.615751 0.864274 0.185811
H22   H     H_    0.236501 0.455618 0.036058 0.137279
C31   C     C_R   0.185895 0.956365 0.546681 0.416385
C32   C     C_R   0.007458 0.808346 0.508818 0.226270
C33   C     C_R   0.863748 0.774517 0.480152 -0.056600
C34   C     C_R   0.775536 0.823369 0.442489 0.168943
C35   C     C_R   0.815277 0.917042 0.446713 0.118616
C36   C     C_R   0.961581 0.955777 0.472260 -0.100289
C37   C     C_R   0.054801 0.905188 0.509813 -0.181987
C38   C     C_R   0.149339 0.091275 0.490278 -0.149560
C39   C     C_R   0.235634 0.045396 0.533753 -0.057320
C40   C     C_R   0.199049 0.184896 0.484676 0.278164
C41   C     C_R   0.344338 0.221650 0.511025 -0.187041
C42   C     C_R   0.426861 0.175691 0.553960 0.230960
C43   C     C_R   0.372696 0.089895 0.564813 -0.259810
C44   C     C_R   0.020072 0.040684 0.454085 0.370835
H23   H     H_    0.443003 0.059661 0.599039 0.229226
Br1   Br    Br    0.527070 0.941809 0.895137 -0.239724
C45   C     C_3   0.428712 0.065632 0.206285 -0.586273
H24   H     H_    0.429217 0.988359 0.177483 0.307754
H25   H     H_    0.310949 0.084547 0.240264 0.261784
H26   H     H_    0.458382 0.097989 0.153607 0.285686
Br2   Br    Br    0.740574 0.038360 0.198147 -0.281219
Br3   Br    Br    0.316769 0.892473 0.310495 -0.519729
Br4   Br    Br    0.978434 0.919768 0.843711 -0.330615
C46   C     C_3   0.183206 0.800254 0.878825 -0.860016
H27   H     H_    0.205655 0.857811 0.935584 0.339220
H28   H     H_    0.077787 0.761529 0.896316 0.254370
H29   H     H_    0.282326 0.751139 0.859865 0.202931
C47   C     C_3   0.942186 0.702940 0.253487 -1.033979
H30   H     H_    0.934342 0.662037 0.187231 0.279305
H31   H     H_    0.895700 0.660467 0.296603 0.219922
H32   H     H_    0.870241 0.765969 0.267656 0.276240
C48   C     C_3   0.954808 0.244066 0.253515 -0.632102
H33   H     H_    0.946637 0.168582 0.223782 0.324570
H34   H     H_    0.872044 0.261330 0.312527 0.230458
H35   H     H_    0.930370 0.279750 0.206814 0.191856
Br5   Br    Br    0.191085 0.142651 0.097038 -0.322723
Br6   Br    Br    0.105827 0.867116 0.162191 -0.259819
Br7   Br    Br    0.776084 0.772254 0.106455 -0.402089
C49   C     C_3   0.651140 0.384715 0.923731 -0.953264
H36   H     H_    0.592825 0.409431 0.989724 0.289379
H37   H     H_    0.770276 0.363004 0.925891 0.289064
H38   H     H_    0.652922 0.446942 0.899452 0.240610
C50   C     C_3   0.395181 0.311944 0.906718 -0.849709
H39   H     H_    0.332941 0.257983 0.865113 0.278674
H40   H     H_    0.376406 0.302269 0.971441 0.304974
H41   H     H_    0.352171 0.380551 0.909018 0.183294
Br8   Br    Br    0.626710 0.182266 0.875603 -0.318855
C51   C     C_3   0.189652 0.275952 0.714716 -0.881087
H42   H     H_    0.259550 0.339874 0.714842 0.204541
H43   H     H_    0.271472 0.219412 0.710033 0.265657
H44   H     H_    0.127010 0.256713 0.658445 0.253540
Br9   Br    Br    0.174153 0.110578 0.818263 -0.374452
C52   C     C_3   0.932275 0.137018 0.731217 -0.603850
H45   H     H_    0.015500 0.112101 0.672534 0.213995
H46   H     H_    0.875891 0.074680 0.746300 0.304299
H47   H     H_    0.842771 0.180572 0.719008 0.263372
Br10  Br    Br    0.589139 0.308331 0.099978 -0.439693
C53   C     C_3   0.218146 0.548101 0.668926 -0.675216
H48   H     H_    0.093597 0.563678 0.673209 0.250767
H49   H     H_    0.273429 0.600409 0.640550 0.214888
H50   H     H_    0.244910 0.480214 0.622756 0.236026
C54   C     C_3   0.940507 0.474027 0.341488 -0.534387
H51   H     H_    0.059362 0.466155 0.348300 0.221120
H52   H     H_    0.890008 0.539112 0.386379 0.251214
H53   H     H_    0.910489 0.411463 0.361959 0.194387
C55   C     C_3   0.951778 0.571857 0.980868 -0.790767
H54   H     H_    0.858704 0.524391 0.956401 0.254564
H55   H     H_    0.918486 0.606883 0.048556 0.258931
H56   H     H_    0.971345 0.626754 0.947021 0.253148
Br11  Br    Br    0.752724 0.678067 0.518051 -0.342218
C56   C     C_3   0.688909 0.976742 0.433785 -0.704194
H57   H     H_    0.578235 0.964467 0.470560 0.243817
H58   H     H_    0.710332 0.052827 0.457640 0.245612
H59   H     H_    0.674163 0.957998 0.365620 0.288257
C57   C     C_3   0.414884 0.312136 0.498108 -0.688984
H60   H     H_    0.542708 0.307730 0.485261 0.235009
H61   H     H_    0.389513 0.331194 0.442719 0.232318
H62   H     H_    0.383502 0.369416 0.555529 0.229142
Br12  Br    Br    0.284285 0.923919 0.631881 -0.412477
Br13  Br    Br    0.969641 0.055014 0.349214 -0.476251
C58   C     C_3   0.594700 0.604322 0.071761 -1.127268
H63   H     H_    0.674704 0.557005 0.086506 0.242323
H64   H     H_    0.476682 0.573395 0.075820 0.302245
H65   H     H_    0.627955 0.607847 0.005694 0.292212
Br14  Br    Br    0.439289 0.770231 0.105785 -0.379364
Br15  Br    Br    0.713160 0.902823 0.702042 -0.375503

loop_
_geom_bond_atom_site_label_1
_geom_bond_atom_site_label_2
_geom_bond_distance
_ccdc_geom_bond_type
C16   C52   1.531026 S    
O14   Ba2   2.904482 S    
P4    C20   1.873612 S    
C56   H57   1.102098 S    
C7    Br2   1.930523 S    
C6    H8    1.105151 S    
P3    O8    1.773632 S    
C19   C20   1.344070 D    
C12   H15   1.111834 S    
C9    H12   1.109132 S    
C54   H53   1.087168 S    
C57   H62   1.089075 S    
C51   H44   1.107059 S    
C47   H30   1.102859 S    
P7    O21   1.623615 D    
C24   C55   1.483808 S    
O10   C8    1.400129 S    
C58   H64   1.108430 S    
C31   Br12  1.926941 S    
C1    Br3   1.922365 S    
P2    C32   1.908137 S    
C13   C14   1.556509 S    
P8    O24   1.751970 S    
C44   Br13  1.920555 S    
C54   H52   1.100003 S    
P2    O10   1.785322 S    
P5    C42   1.881065 S    
C7    H9    1.108876 S    
C26   C27   1.397886 A    
P3    O9    1.541331 D    
C39   C43   1.427053 A    
Ba1   O13   2.886148 S    
P7    O22   1.782882 S    
C5    Br1   1.946053 S    
C42   C43   1.391664 A    
C2    C3    1.558118 S    
C13   H18   1.113238 S    
P1    O1    1.599045 D    
P5    O19   1.760308 S    
C46   H27   1.110349 S    
C1    Br6   1.941176 S    
C48   H33   1.091778 S    
O11   C2    1.408464 S    
P7    C40   1.876649 S    
C31   C39   1.439093 A    
C7    C45   1.517555 S    
C49   H38   1.106526 S    
C5    H5    1.097159 S    
P4    Ba2   3.493250 S    
C15   C51   1.532489 S    
C9    Br4   1.930698 S    
O17   Ba2   2.864022 S    
C50   H41   1.086708 S    
C32   C33   1.420707 A    
P2    Ba1   3.530243 S    
C5    H6    1.107209 S    
C10   C47   1.518914 S    
C12   Br5   1.959736 S    
C56   H58   1.102826 S    
C4    H4    1.106129 S    
C6    C7    1.561832 S    
C38   C39   1.419410 A    
P5    O17   1.772286 S    
C53   H50   1.087668 S    
P2    O20   1.616426 S    
C57   H61   1.086575 S    
C11   C12   1.542134 S    
Ba1   O16   2.891094 S    
C41   C42   1.393723 A    
C58   H65   1.108024 S    
C46   H28   1.110628 S    
O4    P6    1.549382 D    
C12   H16   1.099157 S    
O3    Ba1   2.905047 S    
C35   C56   1.511402 S    
P1    O5    1.798465 S    
C18   C29   1.423090 A    
C8    C9    1.546291 S    
C1    C10   1.546451 S    
C54   H51   1.068489 S    
O6    C10   1.419112 S    
C26   C28   1.401896 A    
C35   C36   1.442594 A    
C25   C27   1.511298 S    
C24   C25   1.371392 D    
C28   Br10  1.910282 S    
C33   Br11  1.900510 S    
Ba2   O20   2.890431 S    
C18   C54   1.507200 S    
P6    C30   1.860655 S    
O7    Ba1   2.935423 S    
C13   H17   1.099683 S    
P1    O2    1.594705 S    
P5    O18   1.547184 D    
C8    H11   1.097396 S    
C21   C22   1.544492 S    
P8    O23   1.544771 D    
P4    O12   1.599387 D    
C11   O22   1.394936 S    
P3    O11   1.772508 S    
C47   H31   1.108021 S    
O5    C6    1.400849 S    
C55   H56   1.109457 S    
C38   C44   1.432466 A    
C15   O24   1.409514 S    
C40   C41   1.430747 A    
C2    H2    1.094513 S    
C45   H25   1.101182 S    
C18   C30   1.433270 A    
C22   C23   1.524365 S    
C38   C40   1.463816 A    
C46   H29   1.101303 S    
C19   H21   1.083829 S    
O12   Ba2   2.877856 S    
C14   C49   1.532069 S    
C9    C46   1.529485 S    
P2    O7    1.577300 D    
Ba1   Ba2   4.821030 S    
C4    O15   1.402661 S    
C53   H49   1.082167 S    
C43   H23   1.076647 S    
C55   H55   1.095458 S    
C15   H19   1.097922 S    
C56   H59   1.108315 S    
C41   C57   1.513190 S    
C4    C5    1.549093 S    
P1    Ba1   3.492663 S    
O8    Ba1   2.863347 S    
C14   Br8   1.945421 S    
C58   H63   1.103898 S    
C27   C30   1.419155 A    
C11   H14   1.075159 S    
C36   C44   1.435967 A    
O13   Ba2   3.062001 S    
C50   H39   1.079617 S    
O3    P6    1.735417 S    
C16   Br9   1.944101 S    
C3    C58   1.524056 S    
C32   C37   1.476122 A    
O19   C13   1.404019 S    
O2    Ba1   3.061035 S    
C1    H13   1.093460 S    
C22   C24   1.531330 S    
C53   H48   1.103242 S    
O1    Ba1   2.877297 S    
C17   C20   1.503326 S    
C51   H43   1.099221 S    
C52   H45   1.106038 S    
C51   H42   1.106437 S    
P1    C29   1.894786 S    
C4    Br15  1.945560 S    
O14   P8    1.740459 S    
C8    H10   1.104303 S    
P4    O13   1.594680 S    
C57   H60   1.101717 S    
Ba1   O20   3.042749 S    
O6    P6    1.772853 S    
Ba2   O21   2.935508 S    
C17   C21   1.372158 D    
C52   H46   1.105264 S    
P3    C34   1.908918 S    
C34   C35   1.404256 A    
C49   H36   1.103273 S    
C52   H47   1.104673 S    
C15   C16   1.550826 S    
C31   C37   1.453020 A    
O2    Ba2   2.886840 S    
C36   C37   1.435574 A    
C2    H3    1.109781 S    
P8    C21   1.872674 S    
C45   H26   1.107171 S    
C14   C50   1.503049 S    
P4    O15   1.759223 S    
C16   H20   1.105151 S    
C48   H34   1.101325 S    
C3    Br7   1.919429 S    
C47   H32   1.095023 S    
O16   P7    1.773552 S    
C3    Br14  1.901460 S    
C55   H54   1.095394 S    
C28   C29   1.408318 A    
C45   H24   1.109454 S    
C49   H37   1.103824 S    
C19   C23   1.500656 S    
C50   H40   1.111142 S    
C33   C34   1.391749 A    
O16   Ba2   3.041782 S    
H1    C10   1.109010 S    
C48   H35   1.101348 S    
C25   H22   1.081347 S    
C17   C53   1.517723 S    
C6    H7    1.096614 S    
C11   C48   1.497550 S    
