data_mof_unit_58032.cif
_audit_creation_date              2012-10-26T20:16:51-0400
_audit_creation_method            fapswitch 2.2
_symmetry_space_group_name_H-M    P1
_symmetry_Int_Tables_number       1
_space_group_crystal_system       triclinic
_cell_length_a                    10.924187
_cell_length_b                    10.903675
_cell_length_c                    10.446641
_cell_angle_alpha                 92.559764
_cell_angle_beta                  91.337893
_cell_angle_gamma                 89.479961
_cell_volume                      1242.71822999

loop_
_atom_site_label
_atom_site_type_symbol
_atom_type_description
_atom_site_fract_x
_atom_site_fract_y
_atom_site_fract_z
_atom_type_partial_charge
C1    C     C_R   0.499584 0.261287 0.497601 0.548742
C2    C     C_R   0.523584 0.885212 0.841634 0.036808
C3    C     C_R   0.537062 0.102647 0.256419 0.032678
C4    C     C_R   0.436767 0.896590 0.740582 0.040251
C5    C     C_R   0.653562 0.098077 0.202908 -0.113375
C6    C     C_R   0.311728 0.884022 0.764969 -0.099565
C7    C     C_R   0.668881 0.131958 0.077315 -0.122497
C8    C     C_R   0.273289 0.863802 0.888822 -0.126893
C9    C     C_R   0.568678 0.173943 0.005600 -0.128510
C10   C     C_R   0.359245 0.856732 0.989328 -0.128865
C11   C     C_R   0.523114 0.927498 0.391370 -0.144716
C12   C     C_R   0.498369 0.738491 0.502632 0.559419
C13   C     C_R   0.473720 0.071844 0.610230 -0.159239
C14   C     C_R   0.498347 0.871844 0.505990 0.009689
C15   C     C_R   0.497923 0.127479 0.495249 -0.001250
C16   C     C_R   0.261480 0.502872 0.497976 0.573823
C17   C     C_R   0.738688 0.500772 0.501654 0.559966
C18   C     C_R   0.472063 0.945083 0.616808 -0.029756
C19   C     C_R   0.520950 0.053826 0.384090 -0.031876
C20   C     C_1   0.500200 0.499926 0.072000 0.080186
C21   C     C_1   0.500149 0.499993 0.927997 0.077527
C22   C     C_R   0.204661 0.565862 0.064431 -0.127479
C23   C     C_R   0.872452 0.504268 0.503757 0.026796
C24   C     C_R   0.817865 0.398504 0.920533 -0.129214
C25   C     C_R   0.164488 0.580902 0.190522 0.322085
C26   C     C_R   0.855152 0.402412 0.792569 0.313587
C27   C     C_R   0.107945 0.482184 0.247601 0.012044
C28   C     C_R   0.891964 0.515378 0.747414 0.014441
C29   C     C_R   0.086120 0.372987 0.174028 -0.092808
C30   C     C_R   0.889588 0.621974 0.827593 -0.097411
C31   C     C_R   0.125220 0.357271 0.047297 0.282652
C32   C     C_R   0.847598 0.619360 0.953027 0.288287
C33   C     C_R   0.186231 0.455979 0.993414 -0.162933
C34   C     C_R   0.128056 0.509142 0.493905 0.027351
C35   C     C_R   0.813172 0.505046 0.999310 -0.149523
C36   C     C_R   0.930679 0.494113 0.385945 -0.168179
C37   C     C_R   0.069600 0.523583 0.611448 -0.156002
C38   C     C_3   0.098880 0.775816 0.234142 -0.117381
C39   C     C_3   0.778096 0.210667 0.727008 -0.110851
C40   C     C_3   0.134810 0.235514 0.855013 -0.092820
C41   C     C_3   0.768402 0.731951 0.128863 -0.119679
C42   C     C_1   0.312662 0.134427 0.230211 0.216491
C43   C     C_1   0.652838 0.897422 0.820623 0.196772
C44   C     C_R   0.943257 0.519119 0.618203 0.006988
C45   C     C_R   0.057265 0.496315 0.378442 -0.002570
C46   C     C_R   0.452368 0.178494 0.058018 -0.099010
C47   C     C_R   0.483892 0.865744 0.965592 -0.105189
C48   C     C_R   0.435175 0.140295 0.182192 0.046508
Cu1   Cu    Cu3+1 0.500000 0.500000 0.625300 0.977311
Cu2   Cu    Cu3+1 0.500000 0.500000 0.374700 1.007562
H1    H     H_    0.221210 0.449926 0.897459 0.108337
H2    H     H_    0.795668 0.313085 0.961444 0.115156
H3    H     H_    0.037568 0.298954 0.215845 0.156536
H4    H     H_    0.921312 0.707736 0.792259 0.149417
H5    H     H_    0.877279 0.482328 0.297844 0.119228
H6    H     H_    0.122652 0.533490 0.700280 0.120318
H7    H     H_    0.580039 0.200670 0.908529 0.096781
H8    H     H_    0.329415 0.844612 0.085977 0.145697
H9    H     H_    0.375543 0.209160 0.000901 0.125584
H10   H     H_    0.548924 0.861669 0.044855 0.107639
H11   H     H_    0.009186 0.747498 0.270616 0.133514
H12   H     H_    0.784350 0.496187 0.096518 0.110582
H13   H     H_    0.091411 0.792793 0.129931 0.144875
H14   H     H_    0.123792 0.863965 0.284762 0.161173
H15   H     H_    0.686217 0.254130 0.734621 0.140670
H16   H     H_    0.799973 0.154694 0.810647 0.140541
H17   H     H_    0.775557 0.147549 0.640731 0.154124
H18   H     H_    0.103366 0.146000 0.812209 0.163190
H19   H     H_    0.235553 0.238470 0.845203 0.095719
H20   H     H_    0.090307 0.308505 0.799439 0.161429
H21   H     H_    0.676494 0.697265 0.098066 0.123652
H22   H     H_    0.756721 0.828571 0.164550 0.130625
H23   H     H_    0.731794 0.065173 0.257452 0.111476
H24   H     H_    0.805999 0.679694 0.209780 0.114217
H25   H     H_    0.243798 0.894947 0.689020 0.116433
H26   H     H_    0.758350 0.123735 0.035631 0.131336
H27   H     H_    0.176628 0.856502 0.907421 0.126446
H28   H     H_    0.542120 0.872422 0.304907 0.124437
H29   H     H_    0.453316 0.127246 0.696084 0.126060
H30   H     H_    0.252034 0.639204 0.021368 0.125968
N1    N     N_1   0.500010 0.499990 0.186410 -0.197946
N2    N     N_1   0.499990 0.500010 0.813590 -0.206245
N3    N     N_1   0.214878 0.128453 0.269512 -0.318629
N4    N     N_1   0.756479 0.907077 0.803551 -0.320846
O1    O     O_R   0.499990 0.319650 0.605810 -0.528910
O2    O     O_3   0.870152 0.298022 0.712220 -0.582596
O3    O     O_3   0.101433 0.243573 0.984903 -0.563843
O4    O     O_3   0.850744 0.729211 0.026641 -0.570156
O5    O     O_R   0.500010 0.680350 0.394190 -0.499444
O6    O     O_R   0.499990 0.319640 0.394190 -0.486243
O7    O     O_R   0.500010 0.680360 0.605810 -0.490206
O8    O     O_R   0.319640 0.500010 0.605810 -0.521195
O9    O     O_R   0.680360 0.499990 0.394190 -0.525656
O10   O     O_R   0.319650 0.500010 0.394190 -0.458453
O11   O     O_R   0.680350 0.499990 0.605810 -0.485909
O12   O     O_3   0.190256 0.688181 0.261111 -0.565255

loop_
_geom_bond_atom_site_label_1
_geom_bond_atom_site_label_2
_ccdc_geom_bond_type
C24   H2    S    
C13   H29   S    
C1    O6    A    
C46   H9    S    
C27   C29   A    
C34   C37   A    
C14   C18   A    
C12   O7    A    
Cu1   Cu2   S    
C6    H25   S    
C15   C19   A    
C30   H4    S    
C11   C19   A    
C17   C23   S    
C40   H20   S    
C13   C18   A    
C40   O3    S    
C10   H8    S    
C24   C26   A    
C11   C14   A    
C32   O4    S    
C3    C48   A    
C22   C33   A    
C16   C34   S    
C47   H10   S    
C37   H6    S    
Cu2   O6    S    
C22   C25   A    
C31   C33   A    
C3    C19   S    
C17   O11   A    
C41   H21   S    
C38   H11   S    
C4    C18   S    
C27   C45   S    
C41   H24   S    
C9    C46   A    
C20   N1    T    
C43   N4    T    
C39   H15   S    
Cu1   O7    S    
C38   H14   S    
C1    O1    A    
C46   C48   A    
C24   C35   A    
C31   O3    S    
C40   H19   S    
C32   C35   A    
Cu1   O1    S    
C12   O5    A    
C4    C6    A    
C16   O10   A    
C5    C7    A    
Cu2   O10   S    
C6    C8    A    
C28   C44   S    
C23   C44   A    
Cu1   N2    S    
C2    C4    A    
C11   H28   S    
Cu2   O5    S    
C2    C43   S    
C26   O2    S    
C36   C45   A    
C34   C45   A    
C42   C48   S    
Cu1   O11   S    
C41   H22   S    
C1    C15   S    
C12   C14   S    
C16   O8    A    
C13   C15   A    
C8    H27   S    
C39   H16   S    
C17   O9    A    
Cu1   O8    S    
C38   H13   S    
C7    C9    A    
C41   O4    S    
C39   H17   S    
C42   N3    T    
C3    C5    A    
Cu2   O9    S    
C7    H26   S    
C2    C47   A    
C33   H1    S    
C26   C28   A    
C37   C44   A    
C28   C30   A    
C22   H30   S    
C29   C31   A    
C36   H5    S    
C30   C32   A    
C21   N2    T    
C29   H3    S    
C35   H12   S    
C9    H7    S    
C5    H23   S    
C20   C21   S    
C25   O12   S    
C8    C10   A    
C23   C36   A    
C40   H18   S    
C38   O12   S    
C10   C47   A    
C39   O2    S    
Cu2   N1    S    
C25   C27   A    
