data_mof_unit_30608.cif
_audit_creation_date              2012-12-11T17:19:12-0500
_audit_creation_method            fapswitch 2.2
_symmetry_space_group_name_H-M    P1
_symmetry_Int_Tables_number       1
_space_group_crystal_system       triclinic
_cell_length_a                    14.942429
_cell_length_b                    7.271739
_cell_length_c                    13.362619
_cell_angle_alpha                 89.965886
_cell_angle_beta                  100.038032
_cell_angle_gamma                 90.063115
_cell_volume                      1429.72100796

loop_
_atom_site_label
_atom_site_type_symbol
_atom_type_description
_atom_site_fract_x
_atom_site_fract_y
_atom_site_fract_z
_atom_type_partial_charge
O1    O     O_R   0.648180 0.355050 0.151550 -0.533430
O2    O     O_R   0.351820 0.644950 0.848450 -0.537924
O3    O     O_R   0.851820 0.855050 0.348450 -0.538672
O4    O     O_R   0.148180 0.144950 0.651550 -0.537550
O5    O     O_R   0.835240 0.681980 0.154280 -0.542626
O6    O     O_R   0.164760 0.318020 0.845720 -0.524970
O7    O     O_R   0.664760 0.181980 0.345720 -0.541342
O8    O     O_R   0.335240 0.818020 0.654280 -0.524814
H1    H     H_    0.649593 0.947313 0.843144 0.129365
H2    H     H_    0.354750 0.893905 0.155845 0.126757
H3    H     H_    0.852172 0.460868 0.656799 0.124495
H4    H     H_    0.144904 0.392872 0.344639 0.126785
C1    C     C_R   0.859955 0.515253 0.128712 0.775945
C2    C     C_R   0.142110 0.483934 0.873491 0.763174
C3    C     C_R   0.640011 0.015144 0.371272 0.772190
C4    C     C_R   0.358292 0.983968 0.626961 0.763940
O9    O     O_R   0.647870 0.684600 0.139630 -0.540395
O10   O     O_R   0.352130 0.315400 0.860370 -0.536598
O11   O     O_R   0.852130 0.184600 0.360370 -0.540969
O12   O     O_R   0.147870 0.815400 0.639630 -0.536370
O13   O     O_R   0.663110 0.857440 0.333700 -0.536370
O14   O     O_R   0.336890 0.142560 0.666300 -0.543337
O15   O     O_R   0.836890 0.357440 0.166300 -0.527505
O16   O     O_R   0.163110 0.642560 0.833700 -0.543267
C5    C     C_R   0.613980 0.516437 0.114568 0.751031
C6    C     C_R   0.385646 0.484105 0.885931 0.742084
C7    C     C_R   0.885668 0.016292 0.385932 0.756788
C8    C     C_R   0.114251 0.983987 0.614201 0.742821
H5    H     H_    0.493872 0.968172 0.762076 0.117076
H6    H     H_    0.507454 0.951289 0.237115 0.120233
H7    H     H_    0.007047 0.475283 0.738418 0.115447
H8    H     H_    0.992323 0.450808 0.263132 0.119738
O17   O     O_3   0.755220 0.522230 0.313690 -0.393124
O18   O     O_3   0.244780 0.477770 0.686310 -0.382079
O19   O     O_3   0.744780 0.022230 0.186310 -0.380848
O20   O     O_3   0.255220 0.977770 0.813690 -0.382115
V1    V     V_3+5 0.749030 0.796100 0.238190 1.395081
V2    V     V_3+5 0.250970 0.203900 0.761810 1.415616
V3    V     V_3+5 0.750970 0.296100 0.261810 1.405394
V4    V     V_3+5 0.249030 0.703900 0.738190 1.415535
C9    C     C_1   0.966368 0.005946 0.466475 -0.193623
C10   C     C_1   0.033485 0.995089 0.533730 -0.207737
C11   C     C_1   0.533119 0.506457 0.034150 -0.202653
C12   C     C_1   0.466160 0.495505 0.966701 -0.200918
H9    H     H_    0.229715 0.910766 0.249199 0.130442
H10   H     H_    0.773003 0.972981 0.745567 0.139729
H11   H     H_    0.270049 0.408626 0.251403 0.130584
H12   H     H_    0.728142 0.491338 0.752915 0.127926
C13   C     C_R   0.544526 0.978262 0.713563 -0.142386
C14   C     C_R   0.456357 0.951268 0.285255 -0.149320
C15   C     C_R   0.956353 0.485966 0.786829 -0.140254
C16   C     C_R   0.043473 0.450368 0.215062 -0.149260
C17   C     C_R   0.634010 0.968225 0.761796 -0.213733
C18   C     C_R   0.368494 0.920088 0.236787 -0.211610
C19   C     C_R   0.867126 0.481318 0.738093 -0.200329
C20   C     C_R   0.131257 0.418806 0.263653 -0.212093
C21   C     C_R   0.703324 0.983018 0.706290 -0.155430
C22   C     C_R   0.298149 0.926708 0.290839 -0.144274
C23   C     C_R   0.797570 0.495491 0.793260 -0.149184
C24   C     C_R   0.201683 0.424919 0.209680 -0.143867
C25   C     C_R   0.684304 0.992391 0.599970 0.270730
C26   C     C_R   0.315042 0.942764 0.397343 0.268662
C27   C     C_R   0.815916 0.497080 0.899872 0.268874
C28   C     C_R   0.184942 0.441513 0.103190 0.268939
C29   C     C_R   0.592498 0.998637 0.547129 0.035339
C30   C     C_R   0.405979 0.970912 0.450756 0.025084
C31   C     C_R   0.907735 0.501239 0.953071 0.031411
C32   C     C_R   0.094123 0.470111 0.049699 0.024990
C33   C     C_R   0.521353 0.992329 0.606345 0.017586
C34   C     C_R   0.477532 0.977554 0.391799 0.017648
C35   C     C_R   0.979135 0.495731 0.894109 0.019353
C36   C     C_R   0.022460 0.476922 0.108511 0.018525
C37   C     C_R   0.569561 0.001898 0.438613 -0.158799
C38   C     C_R   0.428502 0.988151 0.559236 -0.162636
C39   C     C_R   0.930506 0.502250 0.061574 -0.161998
C40   C     C_R   0.071863 0.488334 0.941278 -0.162138
N1    N     N_2   0.758056 0.962893 0.548352 -0.545162
H13   H     H_    0.809815 0.056983 0.568242 0.241826
C41   C     C_3   0.789877 0.774058 0.554005 -0.531624
H14   H     H_    0.782848 0.714833 0.477333 0.243901
H15   H     H_    0.748732 0.684423 0.595920 0.186372
H16   H     H_    0.862391 0.768341 0.591095 0.182597
N2    N     N_2   0.240634 0.915473 0.448920 -0.536742
H17   H     H_    0.196877 0.026094 0.440459 0.233874
C42   C     C_3   0.193619 0.742364 0.424309 -0.502041
H18   H     H_    0.144006 0.714626 0.474224 0.206681
H19   H     H_    0.243058 0.626882 0.432466 0.197760
H20   H     H_    0.153595 0.747519 0.346411 0.180540
N3    N     N_2   0.741716 0.466768 0.951121 -0.540281
H21   H     H_    0.694588 0.571471 0.938739 0.240501
C43   C     C_3   0.700235 0.287780 0.929471 -0.523861
H22   H     H_    0.653548 0.254566 0.982110 0.209698
H23   H     H_    0.753019 0.178471 0.937233 0.200893
H24   H     H_    0.659362 0.287705 0.851877 0.187953
N4    N     N_2   0.259416 0.415225 0.051649 -0.537415
H25   H     H_    0.302889 0.526481 0.059861 0.234016
C44   C     C_3   0.306812 0.242764 0.076350 -0.503921
H26   H     H_    0.355998 0.215128 0.025970 0.206764
H27   H     H_    0.257549 0.126804 0.068865 0.197867
H28   H     H_    0.347319 0.248858 0.153991 0.181029

loop_
_geom_bond_atom_site_label_1
_geom_bond_atom_site_label_2
_ccdc_geom_bond_type
C22   C26   A    
C26   N2    S    
C19   C23   A    
C9    C10   T    
N4    H25   S    
O10   C6    A    
C5    C11   S    
C44   H26   S    
C6    C12   S    
H5    C13   S    
N1    H13   S    
C14   C18   A    
C4    C38   S    
C28   C32   A    
O19   V1    S    
O5    V1    S    
C35   C40   A    
O12   V4    S    
O15   V3    S    
C31   C35   A    
C43   H23   S    
C30   C38   A    
C29   C37   A    
C1    O15   A    
C2    O16   A    
H8    C16   S    
O4    C8    A    
H11   C24   S    
O17   V3    S    
C1    C39   S    
C25   N1    S    
O6    V2    S    
N3    C43   S    
O11   C7    A    
O5    C1    A    
O7    C3    A    
H6    C14   S    
O8    C4    A    
C13   C33   A    
O1    C5    A    
H1    C17   S    
C15   C35   A    
C36   C39   A    
C44   H27   S    
N1    C41   S    
C27   C31   A    
H9    C22   S    
C26   C30   A    
C42   H19   S    
C43   H22   S    
C41   H15   S    
C17   C21   A    
O12   C8    A    
C42   H18   S    
C20   C24   A    
C2    C40   S    
C11   C12   T    
C16   C36   A    
C25   C29   A    
O6    C2    A    
C7    C9    S    
N2    H17   S    
C32   C36   A    
C27   N3    S    
C34   C37   A    
C33   C38   A    
O2    C6    A    
O9    V1    S    
H4    C20   S    
O11   V3    S    
N2    C42   S    
O4    V2    S    
H10   C21   S    
O18   V4    S    
C31   C39   A    
O20   V2    S    
C44   H28   S    
H3    C19   S    
H12   C23   S    
C18   C22   A    
C42   H20   S    
C29   C33   A    
C4    O14   A    
C3    C37   S    
C28   N4    S    
H7    C15   S    
C41   H16   S    
N4    C44   S    
C21   C25   A    
C32   C40   A    
C23   C27   A    
C24   C28   A    
O9    C5    A    
O3    C7    A    
C14   C34   A    
C43   H24   S    
C30   C34   A    
C13   C17   A    
C8    C10   S    
O16   V4    S    
C15   C19   A    
O10   V2    S    
H2    C18   S    
O1    V3    S    
C41   H14   S    
O2    V4    S    
C3    O13   A    
O13   V1    S    
O3    V1    S    
O7    V3    S    
O8    V4    S    
N3    H21   S    
C16   C20   A    
O14   V2    S    
