data_mof_unit_21366.cif
_audit_creation_date              2012-10-26T20:43:06-0400
_audit_creation_method            fapswitch 2.2
_symmetry_space_group_name_H-M    P1
_symmetry_Int_Tables_number       1
_space_group_crystal_system       triclinic
_cell_length_a                    10.883886
_cell_length_b                    9.628842
_cell_length_c                    14.938081
_cell_angle_alpha                 89.369629
_cell_angle_beta                  90.1146
_cell_angle_gamma                 90.440483
_cell_volume                      1565.35533706

loop_
_atom_site_label
_atom_site_type_symbol
_atom_type_description
_atom_site_fract_x
_atom_site_fract_y
_atom_site_fract_z
_atom_type_partial_charge
C1    C     C_R   0.262446 0.499380 0.498616 0.553238
C2    C     C_R   0.128296 0.498062 0.497773 -0.078251
C3    C     C_R   0.522300 0.073196 0.423387 0.324851
C4    C     C_R   0.451318 0.923234 0.569598 0.305851
C5    C     C_R   0.472664 0.070264 0.576248 0.320722
C6    C     C_R   0.543861 0.927103 0.428440 0.323371
C7    C     C_R   0.499655 0.501022 0.329240 0.524611
C8    C     C_R   0.502359 0.499935 0.670748 0.526522
C9    C     C_R   0.614099 0.489874 0.813450 -0.152092
C10   C     C_R   0.392450 0.533102 0.186328 -0.147425
C11   C     C_R   0.503238 0.501976 0.767068 0.003179
C12   C     C_R   0.737534 0.500465 0.502676 0.555817
C13   C     C_R   0.500773 0.504551 0.232922 0.003294
C14   C     C_R   0.393188 0.522824 0.812134 -0.109669
C15   C     C_R   0.610491 0.480221 0.188021 -0.111769
C16   C     C_R   0.391669 0.527291 0.905503 0.020584
C17   C     C_R   0.613064 0.482774 0.094563 0.019805
C18   C     C_R   0.502703 0.507128 0.953112 -0.002991
C19   C     C_R   0.502516 0.507006 0.046905 -0.003538
C20   C     C_R   0.614134 0.487919 0.906776 -0.030796
C21   C     C_R   0.391798 0.531694 0.093114 -0.033088
C22   C     C_R   0.281392 0.550157 0.952036 0.255109
C23   C     C_R   0.282451 0.554245 0.045586 -0.117446
C24   C     C_R   0.723359 0.460527 0.047872 0.257375
C25   C     C_3   0.106320 0.454493 0.895067 -0.016775
C26   C     C_3   0.023158 0.469598 0.813556 -0.384032
C27   C     C_3   0.861456 0.301274 0.097192 -0.021166
C28   C     C_3   0.975867 0.280770 0.154456 -0.382327
C29   C     C_3   0.119728 0.170890 0.451531 -0.079132
C30   C     C_3   0.884599 0.828117 0.557948 -0.087225
C31   C     C_3   0.866303 0.239023 0.636847 -0.098282
C32   C     C_3   0.127223 0.752463 0.361512 -0.094985
C33   C     C_3   0.410561 0.081225 0.293904 -0.000812
C34   C     C_R   0.723359 0.466023 0.954272 -0.117486
C35   C     C_3   0.369144 0.182166 0.221310 -0.376535
C36   C     C_3   0.266391 0.895508 0.640451 -0.008248
C37   C     C_3   0.193228 0.795088 0.699246 -0.352727
C38   C     C_3   0.525919 0.059483 0.726661 0.001194
C39   C     C_3   0.574659 0.157787 0.796943 -0.380770
C40   C     C_3   0.707245 0.903974 0.330392 0.026755
C41   C     C_3   0.711101 0.941528 0.231061 -0.394947
C42   C     C_R   0.062787 0.373569 0.515332 0.207301
C43   C     C_R   0.937601 0.626011 0.491217 0.209157
C44   C     C_R   0.935289 0.376392 0.523023 0.208201
C45   C     C_R   0.064387 0.622387 0.480614 0.206006
C46   C     C_R   0.871712 0.501268 0.506274 -0.068705
Cu1   Cu    Cu3+1 0.500000 0.640660 0.500000 1.047721
Cu2   Cu    Cu3+1 0.500000 0.359340 0.500000 1.060226
H1    H     H_    0.699223 0.477742 0.776808 0.078848
H2    H     H_    0.963615 0.376051 0.807651 0.070664
H3    H     H_    0.964371 0.562701 0.820023 0.159271
H4    H     H_    0.880443 0.261304 0.028925 0.116766
H5    H     H_    0.784990 0.239683 0.128051 0.128916
H6    H     H_    0.959257 0.318533 0.223390 0.152915
H7    H     H_    0.999110 0.168721 0.157948 0.090025
H8    H     H_    0.054697 0.339074 0.124893 0.144456
H9    H     H_    0.177353 0.077582 0.461460 0.123987
H10   H     H_    0.158113 0.230304 0.393453 0.094767
H11   H     H_    0.024954 0.134395 0.436121 0.155568
H12   H     H_    0.308368 0.552010 0.222849 0.081682
H13   H     H_    0.854208 0.766111 0.617444 0.094314
H14   H     H_    0.822003 0.918078 0.551414 0.138732
H15   H     H_    0.978867 0.869882 0.568334 0.150808
H16   H     H_    0.812025 0.144056 0.652830 0.113934
H17   H     H_    0.818585 0.328477 0.667564 0.092996
H18   H     H_    0.959093 0.225863 0.666941 0.139820
H19   H     H_    0.173371 0.661185 0.331800 0.099456
H20   H     H_    0.180508 0.846427 0.341589 0.109883
H21   H     H_    0.032835 0.763496 0.333696 0.135950
H22   H     H_    0.330581 0.061912 0.339080 0.087921
H23   H     H_    0.309274 0.534601 0.773839 0.141915
H24   H     H_    0.434474 0.982274 0.260889 0.168740
H25   H     H_    0.448079 0.213304 0.178373 0.164711
H26   H     H_    0.297817 0.132256 0.178933 0.083282
H27   H     H_    0.328233 0.274837 0.252577 0.151725
H28   H     H_    0.222721 0.898919 0.573133 0.176668
H29   H     H_    0.261215 0.000211 0.670721 0.162244
H30   H     H_    0.235868 0.787845 0.766717 0.183471
H31   H     H_    0.097557 0.832287 0.706570 0.082716
H32   H     H_    0.191182 0.690591 0.668568 0.163014
H33   H     H_    0.606139 0.000609 0.700686 0.107044
H34   H     H_    0.693249 0.459975 0.226406 0.151978
H35   H     H_    0.461808 0.986569 0.761221 0.174864
H36   H     H_    0.498260 0.219528 0.824744 0.171482
H37   H     H_    0.618055 0.097772 0.852315 0.088790
H38   H     H_    0.645264 0.226698 0.766414 0.146035
H39   H     H_    0.770693 0.815827 0.340511 0.200426
H40   H     H_    0.743633 0.993103 0.369943 0.135876
H41   H     H_    0.655358 0.035150 0.216912 0.173411
H42   H     H_    0.807410 0.963895 0.210711 0.088786
H43   H     H_    0.675248 0.853608 0.190833 0.166424
H44   H     H_    0.197623 0.574517 0.080867 0.124563
H45   H     H_    0.808762 0.451678 0.918968 0.110389
H46   H     H_    0.048669 0.435421 0.955381 0.159098
H47   H     H_    0.165604 0.362007 0.884114 0.118404
H48   H     H_    0.079311 0.480464 0.751843 0.142671
N1    N     N_R   0.500000 0.852070 0.500000 -0.255734
N2    N     N_R   0.500000 0.147930 0.500000 -0.252873
O1    O     O_R   0.319640 0.618740 0.499990 -0.450444
O2    O     O_3   0.833015 0.444028 0.093603 -0.570124
O3    O     O_3   0.123031 0.249402 0.530795 -0.534074
O4    O     O_3   0.877817 0.750881 0.478392 -0.557845
O5    O     O_3   0.873290 0.253887 0.543021 -0.537285
O6    O     O_3   0.125344 0.743356 0.455761 -0.554191
O7    O     O_3   0.514410 0.135781 0.339946 -0.526105
O8    O     O_3   0.389331 0.849978 0.635851 -0.538217
O9    O     O_3   0.462186 0.134630 0.658593 -0.523565
O10   O     O_3   0.587667 0.857935 0.354418 -0.531094
O11   O     O_R   0.680360 0.381260 0.500010 -0.458869
O12   O     O_R   0.680360 0.618740 0.500010 -0.463218
O13   O     O_R   0.319640 0.381260 0.499990 -0.462054
O14   O     O_R   0.499970 0.618800 0.370260 -0.454607
O15   O     O_R   0.500030 0.381200 0.629740 -0.446203
O16   O     O_R   0.500030 0.618800 0.629740 -0.463442
O17   O     O_R   0.499970 0.381200 0.370260 -0.456688
O18   O     O_3   0.174205 0.578811 0.905864 -0.573438

loop_
_geom_bond_atom_site_label_1
_geom_bond_atom_site_label_2
_ccdc_geom_bond_type
Cu1   O16   S    
C41   H41   S    
C35   H26   S    
C38   H35   S    
C31   H18   S    
C14   H23   S    
Cu2   O17   S    
C34   H45   S    
C3    C6    A    
C1    O1    A    
C12   O12   A    
C28   H8    S    
C3    O7    S    
C37   H31   S    
C35   H27   S    
C40   H39   S    
C36   C37   S    
C19   C21   A    
C39   H36   S    
C18   C19   A    
C36   H29   S    
C26   H2    S    
C30   H14   S    
C38   C39   S    
C11   C14   A    
Cu1   O14   S    
Cu1   O1    S    
C7    O14   A    
C15   C17   A    
C1    C2    S    
C7    O17   A    
C38   O9    S    
C36   H28   S    
C33   H24   S    
C17   C19   A    
C28   H7    S    
C29   H11   S    
C32   O6    S    
C8    O16   A    
C32   H20   S    
C20   C34   A    
C22   O18   S    
Cu2   O11   S    
C25   H46   S    
C10   C21   A    
C30   H15   S    
C42   C44   A    
C12   O11   A    
C44   O5    S    
C44   C46   A    
C15   H34   S    
C22   C23   A    
C2    C45   A    
C26   H48   S    
C37   H32   S    
C27   O2    S    
C17   C24   A    
C36   O8    S    
C6    N1    A    
C9    H1    S    
C12   C46   S    
C25   O18   S    
C28   H6    S    
C25   C26   S    
C4    O8    S    
C24   C34   A    
C31   O5    S    
C10   H12   S    
C45   O6    S    
C43   C45   A    
C9    C20   A    
Cu1   Cu2   S    
C30   O4    S    
C29   O3    S    
C5    N2    A    
C9    C11   A    
C8    O15   A    
C32   H19   S    
C33   H22   S    
C40   C41   S    
C41   H43   S    
C29   H9    S    
C25   H47   S    
C13   C15   A    
C38   H33   S    
C14   C16   A    
C39   H37   S    
C42   O3    S    
C27   H4    S    
C5    O9    S    
C31   H17   S    
C35   H25   S    
C16   C22   A    
C24   O2    S    
C31   H16   S    
C4    C5    A    
C10   C13   A    
C27   H5    S    
C32   H21   S    
Cu1   O12   S    
Cu2   N2    S    
C37   H30   S    
Cu1   N1    S    
C33   O7    S    
C40   O10   S    
C40   H40   S    
C21   C23   A    
C43   O4    S    
C26   H3    S    
C1    O13   A    
C3    N2    A    
C2    C42   A    
C8    C11   S    
C33   C35   S    
C41   H42   S    
C18   C20   A    
C43   C46   A    
C7    C13   S    
Cu2   O13   S    
C29   H10   S    
C16   C18   A    
C30   H13   S    
C27   C28   S    
C6    O10   S    
C23   H44   S    
C39   H38   S    
C4    N1    A    
Cu2   O15   S    
