data_mof_unit_34044.cif
_audit_creation_date              2012-10-26T17:11:23-0400
_audit_creation_method            fapswitch 2.2
_symmetry_space_group_name_H-M    P1
_symmetry_Int_Tables_number       1
_space_group_crystal_system       triclinic
_cell_length_a                    27.966755
_cell_length_b                    18.667244
_cell_length_c                    16.857528
_cell_angle_alpha                 89.775833
_cell_angle_beta                  62.419377
_cell_angle_gamma                 89.951729
_cell_volume                      7800.5071785

loop_
_atom_site_label
_atom_site_type_symbol
_atom_type_description
_atom_site_fract_x
_atom_site_fract_y
_atom_site_fract_z
_atom_type_partial_charge
C1    C     C_R   0.295015 0.728349 0.329707 0.558761
C2    C     C_R   0.589899 0.000112 0.535373 0.012709
C3    C     C_R   0.689880 0.715708 0.903687 -0.008991
C4    C     C_R   0.926331 0.903188 0.066730 0.554469
C5    C     C_R   0.074967 0.094707 0.931777 0.555189
C6    C     C_R   0.073681 0.903307 0.933267 0.552617
C7    C     C_R   0.926490 0.096992 0.066597 0.555512
C8    C     C_R   0.429328 0.399679 0.064632 0.556034
C9    C     C_R   0.573091 0.597594 0.933737 0.554630
C10   C     C_R   0.573989 0.403601 0.933063 0.550526
C11   C     C_R   0.426136 0.596461 0.066813 0.558185
C12   C     C_R   0.044173 0.629843 0.512945 0.007410
C13   C     C_R   0.913413 0.500291 0.450987 0.014436
C14   C     C_R   0.963360 0.370621 0.457165 -0.002861
C15   C     C_R   0.961332 0.630150 0.462657 0.009115
C16   C     C_R   0.046034 0.370367 0.507823 0.007239
C17   C     C_R   0.542463 0.129847 0.521204 0.006389
C18   C     C_R   0.457815 0.870351 0.476962 -0.001282
C19   C     C_R   0.459207 0.129701 0.471898 0.002896
C20   C     C_R   0.540471 0.870488 0.527640 -0.001534
C21   C     C_R   0.022513 0.694814 0.502090 -0.135072
C22   C     C_R   0.985755 0.305708 0.466088 -0.145269
C23   C     C_R   0.982551 0.694997 0.474401 -0.133855
C24   C     C_R   0.091773 0.500057 0.526457 0.013173
C25   C     C_R   0.025581 0.305522 0.494070 -0.138302
C26   C     C_R   0.521289 0.194740 0.508932 -0.138343
C27   C     C_R   0.478735 0.805457 0.489772 -0.137918
C28   C     C_R   0.481163 0.194637 0.481600 -0.140631
C29   C     C_R   0.518518 0.805555 0.517871 -0.139548
C30   C     C_R   0.981961 0.565074 0.475139 0.019977
C31   C     C_R   0.026079 0.435433 0.494201 0.019531
C32   C     C_R   0.025006 0.564981 0.497130 0.019841
C33   C     C_R   0.983102 0.435517 0.472053 0.016263
C34   C     C_R   0.478786 0.064831 0.487267 0.018657
C35   C     C_R   0.582553 0.871090 0.550329 -0.122000
C36   C     C_R   0.521065 0.935373 0.511910 0.015241
C37   C     C_R   0.522137 0.064866 0.508479 0.019060
C38   C     C_R   0.477946 0.935334 0.490160 0.014053
C39   C     C_R   0.455970 0.000067 0.479221 -0.008705
C40   C     C_R   0.544040 0.000125 0.519599 -0.007475
C41   C     C_R   0.959974 0.500304 0.464630 -0.008005
C42   C     C_R   0.047398 0.500154 0.506648 -0.008210
C43   C     C_R   0.387363 0.934404 0.456323 -0.022775
C44   C     C_R   0.612716 0.065753 0.542538 -0.020501
C45   C     C_R   0.612270 0.934457 0.544090 -0.022678
C46   C     C_R   0.417440 0.129017 0.448443 -0.128412
C47   C     C_R   0.387785 0.065635 0.454479 -0.023643
C48   C     C_R   0.890172 0.434534 0.444972 -0.020896
C49   C     C_R   0.113286 0.565710 0.537424 -0.015762
C50   C     C_R   0.113932 0.434274 0.535496 -0.017950
C51   C     C_R   0.890052 0.566057 0.445315 -0.016881
C52   C     C_R   0.337788 0.934490 0.450278 -0.026049
C53   C     C_R   0.661999 0.065571 0.549684 -0.025607
C54   C     C_R   0.661940 0.934461 0.549764 -0.028063
C55   C     C_R   0.338025 0.065643 0.449003 -0.026265
C56   C     C_R   0.839301 0.434467 0.443621 -0.019160
C57   C     C_R   0.416516 0.870910 0.452496 -0.122611
C58   C     C_R   0.161111 0.565561 0.549027 -0.025586
C59   C     C_R   0.161704 0.434364 0.547237 -0.014985
C60   C     C_R   0.839659 0.566076 0.442469 -0.028257
C61   C     C_R   0.317634 0.999983 0.434509 -0.035478
C62   C     C_R   0.681722 0.999909 0.565897 -0.034481
C63   C     C_R   0.820050 0.500273 0.426136 -0.040254
C64   C     C_R   0.178820 0.499786 0.568819 -0.039988
C65   C     C_3   0.288807 0.999095 0.375812 -0.211863
C66   C     C_3   0.226282 0.001013 0.425812 -0.238047
C67   C     C_3   0.200889 0.951979 0.383025 -0.456880
C68   C     C_R   0.583748 0.129303 0.545727 -0.118016
C69   C     C_3   0.707168 0.999027 0.629414 -0.214470
C70   C     C_3   0.769538 0.000916 0.584936 -0.243480
C71   C     C_3   0.791624 0.953745 0.634848 -0.458059
C72   C     C_3   0.781700 0.501101 0.384360 -0.224097
C73   C     C_3   0.800213 0.453807 0.300650 -0.296525
C74   C     C_3   0.756818 0.452000 0.269652 -0.448517
C75   C     C_3   0.209794 0.499790 0.623630 -0.229317
C76   C     C_3   0.181420 0.454580 0.709745 -0.300341
C77   C     C_3   0.211666 0.457923 0.765345 -0.459655
C78   C     C_3   0.152861 0.658426 0.026729 -0.250708
C79   C     C_R   0.085817 0.370697 0.535711 -0.118503
C80   C     C_3   0.099264 0.686478 0.101667 -0.296027
C81   C     C_3   0.054500 0.630718 0.128492 -0.453477
C82   C     C_3   0.852745 0.325091 0.953744 -0.251139
C83   C     C_3   0.842504 0.387794 0.018021 -0.299279
C84   C     C_3   0.892002 0.435960 0.987189 -0.463226
C85   C     C_3   0.842627 0.657638 0.976519 -0.250442
C86   C     C_3   0.895509 0.682455 0.896884 -0.295101
C87   C     C_3   0.940649 0.628261 0.875487 -0.454623
C88   C     C_3   0.141089 0.247566 0.105214 -0.252365
C89   C     C_3   0.124702 0.322853 0.090005 -0.294988
C90   C     C_R   0.919092 0.629695 0.440400 -0.119682
C91   C     C_3   0.067149 0.340757 0.159552 -0.453614
C92   C     C_3   0.652216 0.166326 0.037144 -0.249746
C93   C     C_3   0.599678 0.197309 0.111743 -0.298349
C94   C     C_3   0.554913 0.141110 0.147756 -0.453727
C95   C     C_3   0.339667 0.833503 0.982101 -0.248410
C96   C     C_3   0.319820 0.893835 0.051618 -0.299322
C97   C     C_3   0.366573 0.939891 0.044977 -0.457392
C98   C     C_3   0.338509 0.349874 0.896542 -0.256216
C99   C     C_3   0.318506 0.419996 0.948987 -0.290067
C100  C     C_3   0.352428 0.483502 0.894522 -0.441078
C101  C     C_R   0.919955 0.371130 0.437658 -0.125491
C102  C     C_3   0.662879 0.844065 0.013729 -0.249743
C103  C     C_3   0.688535 0.905666 0.946538 -0.296415
C104  C     C_3   0.646335 0.960403 0.952979 -0.463448
C105  C     C_3   0.281505 0.867244 0.876098 -0.251506
C106  C     C_3   0.325899 0.845712 0.783129 -0.295346
C107  C     C_3   0.345997 0.910409 0.720707 -0.445536
C108  C     C_3   0.707114 0.147685 0.151462 -0.243512
C109  C     C_3   0.736720 0.075324 0.130541 -0.291508
C110  C     C_3   0.740211 0.045670 0.212289 -0.438707
C111  C     C_3   0.714424 0.864356 0.132470 -0.251550
C112  C     C_R   0.704281 0.270213 0.670709 0.557024
C113  C     C_R   0.084571 0.629179 0.539582 -0.118640
C114  C     C_3   0.667354 0.836948 0.219675 -0.297705
C115  C     C_3   0.645678 0.895518 0.290278 -0.441649
C116  C     C_3   0.314800 0.226949 0.801802 -0.256585
C117  C     C_3   0.311657 0.145945 0.788908 -0.296978
C118  C     C_3   0.349698 0.124307 0.692699 -0.440730
C119  C     C_3   0.791778 0.354979 0.852002 -0.254882
C120  C     C_3   0.835530 0.324060 0.763698 -0.303668
C121  C     C_3   0.865692 0.383583 0.696994 -0.440564
C122  C     C_3   0.208048 0.629289 0.138412 -0.248330
C123  C     C_3   0.235748 0.557149 0.102449 -0.304947
C124  C     C_R   0.218522 0.761982 0.954464 0.009721
C125  C     C_3   0.208821 0.497161 0.170705 -0.452106
C126  C     C_3   0.226995 0.163049 0.141994 -0.260553
C127  C     C_3   0.215463 0.092741 0.106637 -0.293678
C128  C     C_3   0.210319 0.030034 0.168092 -0.468496
C129  C     C_3   0.781624 0.626707 0.874022 -0.243091
C130  C     C_3   0.745442 0.560915 0.916834 -0.290358
C131  C     C_3   0.731790 0.522374 0.850161 -0.441246
C132  C     C_R   0.779466 0.234930 0.047254 0.009968
C133  C     C_R   0.779580 0.763425 0.047413 0.008750
C134  C     C_R   0.222715 0.235096 0.947043 0.023575
C135  C     C_R   0.721198 0.263388 0.951228 0.010294
C136  C     C_R   0.275288 0.728354 0.051190 0.009425
C137  C     C_R   0.285674 0.264246 0.036444 0.022148
C138  C     C_R   0.721429 0.733141 0.951882 0.008387
C139  C     C_R   0.264008 0.803893 0.941498 0.006866
C140  C     C_R   0.704688 0.728891 0.670433 0.558323
C141  C     C_R   0.729778 0.198858 0.071080 0.003661
C142  C     C_R   0.734230 0.806041 0.061169 0.008240
C143  C     C_R   0.278818 0.250361 0.898305 -0.000979
C144  C     C_R   0.770882 0.299389 0.927312 0.006976
C145  C     C_R   0.228706 0.688021 0.066471 0.003750
C146  C     C_R   0.236435 0.224980 0.077308 -0.002509
C147  C     C_R   0.766088 0.689510 0.939284 0.005284
C148  C     C_R   0.292564 0.786919 0.990300 0.005688
C149  C     C_R   0.701441 0.211570 0.020853 0.005383
C150  C     C_R   0.706299 0.792478 0.010554 0.005656
C151  C     C_R   0.293461 0.275504 0.330570 0.559392
C152  C     C_R   0.303144 0.285288 0.944764 0.003328
C153  C     C_R   0.800333 0.284825 0.975378 0.003837
C154  C     C_R   0.200815 0.704075 0.016269 0.004507
C155  C     C_R   0.200264 0.233429 0.041565 0.008148
C156  C     C_R   0.795398 0.704819 0.987263 0.005569
C157  C     C_R   0.144190 0.828051 0.943938 -0.136266
C158  C     C_R   0.855830 0.172207 0.056177 -0.133466
C159  C     C_R   0.855440 0.828159 0.056031 -0.133403
C160  C     C_R   0.150730 0.162422 0.934850 -0.130244
C161  C     C_R   0.645679 0.329311 0.942778 -0.138383
C162  C     C_R   0.795686 0.229674 0.329294 0.547962
C163  C     C_R   0.352608 0.666789 0.058482 -0.139466
C164  C     C_R   0.367087 0.311417 0.050884 -0.125642
C165  C     C_R   0.643308 0.673450 0.944916 -0.129790
C166  C     C_R   0.117678 0.851301 0.895225 -0.018851
C167  C     C_R   0.882666 0.149383 0.104551 -0.017597
C168  C     C_R   0.882259 0.851025 0.104554 -0.019640
C169  C     C_R   0.119853 0.145196 0.891685 -0.016888
C170  C     C_R   0.618311 0.351793 0.894902 -0.022106
C171  C     C_R   0.381024 0.646819 0.105502 -0.017636
C172  C     C_R   0.387834 0.344381 0.102682 -0.022435
C173  C     C_R   0.204424 0.770544 0.670678 0.556006
C174  C     C_R   0.616745 0.650358 0.896155 -0.022415
C175  C     C_R   0.136037 0.828833 0.807152 -0.142236
C176  C     C_R   0.864527 0.172204 0.192457 -0.147236
C177  C     C_R   0.864054 0.828210 0.192505 -0.145866
C178  C     C_R   0.134745 0.172442 0.806510 -0.141845
C179  C     C_R   0.636119 0.328701 0.807216 -0.142301
C180  C     C_R   0.363370 0.670501 0.192906 -0.140814
C181  C     C_R   0.364749 0.329950 0.193740 -0.138505
C182  C     C_R   0.635464 0.672499 0.807798 -0.149493
C183  C     C_R   0.180875 0.784276 0.766900 -0.018787
C184  C     C_R   0.203023 0.232197 0.670975 0.552021
C185  C     C_R   0.819390 0.216254 0.233020 -0.025962
C186  C     C_R   0.818961 0.784194 0.233228 -0.019639
C187  C     C_R   0.177577 0.220283 0.767706 -0.022499
C188  C     C_R   0.680696 0.283744 0.766917 -0.020030
C189  C     C_R   0.317016 0.712134 0.234583 -0.015753
C190  C     C_R   0.316024 0.293640 0.235198 -0.018911
C191  C     C_R   0.681622 0.714608 0.766330 -0.020822
C192  C     C_R   0.205624 0.758180 0.817280 -0.132830
C193  C     C_R   0.793981 0.241306 0.183266 -0.137445
C194  C     C_R   0.793640 0.758776 0.183556 -0.132388
C195  C     C_R   0.795568 0.770541 0.329403 0.554454
C196  C     C_R   0.199725 0.249505 0.819871 -0.128561
C197  C     C_R   0.705487 0.257342 0.817012 -0.133812
C198  C     C_R   0.289084 0.732740 0.187173 -0.132507
C199  C     C_R   0.288074 0.279131 0.185873 -0.136127
C200  C     C_R   0.708333 0.737362 0.814880 -0.133901
C201  C     C_R   0.195716 0.631762 0.530034 0.548704
C202  C     C_R   0.804356 0.368150 0.468589 0.548196
C203  C     C_R   0.804617 0.632205 0.467489 0.547842
C204  C     C_R   0.196053 0.368304 0.528834 0.547451
C205  C     C_R   0.695845 0.131900 0.530482 0.557681
C206  C     C_R   0.410152 0.000041 0.463361 0.012725
C207  C     C_R   0.304081 0.868093 0.469698 0.558346
C208  C     C_R   0.304223 0.132040 0.469038 0.560876
C209  C     C_R   0.695840 0.868074 0.530368 0.555662
C210  C     C_R   0.187931 0.781098 0.905339 -0.015356
C211  C     C_R   0.811066 0.217620 0.095617 -0.002594
C212  C     C_R   0.811218 0.781624 0.095290 -0.019597
C213  C     C_R   0.189571 0.217125 0.901431 -0.011337
C214  C     C_R   0.689078 0.281570 0.904161 -0.017503
C215  C     C_R   0.306326 0.709318 0.099610 -0.011682
C216  C     C_R   0.314208 0.284288 0.091038 -0.014123
Cu1   Cu    Cu3+1 0.209920 0.785290 0.495070 0.856830
Cu2   Cu    Cu3+1 0.504760 0.500000 0.075850 0.899200
Cu3   Cu    Cu3+1 0.995240 0.000000 0.924150 0.897599
Cu4   Cu    Cu3+1 0.004760 1.000000 0.075850 0.894433
Cu5   Cu    Cu3+1 0.790080 0.214710 0.504930 0.861589
Cu6   Cu    Cu3+1 0.790080 0.785290 0.504930 0.863971
Cu7   Cu    Cu3+1 0.209920 0.214710 0.495070 0.862073
Cu8   Cu    Cu3+1 0.709920 0.285290 0.495070 0.876815
Cu9   Cu    Cu3+1 0.290080 0.714710 0.504930 0.881982
Cu10  Cu    Cu3+1 0.290080 0.285290 0.504930 0.872411
Cu11  Cu    Cu3+1 0.709920 0.714710 0.495070 0.877732
Cu12  Cu    Cu3+1 0.495240 0.500000 0.924150 0.881088
H1    H     H_    0.131944 0.847621 0.011031 0.126774
H2    H     H_    0.466144 0.245331 0.470778 0.100710
H3    H     H_    0.381907 0.340203 0.873056 0.125340
H4    H     H_    0.336629 0.359238 0.832798 0.131259
H5    H     H_    0.615542 0.934599 0.938299 0.154277
H6    H     H_    0.626242 0.984121 0.021032 0.145150
H7    H     H_    0.666158 0.004060 0.903546 0.135745
H8    H     H_    0.719515 0.933326 0.959146 0.153144
H9    H     H_    0.708798 0.884017 0.877407 0.161871
H10   H     H_    0.632855 0.816466 0.998885 0.149899
H11   H     H_    0.638223 0.865823 0.081653 0.136451
H12   H     H_    0.312379 0.934837 0.712292 0.157024
H13   H     H_    0.463226 0.754684 0.480612 0.102340
H14   H     H_    0.363572 0.950924 0.747821 0.146027
H15   H     H_    0.377657 0.893159 0.654225 0.169254
H16   H     H_    0.360561 0.820974 0.787959 0.154950
H17   H     H_    0.310165 0.805542 0.752883 0.173043
H18   H     H_    0.247088 0.890081 0.868919 0.153712
H19   H     H_    0.295219 0.912779 0.902392 0.132827
H20   H     H_    0.763525 0.082696 0.232675 0.173850
H21   H     H_    0.699175 0.038874 0.269136 0.153569
H22   H     H_    0.761206 0.993298 0.196080 0.139393
H23   H     H_    0.714603 0.036743 0.109574 0.135244
H24   H     H_    0.536808 0.245526 0.518035 0.100170
H25   H     H_    0.778085 0.079671 0.074238 0.174127
H26   H     H_    0.708165 0.174178 0.209263 0.151471
H27   H     H_    0.663603 0.136660 0.177468 0.134692
H28   H     H_    0.633475 0.943210 0.264380 0.148426
H29   H     H_    0.609813 0.874927 0.349651 0.168594
H30   H     H_    0.676644 0.910952 0.310877 0.162129
H31   H     H_    0.633940 0.817244 0.207401 0.154416
H32   H     H_    0.680858 0.791340 0.246680 0.168032
H33   H     H_    0.746879 0.883428 0.147236 0.154472
H34   H     H_    0.702380 0.912859 0.108282 0.131742
H35   H     H_    0.041031 0.254691 0.503518 0.099977
H36   H     H_    0.339403 0.153855 0.645331 0.187258
H37   H     H_    0.392192 0.135936 0.676540 0.160834
H38   H     H_    0.345779 0.066121 0.684010 0.142863
H39   H     H_    0.322900 0.116233 0.835120 0.154874
H40   H     H_    0.270173 0.129881 0.803869 0.179144
H41   H     H_    0.306585 0.257469 0.753219 0.141925
H42   H     H_    0.357644 0.238948 0.783370 0.134235
H43   H     H_    0.837781 0.413886 0.679199 0.161186
H44   H     H_    0.884835 0.420816 0.725179 0.145838
H45   H     H_    0.897761 0.359415 0.635558 0.169689
H46   H     H_    0.966895 0.745792 0.465333 0.100236
H47   H     H_    0.865019 0.291179 0.774718 0.153698
H48   H     H_    0.816855 0.288435 0.733332 0.172666
H49   H     H_    0.759212 0.376135 0.838890 0.154084
H50   H     H_    0.806656 0.402872 0.872735 0.139365
H51   H     H_    0.210381 0.509237 0.233951 0.168570
H52   H     H_    0.166082 0.490769 0.184985 0.149700
H53   H     H_    0.230149 0.445812 0.143784 0.142817
H54   H     H_    0.233974 0.543598 0.039792 0.152156
H55   H     H_    0.278689 0.560393 0.087430 0.176135
H56   H     H_    0.213612 0.644767 0.196981 0.151610
H57   H     H_    0.970802 0.255040 0.455365 0.102022
H58   H     H_    0.163849 0.622478 0.167354 0.145978
H59   H     H_    0.248989 0.022018 0.170424 0.147625
H60   H     H_    0.177511 0.040342 0.236645 0.151786
H61   H     H_    0.200500 0.980467 0.142396 0.137386
H62   H     H_    0.177097 0.097155 0.102437 0.158816
H63   H     H_    0.248680 0.081501 0.038589 0.160867
H64   H     H_    0.263430 0.153601 0.150893 0.154407
H65   H     H_    0.192545 0.175432 0.208232 0.128227
H66   H     H_    0.711475 0.559281 0.823604 0.173823
H67   H     H_    0.769147 0.501792 0.793348 0.146519
H68   H     H_    0.037244 0.745502 0.513255 0.099311
H69   H     H_    0.703886 0.477220 0.884188 0.145515
H70   H     H_    0.766434 0.523141 0.941384 0.135668
H71   H     H_    0.707134 0.576195 0.975752 0.170466
H72   H     H_    0.779944 0.644040 0.812364 0.154286
H73   H     H_    0.824272 0.610379 0.847849 0.128758
H74   H     H_    0.116804 0.848631 0.768471 0.152644
H75   H     H_    0.884041 0.152845 0.230892 0.152679
H76   H     H_    0.883568 0.847484 0.230848 0.152641
H77   H     H_    0.114806 0.153646 0.768627 0.152746
H78   H     H_    0.616660 0.348295 0.768794 0.153312
H79   H     H_    0.218223 0.963501 0.310540 0.130242
H80   H     H_    0.384548 0.654127 0.229914 0.151828
H81   H     H_    0.383555 0.349581 0.233012 0.154155
H82   H     H_    0.615555 0.654002 0.769737 0.154111
H83   H     H_    0.240003 0.722573 0.787313 0.120745
H84   H     H_    0.758960 0.275816 0.213900 0.121108
H85   H     H_    0.758869 0.723789 0.214269 0.122931
H86   H     H_    0.227113 0.294311 0.794354 0.116798
H87   H     H_    0.739257 0.220796 0.787196 0.122347
H88   H     H_    0.252723 0.764730 0.218951 0.121215
H89   H     H_    0.246245 0.263963 0.222525 0.125622
H90   H     H_    0.207905 0.894788 0.391323 0.205420
H91   H     H_    0.744922 0.769011 0.782919 0.121633
H92   H     H_    0.156660 0.961150 0.414686 0.113728
H93   H     H_    0.868305 0.152927 0.988888 0.122725
H94   H     H_    0.210393 0.987379 0.497808 0.193925
H95   H     H_    0.211951 0.055596 0.421616 0.174984
H96   H     H_    0.303300 0.045047 0.328231 0.120005
H97   H     H_    0.302737 0.951209 0.331750 0.137295
H98   H     H_    0.775611 0.971959 0.705238 0.131160
H99   H     H_    0.780210 0.896942 0.634846 0.198094
H100  H     H_    0.836325 0.957492 0.601789 0.119708
H101  H     H_    0.787811 0.985148 0.513453 0.195355
H102  H     H_    0.783598 0.055911 0.587639 0.175616
H103  H     H_    0.691376 0.044970 0.676355 0.118909
H104  H     H_    0.867710 0.847917 0.988843 0.127231
H105  H     H_    0.691827 0.951030 0.673513 0.136243
H106  H     H_    0.718279 0.431270 0.323989 0.157059
H107  H     H_    0.750236 0.506514 0.249894 0.140524
H108  H     H_    0.769293 0.416090 0.211463 0.130924
H109  H     H_    0.838106 0.475938 0.245966 0.145257
H110  H     H_    0.808579 0.398050 0.313045 0.183162
H111  H     H_    0.740217 0.487155 0.435709 0.181188
H112  H     H_    0.779785 0.555324 0.359077 0.160523
H113  H     H_    0.253027 0.435945 0.726697 0.151409
H114  H     H_    0.214213 0.514080 0.784658 0.144501
H115  H     H_    0.145382 0.131694 0.992796 0.115182
H116  H     H_    0.189905 0.425538 0.827290 0.136690
H117  H     H_    0.139769 0.475085 0.750688 0.152737
H118  H     H_    0.178502 0.397600 0.694203 0.174331
H119  H     H_    0.252037 0.482083 0.582352 0.179792
H120  H     H_    0.211777 0.554567 0.647068 0.158597
H121  H     H_    0.589416 0.821530 0.576287 0.148550
H122  H     H_    0.410680 0.178521 0.422210 0.147529
H123  H     H_    0.410076 0.821170 0.426822 0.149031
H124  H     H_    0.590067 0.179074 0.571470 0.146865
H125  H     H_    0.090997 0.320727 0.562720 0.147425
H126  H     H_    0.634333 0.350050 0.009054 0.127613
H127  H     H_    0.911080 0.679657 0.416653 0.144634
H128  H     H_    0.911411 0.321437 0.414458 0.146718
H129  H     H_    0.090160 0.678687 0.566727 0.146485
H130  H     H_    0.048621 0.615983 0.069810 0.150500
H131  H     H_    0.064750 0.581944 0.155451 0.149488
H132  H     H_    0.016145 0.653038 0.181225 0.146905
H133  H     H_    0.103602 0.701160 0.161792 0.157983
H134  H     H_    0.086765 0.735348 0.078622 0.167810
H135  H     H_    0.149934 0.656370 0.963304 0.144104
H136  H     H_    0.159114 0.601647 0.039150 0.137821
H137  H     H_    0.365414 0.648168 0.990847 0.123889
H138  H     H_    0.926786 0.405008 0.983997 0.155658
H139  H     H_    0.902702 0.458748 0.920115 0.144327
H140  H     H_    0.883153 0.480719 0.035191 0.138930
H141  H     H_    0.807968 0.420452 0.022943 0.152759
H142  H     H_    0.832751 0.366496 0.085154 0.169152
H143  H     H_    0.883266 0.288661 0.956420 0.143217
H144  H     H_    0.872923 0.345711 0.884444 0.145324
H145  H     H_    0.930796 0.577126 0.852932 0.144888
H146  H     H_    0.978870 0.649415 0.820832 0.146983
H147  H     H_    0.946546 0.618210 0.935375 0.151737
H148  H     H_    0.391996 0.310552 0.980248 0.124979
H149  H     H_    0.890002 0.690431 0.836289 0.158677
H150  H     H_    0.908080 0.734534 0.912783 0.166837
H151  H     H_    0.847879 0.657865 0.037869 0.146298
H152  H     H_    0.834159 0.600560 0.969549 0.134415
H153  H     H_    0.038278 0.301735 0.155872 0.156564
H154  H     H_    0.063621 0.339621 0.227973 0.160628
H155  H     H_    0.056459 0.395284 0.146441 0.139119
H156  H     H_    0.152613 0.363216 0.094428 0.158711
H157  H     H_    0.127350 0.326525 0.022279 0.169035
H158  H     H_    0.113823 0.207197 0.100183 0.139622
H159  H     H_    0.629498 0.656123 0.013483 0.125377
H160  H     H_    0.134312 0.244688 0.175527 0.139921
H161  H     H_    0.547261 0.120593 0.092889 0.151708
H162  H     H_    0.566345 0.095775 0.178411 0.148655
H163  H     H_    0.517196 0.165436 0.199772 0.148261
H164  H     H_    0.605917 0.217721 0.168068 0.158283
H165  H     H_    0.586009 0.242996 0.085201 0.167526
H166  H     H_    0.647788 0.161182 0.975263 0.144613
H167  H     H_    0.658506 0.110247 0.052498 0.135015
H168  H     H_    0.395556 0.906723 0.057120 0.154359
H169  H     H_    0.387783 0.965154 0.977693 0.151120
H170  H     H_    0.533421 0.754850 0.528917 0.102390
H171  H     H_    0.350909 0.982842 0.096125 0.136071
H172  H     H_    0.290994 0.928525 0.041161 0.155064
H173  H     H_    0.298467 0.871076 0.120192 0.164816
H174  H     H_    0.370358 0.801111 0.990247 0.151047
H175  H     H_    0.362444 0.856773 0.914294 0.137079
H176  H     H_    0.395369 0.475759 0.878228 0.179601
H177  H     H_    0.349372 0.489455 0.831437 0.133403
H178  H     H_    0.337819 0.533627 0.933419 0.134958
H179  H     H_    0.275806 0.428924 0.964225 0.151752
H180  H     H_    0.320314 0.417855 0.013140 0.183527
O1    O     O_R   0.255040 0.869590 0.478480 -0.508452
O2    O     O_R   0.817950 0.203450 0.375560 -0.513949
O3    O     O_R   0.817950 0.796550 0.375560 -0.514065
O4    O     O_R   0.182050 0.203450 0.624440 -0.512626
O5    O     O_R   0.682050 0.296550 0.624440 -0.510954
O6    O     O_R   0.317950 0.703450 0.375560 -0.509313
O7    O     O_R   0.317950 0.296550 0.375560 -0.511856
O8    O     O_R   0.682050 0.703450 0.624440 -0.509221
O9    O     O_R   0.250530 0.763330 0.367210 -0.527818
O10   O     O_R   0.749470 0.236670 0.632790 -0.518834
O11   O     O_R   0.749470 0.763330 0.632790 -0.525817
O12   O     O_R   0.744960 0.130410 0.521520 -0.512161
O13   O     O_R   0.250530 0.236670 0.367210 -0.516975
O14   O     O_R   0.750530 0.263330 0.367210 -0.514676
O15   O     O_R   0.249470 0.736670 0.632790 -0.516121
O16   O     O_R   0.249470 0.263330 0.632790 -0.515785
O17   O     O_R   0.750530 0.736670 0.367210 -0.517085
O18   O     O_R   0.177260 0.690030 0.513710 -0.518266
O19   O     O_R   0.822740 0.309970 0.486290 -0.517906
O20   O     O_R   0.822740 0.690030 0.486290 -0.514223
O21   O     O_R   0.177260 0.309970 0.513710 -0.524440
O22   O     O_R   0.677260 0.190030 0.513710 -0.519378
O23   O     O_R   0.744960 0.869590 0.521520 -0.505466
O24   O     O_R   0.322740 0.809970 0.486290 -0.519707
O25   O     O_R   0.322740 0.190030 0.486290 -0.522564
O26   O     O_R   0.677260 0.809970 0.513710 -0.519183
O27   O     O_R   0.051640 0.926880 0.885090 -0.512533
O28   O     O_R   0.948360 0.073120 0.114910 -0.511339
O29   O     O_R   0.948360 0.926880 0.114910 -0.511446
O30   O     O_R   0.051640 0.073120 0.885090 -0.512527
O31   O     O_R   0.551640 0.426880 0.885090 -0.512886
O32   O     O_R   0.448360 0.573120 0.114910 -0.508716
O33   O     O_R   0.448360 0.426880 0.114910 -0.510500
O34   O     O_R   0.255040 0.130410 0.478480 -0.510023
O35   O     O_R   0.551640 0.573120 0.885090 -0.510455
O36   O     O_R   0.940620 0.926560 0.986760 -0.514934
O37   O     O_R   0.059380 0.073440 0.013240 -0.516196
O38   O     O_R   0.059380 0.926560 0.013240 -0.516746
O39   O     O_R   0.940620 0.073440 0.986760 -0.514075
O40   O     O_R   0.440620 0.426560 0.986760 -0.517178
O41   O     O_R   0.559380 0.573440 0.013240 -0.514050
O42   O     O_R   0.559380 0.426560 0.013240 -0.516662
O43   O     O_R   0.440620 0.573440 0.986760 -0.517013
O44   O     O_R   0.755040 0.369590 0.478480 -0.504183
O45   O     O_R   0.244960 0.630410 0.521520 -0.507797
O46   O     O_R   0.244960 0.369590 0.521520 -0.506023
O47   O     O_R   0.755040 0.630410 0.478480 -0.513141
O48   O     O_R   0.182050 0.796550 0.624440 -0.513261

loop_
_geom_bond_atom_site_label_1
_geom_bond_atom_site_label_2
_ccdc_geom_bond_type
C49   C113  A    
C87   H147  S    
C103  H8    S    
C31   C42   A    
C190  C199  A    
C46   H122  S    
C50   C79   A    
C14   C33   A    
C180  H80   S    
C114  C115  S    
C19   C46   A    
Cu9   O24   S    
C98   C152  S    
C16   C31   A    
C11   C171  S    
C55   C208  S    
C126  C127  S    
C15   C30   A    
C50   C59   A    
Cu7   O13   S    
Cu4   O38   S    
C52   C61   A    
C162  O2    A    
C193  C211  A    
C106  C107  S    
C1    O6    A    
C34   C37   A    
C90   H127  S    
C16   C25   A    
Cu12  O35   S    
C108  C109  S    
Cu11  O26   S    
C81   H131  S    
C111  H33   S    
C111  C142  S    
C134  C143  A    
Cu9   O15   S    
C44   C53   A    
C104  H7    S    
C100  H177  S    
C99   H180  S    
C200  H91   S    
Cu1   O1    S    
C67   H90   S    
C71   H100  S    
C24   C50   A    
C107  H15   S    
C202  O19   A    
C21   H68   S    
C70   H101  S    
C205  O12   A    
Cu2   Cu12  S    
C158  C167  A    
C69   H103  S    
C110  H21   S    
Cu8   O14   S    
Cu7   Cu10  S    
C175  H74   S    
C88   C155  S    
C137  C146  A    
C128  H60   S    
Cu12  O43   S    
Cu5   O19   S    
C179  C188  A    
C164  C216  A    
C177  C186  A    
C4    C168  S    
C76   H118  S    
C75   C76   S    
C181  C190  A    
C83   H141  S    
C134  C155  A    
Cu3   O36   S    
C3    C138  S    
C204  O46   A    
C121  H44   S    
C192  C210  A    
Cu5   O10   S    
C98   H4    S    
C87   H145  S    
C108  H27   S    
C115  H29   S    
C116  H41   S    
C35   C45   A    
C28   H2    S    
C85   H152  S    
C175  C183  A    
C158  C211  A    
C109  H23   S    
C162  O14   A    
C72   C73   S    
C119  H49   S    
C107  H12   S    
C76   H117  S    
C130  C131  S    
C18   C38   A    
C74   H108  S    
C7    O39   A    
Cu6   Cu11  S    
C102  H11   S    
C48   C101  A    
Cu5   O2    S    
C209  O26   A    
Cu4   O29   S    
C35   H121  S    
C69   C70   S    
C129  C147  S    
C117  H40   S    
C112  O5    A    
C194  C212  A    
C2    C40   A    
C88   C89   S    
C71   H98   S    
C98   C99   S    
C92   C149  S    
C88   H160  S    
C89   H156  S    
C84   H138  S    
C197  C214  A    
C113  H129  S    
C27   C29   A    
C124  C139  A    
C174  C182  A    
C157  H1    S    
C67   H79   S    
C85   C86   S    
C97   H169  S    
C133  C142  A    
C134  C213  S    
C75   H120  S    
C130  H70   S    
C91   H154  S    
C77   H114  S    
C37   C40   A    
C180  C189  A    
C51   C90   A    
C38   C39   A    
C78   C80   S    
C43   C52   A    
C158  H93   S    
C73   H110  S    
C73   H109  S    
Cu5   O12   S    
C20   C35   A    
C172  C181  A    
C2    C44   A    
C9    O35   A    
C22   C25   A    
C30   C41   A    
C8    O33   A    
C89   C91   S    
C179  H78   S    
C114  H31   S    
Cu2   O42   S    
C104  H6    S    
C66   C67   S    
C82   H144  S    
C13   C51   A    
C43   C206  A    
C173  O15   A    
C132  C211  S    
C100  H176  S    
C101  H128  S    
C65   H97   S    
C94   H162  S    
Cu2   O32   S    
C120  H48   S    
C54   C209  S    
C2    C45   A    
C58   C64   A    
C139  C148  A    
C72   H111  S    
C93   H165  S    
C115  H28   S    
C34   C39   A    
C191  C200  A    
C74   H106  S    
Cu1   O48   S    
C165  C174  A    
C193  H84   S    
Cu2   O33   S    
C61   C65   S    
C118  H37   S    
C83   C84   S    
C88   H158  S    
C93   H164  S    
C208  O25   A    
C3    C200  A    
C95   H175  S    
C136  C148  A    
C140  O11   A    
C19   C28   A    
C84   H140  S    
C26   H24   S    
C126  H64   S    
C145  C154  A    
C11   O43   A    
C9    O41   A    
C164  C172  A    
C112  O10   A    
C120  C121  S    
C3    C165  A    
C78   H136  S    
C129  C130  S    
Cu11  O47   S    
C132  C141  A    
C208  O34   A    
C97   H171  S    
C32   C42   A    
C108  H26   S    
C186  C194  A    
C77   H116  S    
C106  H16   S    
C45   C54   A    
C70   H102  S    
C162  C185  S    
C125  H52   S    
C184  C187  S    
C170  C179  A    
C14   C22   A    
C117  C118  S    
C195  O17   A    
C173  O48   A    
C95   H174  S    
C124  C210  S    
C55   C61   A    
C204  O21   A    
C64   C75   S    
C81   H130  S    
C106  H17   S    
C102  C103  S    
C43   C57   A    
C140  C191  S    
C51   C60   A    
Cu4   O28   S    
Cu6   O20   S    
C122  H56   S    
C80   H133  S    
Cu1   Cu9   S    
Cu3   O27   S    
C161  C214  A    
C6    C166  S    
C71   H99   S    
C181  H81   S    
C187  C196  A    
C52   C207  S    
C24   C42   A    
C73   C74   S    
C183  C192  A    
C6    O38   A    
C86   H149  S    
C13   C41   A    
Cu8   O5    S    
C176  C185  A    
Cu11  O8    S    
C110  H22   S    
C129  H73   S    
C166  C175  A    
C29   H170  S    
C66   H94   S    
Cu5   Cu8   S    
C164  H148  S    
C202  O44   A    
C123  C125  S    
C135  C214  S    
Cu10  O46   S    
C168  C177  A    
C39   C206  A    
Cu9   O45   S    
C203  O20   A    
C105  H19   S    
C7    C167  S    
C82   C153  S    
C163  C215  A    
C151  C190  S    
C146  C155  A    
C165  H159  S    
C7    O28   A    
C160  C169  A    
C137  C152  A    
C70   C71   S    
C207  O1    A    
C163  C171  A    
C121  H43   S    
C136  C215  S    
C184  O16   A    
C196  H86   S    
Cu10  O25   S    
C119  C144  S    
C160  H115  S    
C8    O40   A    
C116  H42   S    
C198  C215  A    
C27   H13   S    
C108  C141  S    
C85   H151  S    
C127  H62   S    
C95   C148  S    
Cu4   O37   S    
C57   H123  S    
C194  H85   S    
Cu3   Cu4   S    
C86   C87   S    
C78   C154  S    
C14   C101  A    
C54   C62   A    
C92   H167  S    
C207  O24   A    
C115  H30   S    
C177  H76   S    
C159  C212  A    
C131  H66   S    
C85   C156  S    
C111  H34   S    
C112  C188  S    
Cu11  O17   S    
C22   H57   S    
C6    O27   A    
C105  C139  S    
C18   C57   A    
C69   H105  S    
Cu9   O6    S    
C159  H104  S    
C72   H112  S    
C199  H89   S    
C96   H173  S    
C117  H39   S    
C91   H155  S    
C102  C150  S    
C178  C187  A    
C62   C69   S    
C143  C152  A    
C125  H53   S    
C21   C23   A    
C137  C216  S    
C182  C191  A    
C127  C128  S    
C89   H157  S    
Cu10  O7    S    
C110  H20   S    
C46   C47   A    
C17   C68   A    
C47   C206  A    
Cu6   O11   S    
C128  H59   S    
C123  H54   S    
C119  C120  S    
C205  O22   A    
C10   C170  S    
C105  C106  S    
C97   H168  S    
C75   H119  S    
C130  H71   S    
C16   C79   A    
C33   C41   A    
C142  C150  A    
C36   C38   A    
C77   H113  S    
C109  C110  S    
C83   H142  S    
Cu8   O22   S    
C188  C197  A    
C209  O23   A    
C109  H25   S    
C92   C93   S    
C116  C117  S    
C111  C114  S    
C201  O45   A    
C121  H45   S    
C98   H3    S    
C20   C36   A    
C118  H36   S    
C63   C72   S    
C173  C183  S    
C87   H146  S    
C82   C83   S    
C103  C104  S    
Cu12  O31   S    
C5    C169  S    
C131  H69   S    
C114  H32   S    
C81   H132  S    
C8    C172  S    
Cu6   O3    S    
C189  C198  A    
C93   C94   S    
C196  C213  A    
C124  C154  A    
C96   H172  S    
C95   C96   S    
Cu6   O23   S    
C65   H96   S    
C119  H50   S    
C94   H163  S    
C126  C146  S    
C141  C149  A    
C138  C150  A    
C59   C64   A    
Cu12  O40   S    
C60   C63   A    
C17   C26   A    
Cu1   O9    S    
Cu7   O34   S    
C74   H107  S    
C135  C144  A    
C25   H35   S    
C23   H46   S    
C56   C202  S    
C5    O30   A    
C159  C168  A    
C122  C145  S    
C144  C153  A    
C91   H153  S    
C118  H38   S    
Cu3   O39   S    
C79   H125  S    
C11   O32   A    
C58   C201  S    
C53   C205  S    
C31   C33   A    
C107  H14   S    
C136  C145  A    
C126  H65   S    
C4    O36   A    
C15   C23   A    
C5    O37   A    
C157  C210  A    
C140  O8    A    
C59   C204  S    
C20   C29   A    
Cu7   O21   S    
C102  H10   S    
C199  C216  A    
C186  C195  S    
C36   C40   A    
C178  H77   S    
C76   C77   S    
C161  H126  S    
C127  H63   S    
C125  H51   S    
C135  C149  A    
C12   C21   A    
C49   C58   A    
C147  C156  A    
C133  C156  A    
C203  O47   A    
C116  C143  S    
C53   C62   A    
C60   C203  S    
C99   C100  S    
C163  H137  S    
C138  C147  A    
C103  H9    S    
C92   H166  S    
C96   C97   S    
C182  H82   S    
C132  C153  A    
C56   C63   A    
C131  H67   S    
C9    C174  S    
C17   C37   A    
C68   H124  S    
Cu2   O41   S    
C161  C170  A    
C128  H61   S    
C82   H143  S    
C65   C66   S    
C10   O42   A    
C171  C180  A    
C44   C68   A    
C80   H134  S    
C169  C178  A    
Cu8   O44   S    
C94   H161  S    
C120  H47   S    
C47   C55   A    
C12   C113  A    
Cu3   O30   S    
C24   C49   A    
C48   C56   A    
C67   H92   S    
C201  O18   A    
C192  H83   S    
Cu10  O16   S    
C18   C27   A    
C185  C193  A    
C80   C81   S    
C19   C34   A    
C157  C166  A    
C86   H150  S    
C13   C48   A    
C104  H5    S    
C4    O29   A    
C197  H87   S    
C129  H72   S    
C26   C28   A    
C198  H88   S    
C184  O4    A    
C176  H75   S    
C100  H178  S    
C66   H95   S    
C122  H58   S    
C1    O9    A    
C123  H55   S    
C15   C90   A    
C30   C32   A    
C10   O31   A    
C99   H179  S    
C160  C213  A    
Cu1   O18   S    
C105  H18   S    
C84   H139  S    
C195  O3    A    
Cu7   O4    S    
C133  C212  S    
C78   H135  S    
C122  C123  S    
C151  O13   A    
C12   C32   A    
C1    C189  S    
C167  C176  A    
C151  O7    A    
