data_mof_unit_6967.cif
_audit_creation_date              2012-12-10T16:48:38-0500
_audit_creation_method            fapswitch 2.2
_symmetry_space_group_name_H-M    P1
_symmetry_Int_Tables_number       1
_space_group_crystal_system       triclinic
_cell_length_a                    7.767429
_cell_length_b                    8.584483
_cell_length_c                    10.479888
_cell_angle_alpha                 88.672611
_cell_angle_beta                  97.181472
_cell_angle_gamma                 93.583066
_cell_volume                      691.87192304

loop_
_atom_site_label
_atom_site_type_symbol
_atom_type_description
_atom_site_fract_x
_atom_site_fract_y
_atom_site_fract_z
_atom_type_partial_charge
C1    C     C_R   0.544817 0.794958 0.496563 0.981132
C2    C     C_2   0.431431 0.041676 0.504999 -0.386387
C3    C     C_3   0.620128 0.256439 0.144675 -0.342663
C4    C     C_3   0.678250 0.124791 0.066830 -0.908522
C5    C     C_3   0.295518 0.287847 0.856448 -0.331944
C6    C     C_3   0.190821 0.172693 0.935042 -0.911478
C7    C     C_R   0.455090 0.205048 0.503128 0.935310
C8    C     C_R   0.566693 0.481559 0.737223 0.925007
C9    C     C_R   0.428926 0.494401 0.262873 0.925914
C10   C     C_2   0.590451 0.439592 0.873346 -0.451126
C11   C     C_2   0.390963 0.458708 0.126894 -0.456306
C12   C     C_2   0.463401 0.359224 0.930146 0.197574
C13   C     C_2   0.484384 0.357189 0.070496 0.203949
C14   C     C_2   0.568321 0.958393 0.494157 -0.390382
H1    H     H_    0.289406 0.520771 0.069914 0.145173
H2    H     H_    0.738039 0.331041 0.179026 0.215843
H3    H     H_    0.565257 0.201451 0.228976 0.212926
H4    H     H_    0.270533 0.075761 0.974051 0.264473
H5    H     H_    0.142488 0.232506 0.015152 0.264652
H6    H     H_    0.076282 0.122222 0.872033 0.251372
H7    H     H_    0.209242 0.382247 0.821362 0.221519
H8    H     H_    0.328361 0.223719 0.772702 0.212619
H9    H     H_    0.711121 0.480092 0.930113 0.145399
H10   H     H_    0.697497 0.009671 0.483514 0.179855
H11   H     H_    0.302220 0.990442 0.515551 0.181658
H12   H     H_    0.985739 0.382652 0.406455 0.186818
H13   H     H_    0.014244 0.617239 0.593615 0.189894
H14   H     H_    0.565604 0.046528 0.028684 0.265010
H15   H     H_    0.746375 0.172684 0.986158 0.266167
H16   H     H_    0.770302 0.054395 0.130135 0.251362
N1    N     N_2   0.940600 0.458860 0.467170 -0.174922
N2    N     N_2   0.059400 0.541140 0.532830 -0.175330
O1    O     O_R   0.391630 0.738350 0.508060 -0.605617
O2    O     O_R   0.608370 0.261650 0.491940 -0.617592
O3    O     O_R   0.674540 0.711990 0.487010 -0.623492
O4    O     O_R   0.325460 0.288010 0.512990 -0.637641
O5    O     O_R   0.411370 0.508250 0.688780 -0.620394
O6    O     O_R   0.588630 0.491750 0.311220 -0.617307
O7    O     O_R   0.694270 0.481880 0.667740 -0.609063
O8    O     O_R   0.305730 0.518120 0.332260 -0.607909
Zn1   Zn    Zn3+2 0.311100 0.517600 0.514050 0.922096
Zn2   Zn    Zn3+2 0.688900 0.482400 0.485950 0.922353

loop_
_geom_bond_atom_site_label_1
_geom_bond_atom_site_label_2
_ccdc_geom_bond_type
N2    Zn1   S    
C3    H3    S    
N1    Zn2   S    
C10   H9    S    
O7    Zn2   S    
C9    C11   S    
C7    O4    A    
C4    H15   S    
O2    Zn2   S    
O1    Zn1   S    
C1    O1    A    
H12   N1    S    
N1    N2    D    
C6    H5    S    
C11   C13   D    
O4    Zn1   S    
C10   C12   D    
C6    H4    S    
C9    O6    A    
C4    H14   S    
O6    Zn2   S    
C2    H11   S    
O5    Zn1   S    
C5    C6    S    
C2    C14   D    
C7    O2    A    
C8    O5    A    
C3    H2    S    
C3    C4    S    
C6    H6    S    
C12   C13   S    
C1    O3    A    
C5    C12   S    
C8    C10   S    
C14   H10   S    
O3    Zn2   S    
C8    O7    A    
O8    Zn1   S    
C1    C14   S    
H13   N2    S    
C11   H1    S    
C9    O8    A    
C4    H16   S    
C5    H8    S    
C2    C7    S    
C5    H7    S    
C3    C13   S    
