data_mof_unit_34286.cif
_audit_creation_date              2012-12-10T20:26:28-0500
_audit_creation_method            fapswitch 2.2
_symmetry_space_group_name_H-M    P1
_symmetry_Int_Tables_number       1
_space_group_crystal_system       triclinic
_cell_length_a                    10.714923
_cell_length_b                    10.683841
_cell_length_c                    9.85406
_cell_angle_alpha                 90.068769
_cell_angle_beta                  90.589265
_cell_angle_gamma                 89.746891
_cell_volume                      1127.98721386

loop_
_atom_site_label
_atom_site_type_symbol
_atom_type_description
_atom_site_fract_x
_atom_site_fract_y
_atom_site_fract_z
_atom_type_partial_charge
C1    C     C_R   0.502711 0.259954 0.500052 0.905423
C2    C     C_R   0.520174 0.128471 0.500675 -0.059380
C3    C     C_R   0.542593 0.064437 0.378916 -0.227286
C4    C     C_R   0.542952 0.935089 0.378909 -0.221746
C5    C     C_R   0.521232 0.871369 0.500736 -0.063417
C6    C     C_R   0.522330 0.936233 0.623294 0.044661
C7    C     C_3   0.437977 0.928462 0.742944 -0.506381
C8    C     C_3   0.437234 0.070791 0.744035 0.344868
C9    C     C_R   0.438352 0.589982 0.070707 0.216492
C10   C     C_R   0.570071 0.414655 0.072700 -0.136054
C11   C     C_R   0.570314 0.414874 0.928596 -0.168430
C12   C     C_R   0.262528 0.502382 0.499114 0.932517
C13   C     C_R   0.437984 0.589706 0.928146 0.227257
C14   C     C_3   0.301425 0.616699 0.921334 -0.526137
C15   C     C_3   0.302082 0.618080 0.075393 -0.514101
C16   C     C_R   0.503107 0.740037 0.500087 0.884648
C17   C     C_R   0.737378 0.491676 0.500683 0.872991
C18   C     C_2   0.933022 0.476523 0.388545 -0.170153
C19   C     C_2   0.867483 0.460305 0.502217 -0.048526
C20   C     C_2   0.067032 0.467425 0.389523 -0.140554
C21   C     C_2   0.130689 0.511230 0.496143 -0.305561
C22   C     C_R   0.520991 0.063695 0.623274 0.026777
H1    H     H_    0.888915 0.505161 0.293684 0.152914
H2    H     H_    0.485902 0.111011 0.834797 0.043972
H3    H     H_    0.624670 0.345621 0.127656 0.143782
H4    H     H_    0.625006 0.345940 0.874632 0.141196
H5    H     H_    0.280931 0.709807 0.876045 0.198890
H6    H     H_    0.246866 0.537883 0.877360 0.216725
H7    H     H_    0.283039 0.712222 0.118846 0.203470
H8    H     H_    0.247107 0.540851 0.120277 0.217499
H9    H     H_    0.113049 0.430602 0.300074 0.162265
H10   H     H_    0.085934 0.555359 0.582317 0.158472
H11   H     H_    0.551626 0.113175 0.283176 0.162571
H12   H     H_    0.551953 0.886126 0.283134 0.165352
H13   H     H_    0.346121 0.886006 0.717079 0.216673
H14   H     H_    0.485833 0.887220 0.833100 0.158151
N1    N     N_R   0.499170 0.499140 0.142800 -0.108683
N2    N     N_R   0.499170 0.499180 0.857150 -0.114212
O1    O     O_R   0.500020 0.316790 0.614690 -0.636301
O2    O     O_R   0.500000 0.316760 0.385350 -0.629954
O3    O     O_R   0.319080 0.500020 0.614640 -0.631935
O4    O     O_R   0.319070 0.499980 0.385300 -0.613487
O5    O     O_R   0.500000 0.683240 0.614650 -0.611488
O6    O     O_R   0.499980 0.683210 0.385310 -0.624633
O7    O     O_R   0.680930 0.500020 0.614700 -0.622007
O8    O     O_R   0.680920 0.499980 0.385360 -0.627014
Zn1   Zn    Zn3+2 0.500010 0.500020 0.653130 0.927826
Zn2   Zn    Zn3+2 0.499990 0.499980 0.346870 0.935821
N3    N     N_3   0.921187 0.402424 0.621314 -0.449994
H15   H     H_    0.909385 0.463114 0.703577 0.183897
H16   H     H_    0.871176 0.320793 0.641357 0.182481
O9    O     O_3   0.317499 0.119156 0.709709 -0.622314
C23   C     C_3   0.281187 0.213954 0.801794 0.131421
H17   H     H_    0.206605 0.270631 0.751977 0.171124
H18   H     H_    0.358514 0.279927 0.825204 0.158896
C24   C     C_3   0.228746 0.157618 0.932341 -0.393129
H19   H     H_    0.143744 0.102601 0.907401 0.232094
H20   H     H_    0.298552 0.093646 0.979814 0.217592
C25   C     C_3   0.195864 0.259861 0.034386 -0.969588
H21   H     H_    0.281063 0.312323 0.064488 0.273836
H22   H     H_    0.155613 0.216896 0.126579 0.272330
H23   H     H_    0.126274 0.325830 0.989906 0.257584

loop_
_geom_bond_atom_site_label_1
_geom_bond_atom_site_label_2
_ccdc_geom_bond_type
C2    C22   A    
C11   N2    A    
C8    C22   S    
C23   H17   S    
C12   O3    A    
C14   H5    S    
C7    H14   S    
C8    O9    S    
C11   H4    S    
C24   C25   S    
C20   C21   D    
C9    N1    A    
C2    C3    A    
C9    C15   S    
C25   H21   S    
C5    C16   S    
C3    H11   S    
O4    Zn2   S    
C13   C14   S    
C17   O8    A    
N1    Zn2   S    
C16   O5    A    
N2    Zn1   S    
C6    C7    S    
C12   O4    A    
C7    H13   S    
C10   N1    A    
C10   H3    S    
C8    H2    S    
C17   O7    A    
C15   H7    S    
C18   C20   S    
C23   H18   S    
O3    Zn1   S    
C5    C6    A    
C21   H10   S    
C4    H12   S    
C25   H22   S    
C23   C24   S    
C10   C11   A    
C1    O1    A    
C17   C19   S    
C18   H1    S    
C6    C22   A    
O8    Zn2   S    
O6    Zn2   S    
C7    C8    S    
C24   H19   S    
C15   H8    S    
O1    Zn1   S    
C1    C2    S    
O7    Zn1   S    
N3    H15   S    
C19   N3    S    
O2    Zn2   S    
C18   C19   D    
C25   H23   S    
C9    C13   A    
C1    O2    A    
C14   H6    S    
C14   C15   S    
C24   H20   S    
O5    Zn1   S    
C12   C21   S    
C16   O6    A    
C13   N2    A    
C3    C4    A    
O9    C23   S    
C4    C5    A    
N3    H16   S    
C20   H9    S    
