data_mof_unit_48924.cif
_audit_creation_date              2013-03-05T15:40:48-0500
_audit_creation_method            fapswitch 2.2
_symmetry_space_group_name_H-M    P1
_symmetry_Int_Tables_number       1
_space_group_crystal_system       triclinic
_cell_length_a                    7.774784
_cell_length_b                    8.556989
_cell_length_c                    14.91434
_cell_angle_alpha                 91.285251
_cell_angle_beta                  85.479615
_cell_angle_gamma                 93.705956
_cell_volume                      986.927498778

loop_
_atom_site_label
_atom_site_type_symbol
_atom_site_description
_atom_site_fract_x
_atom_site_fract_y
_atom_site_fract_z
_atom_type_partial_charge
O1    O     O_R   0.389250 0.738570 0.505970 -0.618110
O2    O     O_R   0.610750 0.261430 0.494030 -0.618061
O3    O     O_R   0.678390 0.711620 0.490370 -0.618859
O4    O     O_R   0.321610 0.288380 0.509630 -0.618991
C1    C     C_R   0.545757 0.794697 0.497220 0.998260
C2    C     C_R   0.454242 0.205303 0.502773 0.998218
O5    O     O_R   0.355420 0.513510 0.639950 -0.605877
O6    O     O_R   0.644580 0.486490 0.360050 -0.605766
O7    O     O_R   0.644560 0.486560 0.624350 -0.604279
O8    O     O_R   0.355440 0.513440 0.375650 -0.604302
C3    C     C_R   0.501929 0.502241 0.672750 0.943339
C4    C     C_R   0.498069 0.497767 0.327252 0.943217
Zn1   Zn    Zn3+2 0.306940 0.517990 0.510420 1.026338
Zn2   Zn    Zn3+2 0.693060 0.482010 0.489580 1.026441
C5    C     C_R   0.400799 0.373386 0.188575 0.285097
C6    C     C_R   0.599095 0.626670 0.811457 0.285262
C7    C     C_R   0.495491 0.493499 0.231984 -0.166244
C8    C     C_R   0.504450 0.506546 0.768022 -0.166530
C9    C     C_R   0.590178 0.612535 0.185305 -0.199867
C10   C     C_R   0.409502 0.387651 0.814703 -0.199722
C11   C     C_R   0.587697 0.618367 0.093221 0.089520
C12   C     C_R   0.411773 0.381902 0.906800 0.089657
C13   C     C_R   0.499420 0.496641 0.046778 0.017434
C14   C     C_R   0.500035 0.503616 0.953253 0.017254
C15   C     C_R   0.411362 0.368173 0.093898 -0.104086
C16   C     C_R   0.588120 0.632065 0.906135 -0.103952
C17   C     C_R   0.667661 0.747629 0.048032 -0.175488
C18   C     C_R   0.331534 0.252774 0.952001 -0.175495
C19   C     C_R   0.662317 0.759530 0.955513 0.329213
C20   C     C_R   0.336774 0.240899 0.044523 0.328973
H1    H     H_    0.659800 0.704640 0.221683 0.170262
H2    H     H_    0.339853 0.295571 0.778319 0.170277
H3    H     H_    0.726641 0.844148 0.085595 0.212076
H4    H     H_    0.272349 0.156334 0.914459 0.211794
C21   C     C_2   0.569894 0.958239 0.495932 -0.293623
C22   C     C_2   0.430105 0.041761 0.504056 -0.293670
H5    H     H_    0.701932 0.009332 0.488513 0.188144
H6    H     H_    0.298067 0.990667 0.511474 0.188116
N1    N     N_2   0.950330 0.457950 0.475660 -0.166992
N2    N     N_2   0.049670 0.542050 0.524340 -0.167043
H7    H     H_    0.013883 0.382350 0.431930 0.230924
H8    H     H_    0.986117 0.617647 0.568072 0.230793
N3    N     N_R   0.286527 0.265763 0.240948 0.223908
O9    O     O_R   0.345927 0.180247 0.301116 -0.385648
O10   O     O_R   0.120741 0.262291 0.233324 -0.355164
N4    N     N_R   0.713856 0.734020 0.759147 0.223900
O11   O     O_R   0.655131 0.819135 0.698571 -0.385708
O12   O     O_R   0.879449 0.738076 0.767515 -0.355134
N5    N     N_R   0.715783 0.907446 0.915341 0.247412
O13   O     O_R   0.606196 0.980849 0.872872 -0.352681
O14   O     O_R   0.857229 0.983279 0.937361 -0.314839
N6    N     N_R   0.282552 0.093189 0.084713 0.247335
O15   O     O_R   0.139993 0.018648 0.063296 -0.314536
O16   O     O_R   0.392102 0.018658 0.126546 -0.352497

loop_
_geom_bond_atom_site_label_1
_geom_bond_atom_site_label_2
_geom_bond_distance
_ccdc_geom_bond_type
C4    C7    1.422190 S    
O7    Zn2   2.015625 S    
C3    C8    1.422224 S    
C17   C19   1.389968 A    
O7    C3    1.287438 A    
C21   C22   1.335079 D    
O6    C4    1.284635 A    
N3    O9    1.300964 A    
C9    H1    1.086503 S    
N5    O14   1.301310 A    
C22   H6    1.087875 S    
C11   C17   1.393806 A    
C19   N5    1.435456 S    
C18   H4    1.084915 S    
N1    H7    1.029367 S    
C12   C18   1.393761 A    
C17   H3    1.084908 S    
O5    C3    1.284621 A    
N3    O10   1.301229 A    
O2    C2    1.276931 A    
O3    Zn2   1.975142 S    
O8    C4    1.287403 A    
O1    C1    1.276929 A    
C1    C21   1.400243 S    
C18   C20   1.389888 A    
C9    C11   1.377093 A    
C2    C22   1.400243 S    
C8    C10   1.385058 A    
C11   C13   1.409233 A    
C6    C16   1.407813 A    
O2    Zn2   1.954321 S    
C12   C14   1.409185 A    
C5    C15   1.407817 A    
O4    C2    1.286098 A    
O1    Zn1   1.954320 S    
C10   C12   1.377100 A    
C13   C14   1.397095 A    
C5    N3    1.436900 S    
N4    O12   1.301404 A    
O5    Zn1   1.998892 S    
C13   C15   1.425694 A    
N6    O15   1.301009 A    
C21   H5    1.087875 S    
C16   C19   1.419282 A    
C6    C8    1.401844 A    
N5    O13   1.301441 A    
C10   H2    1.086503 S    
C6    N4    1.437017 S    
N1    N2    1.278523 D    
C5    C7    1.401789 A    
C20   N6    1.435220 S    
N4    O11   1.301032 A    
C15   C20   1.419288 A    
Zn1   N2    2.017976 S    
O6    Zn2   1.998893 S    
C7    C9    1.385001 A    
Zn2   N1    2.017975 S    
C14   C16   1.425632 A    
O4    Zn1   1.975143 S    
N6    O16   1.301261 A    
N2    H8    1.029371 S    
O3    C1    1.286102 A    
O8    Zn1   2.015626 S    
