data_mof_unit_20695.cif
_audit_creation_date              2012-12-10T18:04:37-0500
_audit_creation_method            fapswitch 2.2
_symmetry_space_group_name_H-M    P1
_symmetry_Int_Tables_number       1
_space_group_crystal_system       triclinic
_cell_length_a                    10.910117
_cell_length_b                    9.521621
_cell_length_c                    15.973424
_cell_angle_alpha                 90.125262
_cell_angle_beta                  90.209582
_cell_angle_gamma                 90.162725
_cell_volume                      1659.32942146

loop_
_atom_site_label
_atom_site_type_symbol
_atom_type_description
_atom_site_fract_x
_atom_site_fract_y
_atom_site_fract_z
_atom_type_partial_charge
C1    C     C_R   0.870946 0.501639 0.503303 -0.404287
C2    C     C_R   0.127300 0.500220 0.503510 -0.410394
C3    C     C_R   0.261793 0.499860 0.501218 0.871692
C4    C     C_R   0.737583 0.500411 0.500974 0.866271
C5    C     C_R   0.500519 0.499890 0.341215 0.814078
C6    C     C_R   0.500671 0.500118 0.658788 0.799638
C7    C     C_R   0.483888 0.625156 0.956499 -0.179679
C8    C     C_R   0.531754 0.376198 0.043533 -0.178174
C9    C     C_R   0.483781 0.625017 0.043863 -0.180272
C10   C     C_R   0.532004 0.376368 0.956148 -0.179549
C11   C     C_R   0.507602 0.500748 0.912677 0.158830
C12   C     C_R   0.507235 0.500431 0.087344 0.158107
C13   C     C_1   0.505450 0.500460 0.823116 -0.077880
C14   C     C_1   0.504941 0.499892 0.176896 -0.083962
C15   C     C_1   0.502735 0.499711 0.252020 -0.185827
C16   C     C_1   0.503166 0.500324 0.747987 -0.184633
C17   C     C_R   0.443931 0.073878 0.437202 -0.044738
C18   C     C_R   0.558719 0.926053 0.561744 -0.020804
C19   C     C_R   0.558014 0.074769 0.562017 0.010471
C20   C     C_R   0.442184 0.925236 0.437887 -0.046465
C21   C     C_R   0.060690 0.373982 0.516389 0.347426
C22   C     C_R   0.936242 0.623982 0.481702 0.305191
C23   C     C_R   0.934930 0.380989 0.528711 0.316057
C24   C     C_R   0.062212 0.628245 0.494558 0.332072
Cu1   Cu    Cu3+1 0.500000 0.640660 0.500000 0.939704
Cu2   Cu    Cu3+1 0.500000 0.359340 0.500000 0.953597
H1    H     H_    0.398948 0.129266 0.386753 0.113807
H2    H     H_    0.606243 0.870600 0.611099 0.127304
H3    H     H_    0.604148 0.130951 0.611840 0.126894
H4    H     H_    0.395112 0.869168 0.388317 0.141132
H5    H     H_    0.464896 0.721528 0.077443 0.135843
H6    H     H_    0.550521 0.279771 0.922560 0.136411
H7    H     H_    0.464988 0.721760 0.923183 0.135037
H8    H     H_    0.550055 0.279453 0.076857 0.134849
N1    N     N_R   0.500000 0.852070 0.500000 -0.173583
N2    N     N_R   0.500000 0.147930 0.500000 -0.154567
O1    O     O_R   0.319640 0.618740 0.499990 -0.558884
O2    O     O_R   0.680360 0.381260 0.500010 -0.554555
O3    O     O_R   0.680360 0.618740 0.500010 -0.550581
O4    O     O_R   0.319640 0.381260 0.499990 -0.559468
O5    O     O_R   0.499970 0.618750 0.380310 -0.592024
O6    O     O_R   0.500030 0.381250 0.619690 -0.587458
O7    O     O_R   0.500030 0.618750 0.619690 -0.592074
O8    O     O_R   0.499970 0.381250 0.380310 -0.589038
O9    O     O_3   0.116856 0.245307 0.528162 -0.565131
C25   C     C_3   0.138635 0.180827 0.449494 0.107563
H9    H     H_    0.202502 0.092659 0.460923 0.171844
H10   H     H_    0.183918 0.253592 0.404584 0.123993
C26   C     C_3   0.022896 0.119050 0.408776 -0.334002
H11   H     H_    0.978681 0.043295 0.452063 0.268801
H12   H     H_    0.956765 0.203977 0.394072 0.209782
C27   C     C_3   0.056000 0.044606 0.327132 -0.941206
H13   H     H_    0.107745 0.116390 0.285330 0.246185
H14   H     H_    0.971678 0.011799 0.293602 0.261544
H15   H     H_    0.112682 0.950398 0.340312 0.274865
O10   O     O_3   0.876785 0.745212 0.456916 -0.565876
C28   C     C_3   0.855559 0.737995 0.369609 0.107905
H16   H     H_    0.821105 0.632599 0.349431 0.109857
H17   H     H_    0.942219 0.760755 0.335738 0.148691
C29   C     C_3   0.758550 0.846434 0.345728 -0.306615
H18   H     H_    0.672548 0.822512 0.379459 0.258285
H19   H     H_    0.788975 0.953053 0.365089 0.222550
C30   C     C_3   0.732129 0.844753 0.251850 -0.952699
H20   H     H_    0.816627 0.868800 0.216039 0.254084
H21   H     H_    0.661873 0.925122 0.236893 0.258225
H22   H     H_    0.696599 0.740200 0.232360 0.265419
O11   O     O_3   0.876700 0.267410 0.565353 -0.569533
C31   C     C_3   0.844757 0.302791 0.648805 0.099184
H23   H     H_    0.748811 0.341072 0.650128 0.154907
H24   H     H_    0.904774 0.385815 0.677169 0.108826
C32   C     C_3   0.854867 0.172456 0.703600 -0.341041
H25   H     H_    0.808292 0.082076 0.672761 0.219893
H26   H     H_    0.953398 0.147132 0.711456 0.239085
C33   C     C_3   0.798080 0.196545 0.789623 -0.950585
H27   H     H_    0.843965 0.285881 0.821916 0.263642
H28   H     H_    0.809352 0.100739 0.828363 0.258284
H29   H     H_    0.698628 0.219215 0.783299 0.256404
O12   O     O_3   0.118958 0.758763 0.495726 -0.578501
C34   C     C_3   0.146602 0.797048 0.579790 0.135825
H30   H     H_    0.216011 0.882619 0.578003 0.168039
H31   H     H_    0.189162 0.709360 0.615626 0.129799
C35   C     C_3   0.033873 0.850945 0.627180 -0.360422
H32   H     H_    0.998955 0.947819 0.596824 0.253281
H33   H     H_    0.959930 0.770696 0.626424 0.221872
C36   C     C_3   0.066155 0.881740 0.718501 -0.955041
H34   H     H_    0.106315 0.787372 0.748679 0.257063
H35   H     H_    0.982007 0.910134 0.753402 0.261045
H36   H     H_    0.132800 0.969940 0.722503 0.268401

loop_
_geom_bond_atom_site_label_1
_geom_bond_atom_site_label_2
_ccdc_geom_bond_type
C30   H21   S    
Cu1   O7    S    
Cu2   O8    S    
C20   H4    S    
O9    C25   S    
C7    C11   A    
C25   C26   S    
C33   H28   S    
C29   C30   S    
C19   N2    A    
C28   H17   S    
C17   C20   A    
O10   C28   S    
C29   H19   S    
C18   C19   A    
C23   O11   S    
C26   H11   S    
Cu1   O1    S    
C20   N1    A    
C31   H23   S    
C26   H12   S    
C33   H29   S    
C17   N2    A    
C18   N1    A    
C27   H15   S    
C30   H22   S    
C1    C22   A    
C7    H7    S    
C27   H14   S    
C21   O9    S    
C36   H35   S    
C25   H10   S    
C33   H27   S    
O11   C31   S    
C17   H1    S    
C18   H2    S    
Cu1   O5    S    
C32   H26   S    
O12   C34   S    
Cu2   O2    S    
C28   C29   S    
C22   O10   S    
Cu1   Cu2   S    
C36   H34   S    
C34   H30   S    
C29   H18   S    
C32   C33   S    
C4    O3    A    
C8    C12   A    
C26   C27   S    
C2    C21   A    
C8    H8    S    
Cu1   N1    S    
C24   O12   S    
C5    O8    A    
C12   C14   S    
C3    O4    A    
C1    C23   A    
C35   H33   S    
C6    O7    A    
C21   C23   A    
C2    C24   A    
C22   C24   A    
C19   H3    S    
C27   H13   S    
Cu2   O6    S    
C34   H31   S    
C36   H36   S    
Cu2   N2    S    
C7    C9    A    
C5    O5    A    
C25   H9    S    
C4    O2    A    
C34   C35   S    
C35   C36   S    
C1    C4    S    
C2    C3    S    
C32   H25   S    
Cu1   O3    S    
C11   C13   S    
Cu2   O4    S    
C28   H16   S    
C31   C32   S    
C9    C12   A    
C5    C15   S    
C10   C11   A    
C9    H5    S    
C6    C16   S    
C30   H20   S    
C10   H6    S    
C3    O1    A    
C8    C10   A    
C35   H32   S    
C6    O6    A    
C13   C16   T    
C31   H24   S    
C14   C15   T    
