data_mof_unit_19527.cif
_audit_creation_date              2013-03-05T15:57:26-0500
_audit_creation_method            fapswitch 2.2
_symmetry_space_group_name_H-M    P1
_symmetry_Int_Tables_number       1
_space_group_crystal_system       triclinic
_cell_length_a                    12.989048
_cell_length_b                    13.031463
_cell_length_c                    15.280922
_cell_angle_alpha                 116.910364
_cell_angle_beta                  63.682545
_cell_angle_gamma                 97.194782
_cell_volume                      2058.17872248

loop_
_atom_site_label
_atom_site_type_symbol
_atom_site_description
_atom_site_fract_x
_atom_site_fract_y
_atom_site_fract_z
_atom_type_partial_charge
C1    C     C_R   0.995344 0.831500 0.061354 -0.114629
H1    H     H_    0.024384 0.891269 0.120720 0.107993
N1    N     N_R   0.037320 0.720000 0.995830 -0.037236
C2    C     C_R   0.679065 0.470913 0.222837 -0.114902
H2    H     H_    0.608670 0.439518 0.201103 0.101096
N2    N     N_R   0.790770 0.446140 0.151990 -0.043407
C3    C     C_R   0.757954 0.516525 0.889727 -0.111286
H3    H     H_    0.784806 0.542021 0.825189 0.139479
N3    N     N_R   0.824900 0.517970 0.936430 -0.052646
C4    C     C_R   0.023608 0.694053 0.298552 -0.107705
H4    H     H_    0.008464 0.650134 0.347740 0.115955
N4    N     N_R   0.003190 0.648180 0.211390 -0.039218
C5    C     C_R   0.677229 0.420591 0.988417 -0.153269
H5    H     H_    0.632174 0.356291 0.013882 0.098447
N5    N     N_R   0.774330 0.457010 0.995830 -0.034307
C6    C     C_R   0.103260 0.794840 0.205403 -0.158637
H6    H     H_    0.159025 0.847572 0.170103 0.125828
N6    N     N_R   0.053760 0.709130 0.151980 -0.047362
C7    C     C_R   0.784002 0.560232 0.315578 -0.099403
H7    H     H_    0.812342 0.615585 0.376850 0.109395
N7    N     N_R   0.853840 0.498830 0.211390 -0.035821
C8    C     C_R   0.891849 0.746531 0.968175 -0.095870
H8    H     H_    0.824798 0.727415 0.941248 0.087000
N8    N     N_R   0.974250 0.667320 0.936430 -0.034934
C9    C     C_R   0.900724 0.850959 0.048801 -0.089864
C10   C     C_R   0.672968 0.543200 0.326752 0.029982
C11   C     C_R   0.664188 0.456113 0.921315 -0.006157
C12   C     C_R   0.089379 0.785570 0.296684 0.057822
C13   C     C_R   0.338605 0.517173 0.950377 -0.072202
H9    H     H_    0.395852 0.560060 0.904023 0.160837
N9    N     N_R   0.225670 0.542990 0.004170 -0.063412
C14   C     C_R   0.976646 0.179530 0.781862 -0.111872
H10   H     H_    0.956844 0.116013 0.810858 0.131090
N10   N     N_R   0.946240 0.290870 0.848020 -0.039288
C15   C     C_R   0.185227 0.528477 0.705741 0.461660
N11   N     N_R   0.146160 0.501170 0.788610 -0.096475
C16   C     C_R   0.042033 0.258263 0.095885 0.329662
N12   N     N_R   0.025750 0.332680 0.063570 -0.085204
C17   C     C_R   0.943691 0.174598 0.000643 -0.221592
H11   H     H_    0.883631 0.120109 0.973614 0.158890
N13   N     N_R   0.962680 0.280000 0.004170 -0.064990
C18   C     C_R   0.293831 0.601667 0.793485 -0.178550
H12   H     H_    0.346779 0.659341 0.828863 0.122270
N14   N     N_R   0.209230 0.553860 0.848010 -0.062293
C19   C     C_R   0.260292 0.413186 0.042800 -0.124434
H13   H     H_    0.251136 0.354117 0.076692 0.148984
N15   N     N_R   0.175100 0.482030 0.063570 -0.034963
C20   C     C_R   0.054039 0.276887 0.683184 -0.164557
H14   H     H_    0.100916 0.301004 0.617785 0.107376
N16   N     N_R   0.996810 0.351820 0.788610 -0.051215
Ni1   Ni    Ni4+2 0.130310 0.630310 0.000000 0.212916
Ni2   Ni    Ni4+2 0.869690 0.369690 0.000000 0.218748
Ni3   Ni    Ni4+2 0.985660 0.509480 0.863750 0.211597
Ni4   Ni    Ni4+2 0.014340 0.490520 0.136250 0.281962
C21   C     C_R   0.363367 0.432088 0.970142 0.147793
C22   C     C_R   0.042179 0.165793 0.676187 0.066135
C23   C     C_R   0.283142 0.586364 0.701441 0.003107
C24   C     C_R   0.993987 0.156305 0.056197 -0.016678
H15   H     H_    0.487257 0.941162 0.991623 0.099431
C25   C     C_R   0.446947 0.867537 0.102808 -0.068683
H16   H     H_    0.519346 0.801863 0.048456 0.118828
C26   C     C_R   0.370217 0.872574 0.204315 -0.121785
H17   H     H_    0.383844 0.810129 0.227572 0.115009
C27   C     C_R   0.275180 0.956656 0.274557 0.089501
C28   C     C_R   0.257934 0.034993 0.241506 -0.174827
H18   H     H_    0.180805 0.094101 0.290563 0.144195
C29   C     C_R   0.335046 0.030092 0.140271 -0.079614
H19   H     H_    0.320151 0.089451 0.114496 0.146149
C30   C     C_R   0.429256 0.946229 0.070853 -0.106472
C31   C     C_R   0.167289 0.054087 0.477355 -0.228233
H20   H     H_    0.210205 0.130559 0.476354 0.126001
C32   C     C_R   0.084945 0.054937 0.576367 0.066130
C33   C     C_R   0.041095 0.949288 0.575652 0.029970
C34   C     C_R   0.074293 0.850799 0.478206 -0.245298
H21   H     H_    0.036660 0.773250 0.481446 0.117414
C35   C     C_R   0.128949 0.859109 0.380331 0.058865
C36   C     C_R   0.189507 0.956239 0.378134 0.033076
C37   C     C_R   0.964662 0.894214 0.727765 -0.186763
H22   H     H_    0.051384 0.864485 0.704353 0.138665
C38   C     C_R   0.873581 0.894009 0.821246 -0.142429
H23   H     H_    0.890605 0.864506 0.869139 0.137624
C39   C     C_R   0.761364 0.933188 0.853134 -0.093282
H24   H     H_    0.691163 0.932336 0.925277 0.129762
C40   C     C_R   0.739904 0.973566 0.791752 -0.143097
H25   H     H_    0.652948 0.003566 0.816310 0.116378
C41   C     C_R   0.831039 0.976280 0.699267 -0.146698
H26   H     H_    0.814245 0.009683 0.653094 0.124851
C42   C     C_R   0.944130 0.938907 0.668454 0.096388
H27   H     H_    0.880336 0.491456 0.611559 0.093710
C43   C     C_R   0.775550 0.435661 0.524517 -0.005324
H28   H     H_    0.796372 0.344582 0.494763 0.110458
C44   C     C_R   0.697978 0.470711 0.500631 -0.067210
H29   H     H_    0.657871 0.405896 0.453589 0.115336
C45   C     C_R   0.668315 0.588993 0.541468 0.081554
C46   C     C_R   0.718834 0.671465 0.604840 -0.166608
H30   H     H_    0.695469 0.762744 0.638262 0.126351
C47   C     C_R   0.796972 0.635746 0.627831 -0.068412
H31   H     H_    0.835143 0.698625 0.677318 0.137497
C48   C     C_R   0.823480 0.518278 0.589624 -0.060903
C49   C     C_R   0.468278 0.659266 0.624863 -0.203046
H32   H     H_    0.473875 0.690055 0.700905 0.138891
C50   C     C_R   0.366127 0.620271 0.615884 0.077952
C51   C     C_R   0.363693 0.589069 0.514508 0.005951
C52   C     C_R   0.463716 0.588901 0.427266 -0.251220
H33   H     H_    0.460715 0.566520 0.350977 0.129355
C53   C     C_R   0.569404 0.590169 0.430289 0.074127
C54   C     C_R   0.571707 0.624163 0.531315 0.011313
C55   C     C_R   0.269058 0.410822 0.454532 -0.144825
H34   H     H_    0.332007 0.363782 0.454752 0.111459
C56   C     C_R   0.178915 0.354623 0.432309 -0.126110
H35   H     H_    0.170952 0.266015 0.418142 0.102652
C57   C     C_R   0.096559 0.414445 0.433147 0.036949
H36   H     H_    0.026061 0.370311 0.417293 0.150919
C58   C     C_R   0.104425 0.531057 0.455607 -0.065703
H37   H     H_    0.040747 0.576788 0.455432 0.111921
C59   C     C_R   0.192659 0.589056 0.481151 -0.116779
H38   H     H_    0.196885 0.680022 0.501039 0.105617
C60   C     C_R   0.272902 0.529625 0.484206 0.208369
C61   C     C_2   0.477490 0.388599 0.940975 -0.334250
H39   H     H_    0.477416 0.354576 0.993833 0.118216
C62   C     C_2   0.573665 0.425241 0.883693 0.331869
C63   C     C_2   0.814480 0.955393 0.121031 0.455179
C64   C     C_2   0.826220 0.045060 0.204284 -0.090006
H40   H     H_    0.897787 0.049381 0.223797 0.092259
O1    O     O_3   0.109905 0.548928 0.673383 -0.783143
H41   H     H_    0.039152 0.511076 0.698818 0.302834
N17   N     N_R   0.068445 0.293111 0.185917 0.207765
O2    O     O_R   0.062424 0.402490 0.249619 -0.485322
O3    O     O_R   0.089381 0.216269 0.209705 -0.483569
N18   N     N_R   0.582098 0.448052 0.797079 0.223396
O4    O     O_R   0.613431 0.546353 0.795847 -0.472101
O5    O     O_R   0.546445 0.375594 0.726000 -0.409721
O6    O     O_3   0.717154 0.962949 0.108594 -0.747786
H42   H     H_    0.712569 0.888634 0.051262 0.297436

loop_
_geom_bond_atom_site_label_1
_geom_bond_atom_site_label_2
_geom_bond_distance
_ccdc_geom_bond_type
C6    C12   1.384489 A    
C27   C36   1.479195 S    
C15   N11   1.334381 A    
C62   N18   1.439303 S    
C10   C53   1.459418 S    
C52   C53   1.391684 A    
C47   H31   1.076513 S    
C11   C62   1.465060 S    
C3    H3    1.080378 S    
C17   N13   1.345468 A    
C21   C61   1.453670 S    
C19   H13   1.076205 S    
C55   H34   1.083597 S    
C23   C50   1.490103 S    
C16   N12   1.344054 A    
C34   C35   1.392302 A    
H27   C48   1.081721 S    
C44   H29   1.083396 S    
C7    N7    1.321354 A    
C40   C41   1.396852 A    
N7    Ni4   1.870234 S    
C41   C42   1.405358 A    
C53   C54   1.413840 A    
C37   C42   1.400989 A    
C3    C11   1.385151 A    
C59   H38   1.083040 S    
C25   C26   1.398949 A    
C1    H1    1.078015 S    
C33   C34   1.374708 A    
C15   O1    1.373407 S    
C7    C10   1.376292 A    
C56   H35   1.074490 S    
C57   H36   1.080120 S    
C26   C27   1.405653 A    
N11   Ni3   1.870234 S    
C46   H30   1.082095 S    
C55   C56   1.391127 A    
C6    H6    1.073432 S    
C22   C32   1.475542 S    
C8    C9    1.397172 A    
C31   H20   1.082195 S    
C13   H9    1.074339 S    
C9    C63   1.500372 S    
N13   Ni2   1.821626 S    
C16   C24   1.386047 A    
C19   N15   1.345209 A    
N9    N15   1.371042 A    
C5    H5    1.080005 S    
C31   C36   1.400793 A    
C1    C9    1.393834 A    
N1    N8    1.385898 A    
C50   C51   1.426945 A    
C18   N14   1.332823 A    
C18   C23   1.396313 A    
C57   C58   1.399141 A    
C52   H33   1.084110 S    
C47   C48   1.395528 A    
N6    Ni1   1.867141 S    
C58   H37   1.079883 S    
C61   C62   1.346887 D    
C2    C10   1.402955 A    
C45   C54   1.479804 S    
N10   N16   1.371045 A    
N16   Ni3   1.830900 S    
C34   H21   1.078317 S    
C29   H19   1.082469 S    
C55   C60   1.403653 A    
C64   H40   1.083367 S    
C35   C36   1.409825 A    
N12   N13   1.385897 A    
C2    N2    1.337772 A    
C17   H11   1.079287 S    
N1    Ni1   1.821626 S    
C41   H26   1.083109 S    
C38   H23   1.073226 S    
C13   C21   1.379368 A    
C28   C29   1.397534 A    
N8    Ni3   1.829970 S    
C17   C24   1.384999 A    
C25   H16   1.082691 S    
C1    N1    1.344807 A    
C14   N10   1.320961 A    
N18   O5    1.301484 A    
N17   O3    1.301614 A    
C33   C42   1.470683 S    
C26   H17   1.083259 S    
C43   C44   1.396198 A    
N12   Ni4   1.829970 S    
C44   C45   1.406644 A    
N5    Ni2   1.822575 S    
C40   H25   1.082302 S    
C63   O6    1.380252 S    
C4    N4    1.324567 A    
H15   C30   1.081256 S    
N15   Ni4   1.869832 S    
N14   Ni1   1.867579 S    
C38   C39   1.397902 A    
C20   H14   1.079368 S    
C39   H24   1.078949 S    
C39   C40   1.396295 A    
C5    N5    1.325484 A    
O1    H41   0.991075 S    
C8    N8    1.345183 A    
N11   N14   1.385914 A    
C51   C60   1.461466 S    
N3    Ni3   1.869833 S    
C18   H12   1.078207 S    
N17   O2    1.299936 A    
C12   C35   1.471961 S    
C43   C48   1.395804 A    
C49   C50   1.402483 A    
C4    C12   1.380924 A    
C20   C22   1.396319 A    
C49   C54   1.384464 A    
C37   H22   1.083268 S    
N9    Ni1   1.822575 S    
C32   C33   1.419686 A    
C58   C59   1.396338 A    
C61   H39   1.082759 S    
C46   C47   1.397397 A    
N10   Ni2   1.867142 S    
C15   C23   1.386127 A    
N2    Ni2   1.867578 S    
C14   H10   1.060763 S    
C7    H7    1.077135 S    
N18   O4    1.300546 A    
N3    N5    1.371043 A    
C13   N9    1.320925 A    
C27   C28   1.404162 A    
N2    N7    1.385913 A    
C43   H28   1.082351 S    
O6    H42   0.986285 S    
C25   C30   1.398072 A    
C20   N16   1.340684 A    
C49   H32   1.077997 S    
C59   C60   1.402277 A    
C37   C38   1.394402 A    
C45   C46   1.402888 A    
C56   C57   1.392808 A    
C4    H4    1.077643 S    
C3    N3    1.341572 A    
C2    H2    1.079969 S    
C19   C21   1.390251 A    
C6    N6    1.336974 A    
C28   H18   1.078725 S    
N4    N6    1.371044 A    
C51   C52   1.388343 A    
C8    H8    1.077258 S    
C5    C11   1.377562 A    
C31   C32   1.409299 A    
C29   C30   1.397020 A    
C63   C64   1.337476 D    
C14   C22   1.386332 A    
N4    Ni4   1.830899 S    
C16   N17   1.424982 S    
