data_mof_unit_61160.cif
_audit_creation_date              2012-12-10T18:33:52-0500
_audit_creation_method            fapswitch 2.2
_symmetry_space_group_name_H-M    P1
_symmetry_Int_Tables_number       1
_space_group_crystal_system       triclinic
_cell_length_a                    15.061925
_cell_length_b                    13.890344
_cell_length_c                    10.933784
_cell_angle_alpha                 89.999795
_cell_angle_beta                  91.304788
_cell_angle_gamma                 89.998754
_cell_volume                      2286.92198297

loop_
_atom_site_label
_atom_site_type_symbol
_atom_type_description
_atom_site_fract_x
_atom_site_fract_y
_atom_site_fract_z
_atom_type_partial_charge
C1    C     C_R   0.330115 0.500030 0.500931 0.845851
C2    C     C_R   0.669889 0.500029 0.499038 0.845748
C3    C     C_R   0.048572 0.500137 0.500568 0.048139
C4    C     C_R   0.951448 0.500131 0.499322 0.048144
C5    C     C_R   0.556671 0.105131 0.579236 0.145308
C6    C     C_R   0.443319 0.105140 0.420758 0.145253
C7    C     C_R   0.556028 0.207491 0.578192 0.359090
C8    C     C_R   0.443963 0.207500 0.421811 0.359111
C9    C     C_R   0.499995 0.053027 0.499995 -0.135265
C10   C     C_R   0.443842 0.892186 0.576527 -0.184711
C11   C     C_R   0.556150 0.892184 0.423467 -0.184674
C12   C     C_R   0.444859 0.790698 0.575162 0.098949
C13   C     C_R   0.555138 0.790697 0.424836 0.099088
C14   C     C_R   0.499994 0.944452 0.499994 0.218373
C15   C     C_R   0.498870 0.500036 0.265217 0.884415
C16   C     C_R   0.501129 0.500036 0.734783 0.884675
C17   C     C_2   0.497858 0.420984 0.932987 -0.105069
C18   C     C_2   0.502118 0.420983 0.067012 -0.105293
C19   C     C_2   0.505713 0.501611 0.866860 -0.267903
C20   C     C_2   0.494283 0.501613 0.133139 -0.268043
C21   C     C_R   0.096057 0.538986 0.600647 -0.150761
C22   C     C_R   0.903956 0.539522 0.399597 -0.150786
C23   C     C_R   0.188593 0.539957 0.601753 0.243088
C24   C     C_R   0.811418 0.540485 0.398509 0.243271
C25   C     C_R   0.233798 0.500195 0.502624 -0.079272
C26   C     C_R   0.766215 0.500194 0.497307 -0.079524
C27   C     C_R   0.186324 0.460497 0.403365 -0.183114
C28   C     C_R   0.813705 0.459958 0.596201 -0.183227
C29   C     C_R   0.094005 0.461187 0.401777 -0.127128
C30   C     C_R   0.906023 0.460635 0.597768 -0.127247
Cu1   Cu    Cu3+1 0.500000 0.596430 0.500000 1.008702
Cu2   Cu    Cu3+1 0.500000 0.403570 0.500000 1.040476
H1    H     H_    0.489405 0.351722 0.888067 0.200850
H2    H     H_    0.510554 0.351718 0.111930 0.200836
H3    H     H_    0.401294 0.751418 0.634582 0.165889
H4    H     H_    0.598704 0.751418 0.365420 0.166200
H5    H     H_    0.517685 0.571286 0.908233 0.159874
H6    H     H_    0.482324 0.571291 0.091767 0.159945
H7    H     H_    0.061124 0.569334 0.677131 0.173771
H8    H     H_    0.938882 0.570289 0.323375 0.173794
H9    H     H_    0.220757 0.430365 0.326370 0.187660
H10   H     H_    0.779289 0.429425 0.672952 0.188064
H11   H     H_    0.057963 0.430549 0.324235 0.163772
H12   H     H_    0.942070 0.429569 0.675027 0.163825
H13   H     H_    0.399534 0.929670 0.636911 0.166154
H14   H     H_    0.600459 0.929668 0.363084 0.166205
N1    N     N_R   0.500000 0.258690 0.500000 -0.261335
N2    N     N_R   0.500000 0.741330 0.500000 -0.192478
O1    O     O_R   0.371460 0.581430 0.500010 -0.571496
O2    O     O_R   0.628540 0.581430 0.499990 -0.571284
O3    O     O_R   0.371470 0.418560 0.500010 -0.545028
O4    O     O_R   0.628530 0.418560 0.499990 -0.545210
O5    O     O_R   0.500000 0.581410 0.321940 -0.581805
O6    O     O_R   0.500000 0.581410 0.678060 -0.581839
O7    O     O_R   0.500010 0.418540 0.321940 -0.554944
O8    O     O_R   0.499990 0.418540 0.678060 -0.554871
Br1   Br    Br    0.250409 0.592976 0.741716 -0.511027
Br2   Br    Br    0.749613 0.594178 0.258951 -0.511086
Br3   Br    Br    0.635286 0.035105 0.689317 -0.392532
Br4   Br    Br    0.364702 0.035125 0.310674 -0.392560
Br5   Br    Br    0.636690 0.271417 0.690383 -0.427711
Br6   Br    Br    0.363273 0.271441 0.309657 -0.427297

loop_
_geom_bond_atom_site_label_1
_geom_bond_atom_site_label_2
_ccdc_geom_bond_type
C13   N2    A    
C9    C14   S    
C16   O8    A    
Cu2   O3    S    
C5    C9    A    
C27   C29   A    
C4    C22   A    
C19   H5    S    
C27   H9    S    
Cu2   O7    S    
C26   C28   A    
Cu1   Cu2   S    
C21   H7    S    
C12   N2    A    
C22   H8    S    
C10   H13   S    
C28   C30   A    
C17   C18   S    
C8    N1    A    
C4    C30   A    
C2    C26   S    
C15   O7    A    
C29   H11   S    
C12   H3    S    
C1    C25   S    
C11   C13   A    
C30   H12   S    
C7    Br5   S    
C2    O4    A    
Cu1   O1    S    
C16   C19   S    
C23   Br1   S    
C18   H2    S    
C10   C12   A    
C17   H1    S    
C17   C19   D    
C24   C26   A    
C18   C20   D    
Cu1   N2    S    
C23   C25   A    
Cu1   O6    S    
C15   C20   S    
Cu2   N1    S    
C22   C24   A    
C3    C21   A    
C25   C27   A    
C5    Br3   S    
Cu1   O2    S    
C3    C4    S    
C15   O5    A    
C6    Br4   S    
C6    C9    A    
C20   H6    S    
C13   H4    S    
C24   Br2   S    
C10   C14   A    
C16   O6    A    
C28   H10   S    
C11   C14   A    
C5    C7    A    
Cu2   O4    S    
C3    C29   A    
C6    C8    A    
C1    O3    A    
C2    O2    A    
C1    O1    A    
C21   C23   A    
Cu2   O8    S    
Cu1   O5    S    
C8    Br6   S    
C11   H14   S    
C7    N1    A    
