data_mof_unit_32041.cif
_audit_creation_date              2012-12-10T17:21:19-0500
_audit_creation_method            fapswitch 2.2
_symmetry_space_group_name_H-M    P1
_symmetry_Int_Tables_number       1
_space_group_crystal_system       triclinic
_cell_length_a                    9.640343
_cell_length_b                    10.796359
_cell_length_c                    13.870611
_cell_angle_alpha                 94.095971
_cell_angle_beta                  84.996318
_cell_angle_gamma                 89.787746
_cell_volume                      1434.41487972

loop_
_atom_site_label
_atom_site_type_symbol
_atom_type_description
_atom_site_fract_x
_atom_site_fract_y
_atom_site_fract_z
_atom_type_partial_charge
C1    C     C_R   0.498694 0.737757 0.508199 0.776898
C2    C     C_1   0.464200 0.498401 0.785925 -0.160309
C3    C     C_R   0.281859 0.883793 0.635090 -0.275716
C4    C     C_R   0.174265 0.953166 0.688098 0.056348
C5    C     C_R   0.173965 0.082396 0.686563 -0.114100
C6    C     C_R   0.280172 0.141775 0.633712 -0.228928
C7    C     C_R   0.387365 0.073094 0.577348 0.103669
C8    C     C_R   0.387541 0.941673 0.577296 0.113559
C9    C     C_R   0.497804 0.872984 0.523035 -0.087448
C10   C     C_R   0.614267 0.934545 0.483825 -0.217595
C11   C     C_R   0.616531 0.062136 0.487689 -0.200910
C12   C     C_R   0.477480 0.500367 0.682791 0.784356
C13   C     C_R   0.499127 0.131622 0.525303 -0.108724
C14   C     C_R   0.884518 0.366809 0.339793 0.497173
C15   C     C_R   0.977841 0.348972 0.254990 -0.419681
C16   C     C_R   0.118386 0.337071 0.262861 -0.032443
C17   C     C_R   0.167037 0.362980 0.353114 -0.122918
C18   C     C_R   0.085277 0.432292 0.427025 0.112365
C19   C     C_R   0.936101 0.433099 0.424188 0.118090
C20   C     C_R   0.917159 0.563480 0.570380 -0.053742
C21   C     C_R   0.064604 0.563808 0.570064 -0.042735
C22   C     C_R   0.499075 0.264039 0.509570 0.804463
C23   C     C_R   0.522379 0.502876 0.317475 0.851560
C24   C     C_1   0.535316 0.508570 0.214673 -0.126796
C25   C     C_2   0.555359 0.516537 0.024619 -0.157428
C26   C     C_2   0.443481 0.493595 0.976297 -0.126876
C27   C     C_1   0.453737 0.496254 0.872721 -0.001033
C28   C     C_1   0.545460 0.512727 0.128060 0.032228
Cu1   Cu    Cu3+1 0.359340 0.500010 0.500010 0.935286
Cu2   Cu    Cu3+1 0.640660 0.499990 0.499990 0.983692
H1    H     H_    0.343939 0.472184 0.014161 0.164251
H2    H     H_    0.942685 0.324996 0.184214 0.130966
H3    H     H_    0.269389 0.330935 0.362172 0.220294
H4    H     H_    0.111826 0.616147 0.627673 0.113376
H5    H     H_    0.654965 0.537695 0.986749 0.153178
H6    H     H_    0.702853 0.883782 0.446665 0.169428
H7    H     H_    0.284450 0.785200 0.643261 0.141255
H8    H     H_    0.093667 0.138267 0.728810 0.175198
H9    H     H_    0.279329 0.241899 0.641599 0.174802
H10   H     H_    0.707662 0.105921 0.454352 0.203546
H11   H     H_    0.855132 0.616084 0.628092 0.140603
N1    N     N_R   0.852210 0.498790 0.499090 -0.187959
N2    N     N_R   0.148080 0.498710 0.499060 -0.182726
O1    O     O_R   0.381190 0.680360 0.500010 -0.579317
O2    O     O_R   0.618760 0.680340 0.500000 -0.583256
O3    O     O_R   0.364420 0.499990 0.637850 -0.597013
O4    O     O_R   0.601990 0.499960 0.637840 -0.575650
O5    O     O_R   0.381240 0.319660 0.500000 -0.620131
O6    O     O_R   0.618810 0.319640 0.499990 -0.509411
O7    O     O_R   0.398010 0.500040 0.362160 -0.579692
O8    O     O_R   0.635580 0.500010 0.362150 -0.542961
O9    O     O_3   0.758410 0.302336 0.346339 -0.545262
C29   C     C_3   0.725380 0.237731 0.258122 0.019366
H12   H     H_    0.805343 0.164952 0.233384 0.149764
H13   H     H_    0.716293 0.304188 0.201294 0.158314
C30   C     C_3   0.586257 0.172326 0.269931 -0.727036
H14   H     H_    0.506499 0.233907 0.311112 0.259976
H15   H     H_    0.551641 0.145786 0.197107 0.244728
H16   H     H_    0.596625 0.085226 0.305976 0.217387
C31   C     C_2   0.210634 0.290671 0.176948 0.368031
H17   H     H_    0.166882 0.262779 0.109294 0.073865
O10   O     O_2   0.336373 0.284493 0.179872 -0.588964
C32   C     C_2   0.065056 0.889340 0.747121 0.346745
H18   H     H_    0.069552 0.789337 0.750464 0.045559
O11   O     O_2   0.968780 0.947391 0.792756 -0.543557

loop_
_geom_bond_atom_site_label_1
_geom_bond_atom_site_label_2
_ccdc_geom_bond_type
C22   O5    A    
C23   C24   S    
C32   O11   D    
Cu1   Cu2   S    
C6    H9    S    
C9    C10   A    
C1    O1    A    
C23   O8    A    
C4    C32   S    
C30   H16   S    
C7    C13   A    
Cu1   O3    S    
Cu2   O8    S    
C2    C12   S    
C17   C18   A    
C3    C4    A    
C1    C9    S    
C26   H1    S    
C29   H12   S    
Cu1   N2    S    
C25   C28   S    
C20   N1    A    
C11   C13   A    
C19   N1    A    
C1    O2    A    
C26   C27   S    
C2    C27   T    
C17   H3    S    
C25   H5    S    
C12   O4    A    
C5    C6    A    
C12   O3    A    
Cu2   O6    S    
C30   H15   S    
C13   C22   S    
C20   H11   S    
C6    C7    A    
Cu2   N1    S    
Cu1   O7    S    
C29   H13   S    
Cu1   O1    S    
C11   H10   S    
C3    C8    A    
C16   C17   A    
C10   C11   A    
Cu1   O5    S    
C32   H18   S    
C24   C28   T    
Cu2   O4    S    
C7    C8    A    
C5    H8    S    
C20   C21   A    
C3    H7    S    
C31   O10   D    
C18   C19   A    
C16   C31   S    
C29   C30   S    
C18   N2    A    
C30   H14   S    
C14   C15   A    
C8    C9    A    
C23   O7    A    
C10   H6    S    
C21   H4    S    
Cu2   O2    S    
C25   C26   D    
C21   N2    A    
C4    C5    A    
C14   C19   A    
C14   O9    S    
C22   O6    A    
C15   C16   A    
O9    C29   S    
C31   H17   S    
C15   H2    S    
