data_mof_unit_17507.cif
_audit_creation_date              2012-10-26T18:47:55-0400
_audit_creation_method            fapswitch 2.2
_symmetry_space_group_name_H-M    P1
_symmetry_Int_Tables_number       1
_space_group_crystal_system       triclinic
_cell_length_a                    15.881689
_cell_length_b                    8.72315
_cell_length_c                    7.468601
_cell_angle_alpha                 102.782927
_cell_angle_beta                  95.263685
_cell_angle_gamma                 92.287816
_cell_volume                      1002.85457154

loop_
_atom_site_label
_atom_site_type_symbol
_atom_type_description
_atom_site_fract_x
_atom_site_fract_y
_atom_site_fract_z
_atom_type_partial_charge
C1    C     C_R   0.493200 0.200222 0.453449 0.535142
C2    C     C_2   0.502767 0.967096 0.567519 -0.149093
C3    C     C_R   0.340422 0.500143 0.500564 0.551781
C4    C     C_R   0.500779 0.799771 0.545744 0.545948
C5    C     C_R   0.659588 0.500170 0.499479 0.553002
C6    C     C_3   0.054615 0.419426 0.645485 -0.111426
C7    C     C_3   0.038312 0.427286 0.305636 -0.224719
C8    C     C_3   0.941012 0.411732 0.314172 -0.109150
C9    C     C_1   0.749030 0.501555 0.500407 0.031278
C10   C     C_3   0.083434 0.509418 0.499264 -0.000156
C11   C     C_1   0.439445 0.947710 0.247194 0.243495
C12   C     C_3   0.957428 0.431425 0.658620 0.095963
C13   C     C_1   0.079409 0.254215 0.606201 0.249147
C14   C     C_1   0.893747 0.459476 0.157594 0.158119
C15   C     C_1   0.097184 0.768520 0.732848 0.236644
C16   C     C_1   0.923296 0.787093 0.697179 0.188855
C17   C     C_3   0.917321 0.507669 0.503842 0.018722
C18   C     C_3   0.955854 0.681371 0.537290 -0.104184
C19   C     C_3   0.055862 0.684662 0.547564 0.194686
C20   C     C_1   0.824593 0.503905 0.503765 0.028057
C21   C     C_1   0.175725 0.505664 0.497669 -0.057803
C22   C     C_1   0.251121 0.502876 0.500215 -0.002380
C23   C     C_2   0.480093 0.033373 0.426260 -0.060947
Cu1   Cu    Cu3+1 0.509300 0.517380 0.684380 1.015204
Cu2   Cu    Cu3+1 0.490700 0.482620 0.315620 1.007911
H1    H     H_    0.088090 0.475682 0.783324 0.083800
H2    H     H_    0.929222 0.257917 0.771744 0.346050
H3    H     H_    0.143776 0.777963 0.426205 0.342946
H4    H     H_    0.949355 0.511178 0.793400 0.149323
H5    H     H_    0.932039 0.728202 0.416320 0.185276
H6    H     H_    0.527723 0.038050 0.702159 0.137534
H7    H     H_    0.434969 0.375942 0.948035 0.243017
H8    H     H_    0.564987 0.624134 0.051981 0.248457
H9    H     H_    0.054366 0.494984 0.201907 0.170281
H10   H     H_    0.061775 0.308013 0.258280 0.139012
H11   H     H_    0.922022 0.285158 0.300781 0.186660
N1    N     N_2   0.476670 0.456430 0.038530 -0.247408
N2    N     N_2   0.523330 0.543570 0.961470 -0.240169
N3    N     N_1   0.407067 0.880303 0.104768 -0.249503
N4    N     N_1   0.098908 0.125370 0.575705 -0.225313
N5    N     N_1   0.854686 0.497523 0.038084 -0.278530
N6    N     N_1   0.129334 0.833485 0.876464 -0.258477
N7    N     N_1   0.897858 0.869440 0.821617 -0.246888
O1    O     O_R   0.506050 0.286130 0.619770 -0.516240
O2    O     O_3   0.080931 0.766492 0.415772 -0.679177
O3    O     O_R   0.490330 0.256780 0.308370 -0.494863
O4    O     O_R   0.387300 0.514690 0.655770 -0.494768
O5    O     O_R   0.371580 0.485340 0.344370 -0.493271
O6    O     O_R   0.509670 0.743220 0.691630 -0.485240
O7    O     O_R   0.493950 0.713870 0.380230 -0.499150
O8    O     O_R   0.628420 0.514660 0.655630 -0.483163
O9    O     O_R   0.612700 0.485310 0.344230 -0.501951
O10   O     O_3   0.915513 0.283973 0.649915 -0.672340

loop_
_geom_bond_atom_site_label_1
_geom_bond_atom_site_label_2
_ccdc_geom_bond_type
C12   C17   S    
C6    C10   S    
C7    C10   S    
C2    C4    S    
H2    O10   S    
C5    O9    A    
C5    C9    S    
N1    N2    D    
C18   H5    S    
C12   H4    S    
C10   C19   S    
C9    C20   T    
Cu1   N2    S    
H8    N2    S    
C16   N7    T    
C4    O6    A    
Cu1   O8    S    
C19   O2    S    
C17   C18   S    
Cu2   O9    S    
C7    C8    S    
C21   C22   T    
C6    C13   S    
C11   N3    T    
Cu2   O5    S    
C6    H1    S    
C12   O10   S    
C14   N5    T    
C3    O4    A    
C1    C23   S    
C10   C21   S    
C6    C12   S    
Cu1   O1    S    
C7    H9    S    
C1    O3    A    
H7    N1    S    
C3    O5    A    
Cu1   O6    S    
C17   C20   S    
Cu1   Cu2   S    
C16   C18   S    
C18   C19   S    
C8    H11   S    
C11   C23   S    
C2    C23   D    
H3    O2    S    
Cu2   O7    S    
C5    O8    A    
C3    C22   S    
C8    C14   S    
C1    O1    A    
Cu2   N1    S    
C15   C19   S    
Cu1   O4    S    
C7    H10   S    
Cu2   O3    S    
C8    C17   S    
C15   N6    T    
C4    O7    A    
C2    H6    S    
C13   N4    T    
