data_mof_unit_15445.cif
_audit_creation_date              2013-03-05T15:46:46-0500
_audit_creation_method            fapswitch 2.2
_symmetry_space_group_name_H-M    P1
_symmetry_Int_Tables_number       1
_space_group_crystal_system       triclinic
_cell_length_a                    10.164362
_cell_length_b                    10.64721
_cell_length_c                    12.70208
_cell_angle_alpha                 91.117231
_cell_angle_beta                  108.857689
_cell_angle_gamma                 95.164463
_cell_volume                      1293.85659043

loop_
_atom_site_label
_atom_site_type_symbol
_atom_site_description
_atom_site_fract_x
_atom_site_fract_y
_atom_site_fract_z
_atom_type_partial_charge
O1    O     O_R   0.936910 0.692950 0.509080 -0.602259
O2    O     O_R   0.138320 0.658600 0.480130 -0.643340
C1    C     C_R   0.053765 0.734044 0.497466 0.939639
O3    O     O_R   0.002900 0.525670 0.675280 -0.538194
O4    O     O_R   0.204310 0.491320 0.646330 -0.611634
C2    C     C_R   0.138361 0.522769 0.712378 0.925659
Zn1   Zn    Zn3+2 0.865520 0.522940 0.519330 1.040398
Zn2   Zn    Zn3+2 0.134480 0.477060 0.480670 1.039398
O5    O     O_R   0.861680 0.341400 0.519870 -0.581542
O6    O     O_R   0.063090 0.307050 0.490920 -0.545843
O7    O     O_R   0.795690 0.508680 0.353670 -0.633910
O8    O     O_R   0.997100 0.474330 0.324720 -0.631245
C3    C     C_R   0.953735 0.267579 0.514846 0.979804
C4    C     C_R   0.865089 0.483279 0.287838 0.860713
C5    C     C_R   0.760184 0.382494 0.982829 -0.118777
H1    H     H_    0.802461 0.339519 0.924485 0.221489
C6    C     C_R   0.789120 0.459562 0.169610 -0.130221
C7    C     C_R   0.156323 0.582146 0.910885 -0.025106
C8    C     C_R   0.222105 0.565598 0.023646 -0.212374
C9    C     C_R   0.353376 0.522697 0.060758 -0.128605
C10   C     C_R   0.428818 0.504600 0.986784 0.085255
C11   C     C_R   0.363923 0.519910 0.872158 0.041180
C12   C     C_R   0.568107 0.471920 0.023428 0.042996
C13   C     C_R   0.629785 0.429668 0.945863 0.004826
C14   C     C_R   0.566328 0.447447 0.833441 0.285938
C15   C     C_R   0.445835 0.508055 0.801414 -0.216936
C16   C     C_R   0.651152 0.489577 0.134112 -0.215060
C17   C     C_R   0.843587 0.400591 0.093731 -0.084135
C18   C     C_R   0.220905 0.546521 0.832417 -0.110310
H2    H     H_    0.612351 0.536128 0.192574 0.157529
H3    H     H_    0.393831 0.504867 0.148202 0.136270
H4    H     H_    0.171884 0.587527 0.084155 0.116048
H5    H     H_    0.424348 0.550843 0.722599 0.169070
H6    H     H_    0.940560 0.891983 0.593945 0.222821
C19   C     C_2   0.094381 0.868843 0.516935 -0.366987
C20   C     C_2   0.026190 0.935778 0.569183 -0.219698
H7    H     H_    0.833019 0.086316 0.507347 0.154620
C21   C     C_2   0.937706 0.135652 0.538196 -0.322746
C22   C     C_2   0.049957 0.071681 0.581758 -0.015741
H8    H     H_    0.178740 0.912697 0.490843 0.167737
H9    H     H_    0.569965 0.428252 0.417939 0.183166
H10   H     H_    0.428855 0.604235 0.544718 0.096630
N1    N     N_2   0.313640 0.446500 0.454900 -0.001593
C23   C     C_2   0.430766 0.519062 0.497258 -0.061170
H11   H     H_    0.681527 0.620114 0.603359 0.197559
N2    N     N_2   0.686360 0.553430 0.545150 -0.161246
C24   C     C_2   0.568328 0.495490 0.482575 -0.002652
C25   C     C_2   0.987646 0.363437 0.122942 0.467268
H12   H     H_    0.075446 0.422546 0.178763 0.106977
O9    O     O_2   0.010677 0.267773 0.080112 -0.516759
N3    N     N_R   0.317760 0.328652 0.406593 0.277740
O10   O     O_R   0.205995 0.276695 0.330579 -0.364226
O11   O     O_R   0.413503 0.256268 0.456188 -0.357979
N4    N     N_R   0.629062 0.415207 0.752006 0.173633
O12   O     O_R   0.568692 0.323533 0.678478 -0.328504
O13   O     O_R   0.754643 0.463434 0.761089 -0.437629
C26   C     C_2   0.023982 0.642072 0.881305 0.504976
H13   H     H_    0.955611 0.627195 0.931246 0.061888
O14   O     O_2   0.994655 0.715324 0.806351 -0.564509
C27   C     C_2   0.194838 0.129837 0.641007 0.566528
H14   H     H_    0.283195 0.077977 0.644508 0.075450
O15   O     O_2   0.216559 0.231797 0.692353 -0.552276

loop_
_geom_bond_atom_site_label_1
_geom_bond_atom_site_label_2
_geom_bond_distance
_ccdc_geom_bond_type
O4    Zn2   1.989289 S    
N1    C23   1.306838 D    
Zn2   N1    2.004266 S    
H7    C21   1.087909 S    
C11   C18   1.433053 A    
C12   C16   1.385071 A    
Zn2   O8    2.019158 S    
N4    O12   1.299115 A    
C15   H5    1.073241 S    
C19   C20   1.340374 D    
C23   C24   1.510872 S    
C1    C19   1.450851 S    
C12   C13   1.413808 A    
C8    C9    1.386623 A    
C25   O9    1.221417 D    
O2    C1    1.293100 A    
H9    C24   1.083933 S    
C7    C18   1.421708 A    
O1    Zn1   1.911508 S    
C10   C11   1.410451 A    
C9    C10   1.411854 A    
C16   H2    1.078330 S    
Zn1   O7    1.989289 S    
C4    C6    1.454553 S    
N1    N3    1.395959 S    
C3    C21   1.447011 S    
C21   C22   1.348469 D    
H10   C23   1.084248 S    
C14   N4    1.430491 S    
O3    Zn1   2.019158 S    
C22   C27   1.489847 S    
O3    C2    1.306749 A    
C5    C13   1.398657 A    
C14   C15   1.382876 A    
O8    C4    1.283513 A    
C19   H8    1.086622 S    
H6    C20   1.087906 S    
C10   C12   1.418156 A    
C27   O15   1.220157 D    
O4    C2    1.287742 A    
O7    C4    1.294911 A    
N4    O13   1.300304 A    
C26   O14   1.221031 D    
C8    H4    1.083463 S    
C5    C17   1.388604 A    
C5    H1    1.082258 S    
C6    C16   1.396283 A    
Zn1   N2    2.004376 S    
C2    C18   1.487466 S    
C13   C14   1.388576 A    
Zn2   O6    1.911510 S    
C7    C8    1.393399 A    
C11   C15   1.419411 A    
O2    Zn2   1.929962 S    
Zn1   O5    1.929965 S    
O5    C3    1.290881 A    
N2    C24   1.297251 D    
C25   H12   1.080594 S    
C7    C26   1.481506 S    
N3    O11   1.302118 A    
C26   H13   1.086059 S    
H11   N2    1.030766 S    
C6    C17   1.419014 A    
O6    C3    1.282079 A    
C20   C22   1.442488 S    
C17   C25   1.482235 S    
N3    O10   1.298389 A    
C27   H14   1.085296 S    
O1    C1    1.283042 A    
C9    H3    1.079743 S    
