data_mof_unit_37400.cif
_audit_creation_date              2012-12-11T15:06:43-0500
_audit_creation_method            fapswitch 2.2
_symmetry_space_group_name_H-M    P1
_symmetry_Int_Tables_number       1
_space_group_crystal_system       triclinic
_cell_length_a                    7.256592
_cell_length_b                    14.813871
_cell_length_c                    22.491824
_cell_angle_alpha                 90.000023
_cell_angle_beta                  90.000029
_cell_angle_gamma                 88.925517
_cell_volume                      2417.40584982

loop_
_atom_site_label
_atom_site_type_symbol
_atom_type_description
_atom_site_fract_x
_atom_site_fract_y
_atom_site_fract_z
_atom_type_partial_charge
O1    O     O_R   0.390810 0.844810 0.447340 -0.526427
O2    O     O_R   0.109190 0.155190 0.947340 -0.526427
O3    O     O_R   0.890810 0.655190 0.552660 -0.528104
O4    O     O_R   0.609190 0.344810 0.052660 -0.528104
O5    O     O_R   0.720550 0.655820 0.440420 -0.519519
O6    O     O_R   0.779450 0.344180 0.940420 -0.519519
O7    O     O_R   0.220550 0.844180 0.559580 -0.524397
O8    O     O_R   0.279450 0.155820 0.059580 -0.524397
C1    C     C_R   0.553997 0.626215 0.426410 0.716733
C2    C     C_R   0.946003 0.373785 0.926410 0.716734
C3    C     C_R   0.051169 0.873414 0.573640 0.726869
C4    C     C_R   0.448831 0.126586 0.073641 0.726869
O9    O     O_R   0.720530 0.844130 0.440420 -0.543676
O10   O     O_R   0.779470 0.155870 0.940420 -0.543676
O11   O     O_R   0.220530 0.655870 0.559580 -0.542874
O12   O     O_R   0.279470 0.344130 0.059580 -0.542874
O13   O     O_R   0.890830 0.844810 0.552660 -0.546442
O14   O     O_R   0.609170 0.155190 0.052660 -0.546443
O15   O     O_R   0.390830 0.655190 0.447340 -0.535702
O16   O     O_R   0.109170 0.344810 0.947340 -0.535702
C5    C     C_R   0.550820 0.873764 0.426574 0.673882
C6    C     C_R   0.949180 0.126236 0.926574 0.673881
C7    C     C_R   0.053577 0.626667 0.573858 0.689631
C8    C     C_R   0.446423 0.373333 0.073858 0.689631
O17   O     O_3   0.557310 0.749980 0.536820 -0.380039
O18   O     O_3   0.942690 0.250020 0.036820 -0.380039
O19   O     O_3   0.057310 0.750020 0.463180 -0.373667
O20   O     O_3   0.442690 0.249980 0.963180 -0.373666
V1    V     V_3+5 0.832160 0.749980 0.493170 1.468378
V2    V     V_3+5 0.667840 0.250020 0.993170 1.468377
V3    V     V_3+5 0.332160 0.750020 0.506830 1.472620
V4    V     V_3+5 0.167840 0.249980 0.006830 1.472619
C9    C     C_R   0.837106 0.599992 0.856201 -0.227549
C10   C     C_R   0.662894 0.400008 0.356201 -0.227549
C11   C     C_R   0.482622 0.891248 0.137068 -0.226259
C12   C     C_R   0.017377 0.108752 0.637069 -0.226262
H1    H     H_    0.814020 0.720668 0.769767 0.125513
H2    H     H_    0.685981 0.279332 0.269767 0.125513
H3    H     H_    0.552912 0.768195 0.219800 0.125917
H4    H     H_    0.947087 0.231805 0.719800 0.125917
H5    H     H_    0.764878 0.662073 0.868277 0.136956
H6    H     H_    0.735122 0.337927 0.368277 0.136956
H7    H     H_    0.478886 0.822318 0.120985 0.129018
H8    H     H_    0.021113 0.177682 0.620985 0.129019
C13   C     C_R   0.944945 0.449761 0.883734 -0.124816
C14   C     C_R   0.555055 0.550238 0.383734 -0.124816
C15   C     C_R   0.461152 0.051591 0.116617 -0.119588
C16   C     C_R   0.038848 0.948409 0.616617 -0.119586
C17   C     C_R   0.115611 0.464854 0.597404 -0.050956
C18   C     C_R   0.384389 0.535145 0.097404 -0.050956
C19   C     C_R   0.507480 0.038499 0.407649 -0.055303
C20   C     C_R   0.992521 0.961500 0.907649 -0.055304
C21   C     C_R   0.148434 0.395903 0.638388 -0.175813
C22   C     C_R   0.351565 0.604097 0.138388 -0.175813
C23   C     C_R   0.485470 0.111810 0.369361 -0.161088
C24   C     C_R   0.014531 0.888190 0.869361 -0.161088
C25   C     C_R   0.116400 0.409647 0.698770 -0.178118
C26   C     C_R   0.383600 0.590353 0.198771 -0.178118
C27   C     C_R   0.486333 0.099698 0.308034 -0.179185
C28   C     C_R   0.013667 0.900302 0.808034 -0.179186
C29   C     C_R   0.040767 0.492019 0.720073 0.103059
C30   C     C_R   0.459233 0.507980 0.220073 0.103059
C31   C     C_R   0.510637 0.013110 0.282608 0.099938
C32   C     C_R   0.989363 0.986890 0.782608 0.099938
C33   C     C_R   0.009736 0.563509 0.678112 0.059432
C34   C     C_R   0.490264 0.436491 0.178112 0.059432
C35   C     C_R   0.536206 0.937748 0.321807 0.063965
C36   C     C_R   0.963793 0.062252 0.821807 0.063965
C37   C     C_R   0.990824 0.504981 0.781321 0.083202
C38   C     C_R   0.509176 0.495019 0.281321 0.083202
C39   C     C_R   0.502054 0.998515 0.219642 0.086057
C40   C     C_R   0.997946 0.001485 0.719642 0.086057
C41   C     C_R   0.904692 0.587893 0.798285 0.073907
C42   C     C_R   0.595308 0.412107 0.298285 0.073908
C43   C     C_R   0.509486 0.908667 0.197768 0.073873
C44   C     C_R   0.990513 0.091333 0.697769 0.073873
C45   C     C_R   0.879650 0.657353 0.756830 -0.182690
C46   C     C_R   0.620350 0.342647 0.256830 -0.182689
C47   C     C_R   0.540284 0.836432 0.236675 -0.179046
C48   C     C_R   0.959715 0.163568 0.736675 -0.179046
C49   C     C_R   0.933585 0.646001 0.698013 -0.196536
C50   C     C_R   0.566415 0.353999 0.198013 -0.196537
C51   C     C_R   0.554852 0.850548 0.297557 -0.185026
C52   C     C_R   0.945147 0.149451 0.797557 -0.185026
C53   C     C_R   0.015428 0.437503 0.825928 -0.288081
C54   C     C_R   0.484572 0.562496 0.325928 -0.288081
C55   C     C_R   0.484263 0.069605 0.177465 -0.296652
C56   C     C_R   0.015737 0.930395 0.677465 -0.296652
C57   C     C_R   0.852786 0.531212 0.898443 0.472371
C58   C     C_R   0.647214 0.468788 0.398443 0.472372
C59   C     C_R   0.455625 0.961994 0.096616 0.475420
C60   C     C_R   0.044375 0.038006 0.596616 0.475422
C61   C     C_R   0.053684 0.550559 0.616894 -0.125941
C62   C     C_R   0.446316 0.449441 0.116894 -0.125940
C63   C     C_R   0.536553 0.950871 0.384571 -0.127232
C64   C     C_R   0.963447 0.049129 0.884571 -0.127233
H9    H     H_    0.080646 0.373119 0.816586 0.121414
H10   H     H_    0.419354 0.626881 0.316587 0.121414
H11   H     H_    0.488567 0.139589 0.190325 0.113839
H12   H     H_    0.011433 0.860411 0.690324 0.113839
H13   H     H_    0.149386 0.353644 0.727537 0.117032
H14   H     H_    0.350613 0.646355 0.227538 0.117032
H15   H     H_    0.460898 0.159323 0.281749 0.121685
H16   H     H_    0.039103 0.840677 0.781749 0.121685
H17   H     H_    0.200085 0.330572 0.623530 0.130677
H18   H     H_    0.299914 0.669428 0.123531 0.130677
H19   H     H_    0.463241 0.179198 0.387122 0.130881
H20   H     H_    0.036761 0.820802 0.887122 0.130882
H21   H     H_    0.908812 0.701676 0.667740 0.111561
H22   H     H_    0.591188 0.298324 0.167740 0.111561
H23   H     H_    0.576718 0.791955 0.325626 0.102444
H24   H     H_    0.923281 0.208045 0.825626 0.102444
O21   O     O_3   0.758129 0.540513 0.951520 -0.544375
C65   C     C_3   0.879224 0.572527 0.995272 -0.215218
H25   H     H_    0.949155 0.635166 0.980832 0.139765
H26   H     H_    0.981596 0.519211 0.007806 0.136367
H27   H     H_    0.798079 0.589390 0.035710 0.161239
O22   O     O_3   0.741871 0.459487 0.451520 -0.544375
C66   C     C_3   0.620776 0.427473 0.495271 -0.215219
H28   H     H_    0.550847 0.364833 0.480832 0.139765
H29   H     H_    0.518402 0.480789 0.507805 0.136367
H30   H     H_    0.701921 0.410611 0.535710 0.161240
O23   O     O_3   0.405019 0.943263 0.038754 -0.546560
C67   C     C_3   0.564505 0.925571 0.004965 -0.229577
H31   H     H_    0.649433 0.986988 0.001843 0.143091
H32   H     H_    0.522428 0.907454 0.959139 0.166750
H33   H     H_    0.646156 0.867549 0.023223 0.144558
O24   O     O_3   0.094982 0.056738 0.538754 -0.546560
C68   C     C_3   0.935498 0.074432 0.504965 -0.229583
H34   H     H_    0.850582 0.013013 0.501835 0.143094
H35   H     H_    0.977578 0.092562 0.459142 0.166752
H36   H     H_    0.853833 0.132446 0.523227 0.144555
C69   C     C_1   0.142219 0.445599 0.534961 0.297416
N1    N     N_1   0.162136 0.430129 0.484908 -0.332169
C70   C     C_1   0.357780 0.554400 0.034961 0.297416
N2    N     N_1   0.337864 0.569871 0.984908 -0.332169
C71   C     C_1   0.494753 0.054709 0.470861 0.298410
N3    N     N_1   0.485195 0.067736 0.521511 -0.325243
C72   C     C_1   0.005250 0.945291 0.970861 0.298410
N4    N     N_1   0.014808 0.932263 0.021511 -0.325243

loop_
_geom_bond_atom_site_label_1
_geom_bond_atom_site_label_2
_ccdc_geom_bond_type
O17   V3    S    
C39   C43   A    
C26   C30   A    
O1    C5    A    
C23   C27   A    
O19   V1    S    
O13   V1    S    
O3    C7    A    
C10   H6    S    
C21   H17   S    
C48   C52   A    
O15   V3    S    
O24   C68   S    
C14   C54   A    
C65   H25   S    
C70   N2    T    
C11   C59   A    
C35   C51   A    
C11   C43   A    
C36   C64   A    
C50   H22   S    
O9    V1    S    
C68   H34   S    
C9    C57   A    
C18   C70   S    
O16   V4    S    
O4    C8    A    
C25   H13   S    
C58   O22   S    
O1    V3    S    
C20   C72   S    
C30   C38   A    
O2    V4    S    
O3    V1    S    
C38   C42   A    
C24   H20   S    
C12   C44   A    
O22   C66   S    
C1    O15   A    
C2    O16   A    
C19   C63   A    
O2    C6    A    
C16   C56   A    
C37   C41   A    
C26   H14   S    
C11   H7    S    
O5    V1    S    
C40   C44   A    
C34   C62   A    
C68   H36   S    
C12   C60   A    
O11   C7    A    
C1    C14   S    
O12   C8    A    
C59   O23   S    
C35   C63   A    
C3    C16   S    
C6    C64   S    
O10   V2    S    
C4    C15   S    
C60   O24   S    
C40   C56   A    
C57   O21   S    
C66   H29   S    
C31   C35   A    
O7    V3    S    
C22   H18   S    
O8    V4    S    
O23   C67   S    
C30   C34   A    
O18   V4    S    
C18   C62   A    
H2    C46   S    
H1    C45   S    
C7    C61   S    
C23   H19   S    
C36   C52   A    
O7    C3    A    
C10   C58   A    
O5    C1    A    
C8    C62   S    
C34   C50   A    
C46   C50   A    
C33   C49   A    
C45   C49   A    
O8    C4    A    
C2    C13   S    
H4    C48   S    
O9    C5    A    
C52   H24   S    
C66   H28   S    
C25   C29   A    
C56   H12   S    
C10   C42   A    
C67   H33   S    
C39   C55   A    
C19   C71   S    
C9    C41   A    
O6    V2    S    
C31   C39   A    
C16   C60   A    
C69   N1    T    
C51   H23   S    
C12   H8    S    
C38   C54   A    
C32   C36   A    
C37   C53   A    
C67   H32   S    
O21   C65   S    
C22   C26   A    
C66   H30   S    
C29   C37   A    
C17   C69   S    
C3    O13   A    
C21   C25   A    
C13   C57   A    
C15   C59   A    
C44   C48   A    
C49   H21   S    
O6    C2    A    
C65   H26   S    
C72   N4    T    
O11   V3    S    
C14   C58   A    
O12   V4    S    
C5    C63   S    
C71   N3    T    
C27   C31   A    
C13   C53   A    
C28   C32   A    
C9    H5    S    
O10   C6    A    
O20   V2    S    
C27   H15   S    
C18   C22   A    
C47   C51   A    
C17   C21   A    
C33   C61   A    
C20   C64   A    
C19   C23   A    
C32   C40   A    
C54   H10   S    
C65   H27   S    
C53   H9    S    
O14   V2    S    
C55   H11   S    
C29   C33   A    
C24   C28   A    
C42   C46   A    
C4    O14   A    
C41   C45   A    
C17   C61   A    
C28   H16   S    
C43   C47   A    
O4    V2    S    
C20   C24   A    
H3    C47   S    
C67   H31   S    
C68   H35   S    
C15   C55   A    
