data_mof_unit_37912.cif
_audit_creation_date              2012-12-10T17:06:39-0500
_audit_creation_method            fapswitch 2.2
_symmetry_space_group_name_H-M    P1
_symmetry_Int_Tables_number       1
_space_group_crystal_system       triclinic
_cell_length_a                    15.842558
_cell_length_b                    10.943217
_cell_length_c                    9.900365
_cell_angle_alpha                 109.853246
_cell_angle_beta                  98.053307
_cell_angle_gamma                 92.781401
_cell_volume                      1589.94318461

loop_
_atom_site_label
_atom_site_type_symbol
_atom_type_description
_atom_site_fract_x
_atom_site_fract_y
_atom_site_fract_z
_atom_type_partial_charge
C1    C     C_R   0.499700 0.254267 0.443062 0.776363
C2    C     C_R   0.506192 0.745889 0.557987 0.763196
C3    C     C_2   0.547462 0.082047 0.536069 0.360432
C4    C     C_2   0.553273 0.942395 0.515020 0.361738
C5    C     C_2   0.512048 0.503240 0.076406 0.300520
C6    C     C_2   0.492869 0.485339 0.918522 0.319751
C7    C     C_R   0.340176 0.499916 0.500824 0.812021
C8    C     C_R   0.659798 0.500116 0.499196 0.804850
C9    C     C_3   0.973850 0.410041 0.556864 0.072626
C10   C     C_3   0.025814 0.589163 0.442593 0.069361
C11   C     C_3   0.016924 0.380485 0.419872 0.355943
C12   C     C_3   0.982755 0.618712 0.579576 0.349488
C13   C     C_1   0.250696 0.500286 0.502552 -0.119085
C14   C     C_1   0.749193 0.499533 0.497374 -0.123639
C15   C     C_3   0.039736 0.530781 0.636792 0.361943
C16   C     C_3   0.959931 0.468430 0.362681 0.359039
C17   C     C_3   0.083308 0.500444 0.500389 -0.163562
C18   C     C_3   0.916418 0.498782 0.499083 -0.161250
C19   C     C_1   0.175136 0.500381 0.502309 0.176465
C20   C     C_1   0.824684 0.499150 0.497393 0.167549
C21   C     C_2   0.514084 0.116078 0.420591 0.200582
C22   C     C_2   0.507332 0.887112 0.588033 0.224752
Cu1   Cu    Cu3+1 0.514700 0.521810 0.644910 1.026932
Cu2   Cu    Cu3+1 0.485300 0.478190 0.355090 1.032756
H1    H     H_    0.582252 0.628718 0.928314 0.216428
H2    H     H_    0.407264 0.391209 0.076903 0.221268
N1    N     N_2   0.463210 0.445420 0.137360 -0.296398
N2    N     N_2   0.536790 0.554580 0.862640 -0.298181
O1    O     O_R   0.507840 0.332340 0.577400 -0.493858
O2    O     O_R   0.492160 0.667660 0.422600 -0.513095
O3    O     O_R   0.483020 0.295500 0.332650 -0.580568
O4    O     O_R   0.516980 0.704500 0.667350 -0.587031
O5    O     O_R   0.391490 0.518400 0.622350 -0.537115
O6    O     O_R   0.608510 0.481600 0.377650 -0.525208
O7    O     O_R   0.366660 0.481570 0.377600 -0.569058
O8    O     O_R   0.633340 0.518430 0.622400 -0.573782
O9    O     O_3   0.042716 0.260740 0.334630 -0.557461
C23   C     C_3   0.974000 0.161386 0.290789 -0.201824
H3    H     H_    0.910410 0.195876 0.267372 0.157943
H4    H     H_    0.973357 0.114930 0.374299 0.224301
H5    H     H_    0.984393 0.084845 0.189019 0.171975
O10   O     O_3   0.956823 0.738376 0.664742 -0.570055
C24   C     C_3   0.025428 0.837891 0.708605 -0.207113
H6    H     H_    0.026019 0.884304 0.625050 0.225348
H7    H     H_    0.089065 0.803580 0.732143 0.167348
H8    H     H_    0.014924 0.914415 0.810305 0.172291
Br1   Br    Br    0.932915 0.287784 0.642797 -0.578299
Br2   Br    Br    0.066220 0.711443 0.356353 -0.542838
O11   O     O_3   0.910667 0.439141 0.223067 -0.555907
C25   C     C_3   0.962286 0.394222 0.114682 -0.162297
H9    H     H_    0.967152 0.288139 0.087724 0.176479
H10   H     H_    0.027545 0.447722 0.144793 0.180209
H11   H     H_    0.930890 0.408296 0.014383 0.194083
O12   O     O_3   0.088842 0.560128 0.776530 -0.552406
C26   C     C_3   0.037033 0.604881 0.884661 -0.145304
H12   H     H_    0.971781 0.551329 0.854262 0.174183
H13   H     H_    0.032133 0.710963 0.911673 0.176840
H14   H     H_    0.068272 0.590730 0.985004 0.197573
O13   O     O_3   0.598473 0.867002 0.411871 -0.547718
C27   C     C_3   0.683826 0.924342 0.439269 -0.249598
H15   H     H_    0.687307 0.018877 0.420649 0.131644
H16   H     H_    0.720489 0.858513 0.362364 0.235111
H17   H     H_    0.715870 0.936534 0.551167 0.144509
O14   O     O_3   0.564497 0.173528 0.677033 -0.528602
C28   C     C_3   0.648039 0.168881 0.744897 -0.248133
H18   H     H_    0.653403 0.077461 0.769474 0.152874
H19   H     H_    0.662224 0.251539 0.850276 0.210722
H20   H     H_    0.696697 0.181086 0.678331 0.143637
O15   O     O_3   0.467253 0.966434 0.697878 -0.562460
C29   C     C_3   0.384422 0.909099 0.691970 -0.236399
H21   H     H_    0.387697 0.830928 0.739946 0.167573
H22   H     H_    0.347715 0.870766 0.578919 0.152388
H23   H     H_    0.348474 0.985274 0.758415 0.214162
O16   O     O_3   0.489344 0.019011 0.284617 -0.569681
C30   C     C_3   0.537473 0.039496 0.182996 -0.177240
H24   H     H_    0.603640 0.087662 0.232513 0.107949
H25   H     H_    0.502806 0.096586 0.123485 0.196727
H26   H     H_    0.543860 0.943045 0.101381 0.200271
Br3   Br    Br    0.402573 0.352050 0.798547 -0.419765
Br4   Br    Br    0.615935 0.610293 0.183587 -0.455210

loop_
_geom_bond_atom_site_label_1
_geom_bond_atom_site_label_2
_ccdc_geom_bond_type
C26   H12   S    
C1    C21   S    
Cu2   N1    S    
C24   H6    S    
C3    O14   S    
H1    N2    S    
H2    N1    S    
C27   H17   S    
Cu1   O1    S    
C2    O4    A    
C5    C6    S    
C10   C17   S    
Cu1   O8    S    
C1    O3    A    
C4    C22   D    
C27   H16   S    
C8    O8    A    
C30   H25   S    
C12   O10   S    
C5    N1    D    
C6    N2    D    
C28   H19   S    
C2    C22   S    
C25   H10   S    
Cu1   Cu2   S    
C29   H21   S    
C22   O15   S    
O13   C27   S    
C7    O5    A    
C24   H8    S    
C25   H11   S    
O16   C30   S    
C13   C19   T    
Cu2   O7    S    
C15   O12   S    
C14   C20   T    
C16   O11   S    
C23   H5    S    
Cu1   O5    S    
C21   O16   S    
Cu2   O6    S    
C27   H15   S    
C30   H24   S    
O9    C23   S    
C24   H7    S    
C11   C16   S    
C12   C15   S    
C28   H20   S    
C29   H23   S    
C1    O1    A    
C25   H9    S    
C8    O6    A    
Cu1   N2    S    
C5    Br4   S    
C9    C11   S    
C10   C12   S    
C9    Br1   S    
C26   H13   S    
C10   Br2   S    
O11   C25   S    
C3    C21   D    
O10   C24   S    
C3    C4    S    
C11   O9    S    
C15   C17   S    
O12   C26   S    
C11   C17   S    
C8    C14   S    
C7    O7    A    
C2    O2    A    
Cu1   O4    S    
C9    C15   S    
Cu2   O3    S    
C10   C16   S    
O14   C28   S    
C23   H4    S    
C6    Br3   S    
C23   H3    S    
C4    O13   S    
C17   C19   S    
C18   C20   S    
O15   C29   S    
C30   H26   S    
Cu2   O2    S    
C9    C18   S    
C7    C13   S    
C16   C18   S    
C28   H18   S    
C26   H14   S    
C12   C18   S    
C29   H22   S    
