data_mof_unit_62674.cif
_audit_creation_date              2012-10-26T21:03:16-0400
_audit_creation_method            fapswitch 2.2
_symmetry_space_group_name_H-M    P1
_symmetry_Int_Tables_number       1
_space_group_crystal_system       triclinic
_cell_length_a                    14.327088
_cell_length_b                    8.76154
_cell_length_c                    7.488996
_cell_angle_alpha                 103.281236
_cell_angle_beta                  94.217149
_cell_angle_gamma                 91.81459
_cell_volume                      911.311029587

loop_
_atom_site_label
_atom_site_type_symbol
_atom_type_description
_atom_site_fract_x
_atom_site_fract_y
_atom_site_fract_z
_atom_type_partial_charge
C1    C     C_R   0.496158 0.200270 0.454339 0.583318
C2    C     C_1   0.957221 0.499966 0.498702 0.021216
C3    C     C_2   0.480934 0.034776 0.435140 0.167554
C4    C     C_2   0.519066 0.965224 0.564859 0.167553
C5    C     C_3   0.378128 0.245076 0.960948 0.008634
C6    C     C_3   0.621873 0.754923 0.039052 0.008634
C7    C     C_R   0.503842 0.799729 0.545661 0.583318
C8    C     C_R   0.331266 0.499783 0.501657 0.534165
C9    C     C_R   0.668734 0.500217 0.498343 0.534165
C10   C     C_1   0.229040 0.500052 0.504453 0.005550
C11   C     C_1   0.770960 0.499948 0.495547 0.005550
C12   C     C_1   0.143558 0.500088 0.503849 -0.010881
C13   C     C_1   0.856442 0.499912 0.496151 -0.010881
C14   C     C_1   0.042779 0.500034 0.501298 0.021216
Cl1   Cl    Cl    0.396800 0.940398 0.254149 -0.638328
Cl2   Cl    Cl    0.603200 0.059602 0.745851 -0.638328
Cu1   Cu    Cu3+1 0.509570 0.517380 0.684380 1.123121
Cu2   Cu    Cu3+1 0.490430 0.482620 0.315620 1.123121
H1    H     H_    0.343574 0.246042 0.088703 0.165900
H2    H     H_    0.442891 0.177869 0.956153 0.182965
H3    H     H_    0.328983 0.181801 0.844111 0.114664
H4    H     H_    0.557110 0.822130 0.043847 0.182964
H5    H     H_    0.656427 0.753956 0.911298 0.165899
H6    H     H_    0.671017 0.818197 0.155890 0.114663
N1    N     N_2   0.476020 0.456430 0.038520 0.123281
N2    N     N_2   0.523980 0.543570 0.961480 0.123281
O1    O     O_R   0.506220 0.286130 0.619770 -0.458036
O2    O     O_3   0.605019 0.601354 0.059652 -0.470520
O3    O     O_R   0.493780 0.713870 0.380230 -0.458037
O4    O     O_R   0.490060 0.256780 0.308370 -0.515705
O5    O     O_R   0.509940 0.743220 0.691630 -0.515704
O6    O     O_R   0.384130 0.514680 0.655740 -0.448591
O7    O     O_R   0.615870 0.485320 0.344260 -0.448591
O8    O     O_R   0.367980 0.485330 0.344330 -0.488306
O9    O     O_R   0.632020 0.514670 0.655670 -0.488306
O10   O     O_3   0.394981 0.398644 0.940347 -0.470520

loop_
_geom_bond_atom_site_label_1
_geom_bond_atom_site_label_2
_ccdc_geom_bond_type
C4    Cl2   S    
C5    H1    S    
Cu2   O8    S    
N2    O2    S    
C6    H6    S    
C6    H4    S    
Cu1   Cu2   S    
C5    H3    S    
C5    H2    S    
C8    O8    A    
C9    O7    A    
C9    C11   S    
Cu2   N1    S    
C10   C12   T    
C4    C7    S    
Cu2   O4    S    
Cu1   N2    S    
C8    C10   S    
C1    O4    A    
Cu1   O5    S    
C12   C14   S    
C2    C14   T    
Cu2   O7    S    
C9    O9    A    
C7    O5    A    
Cu1   O6    S    
C6    H5    S    
N1    O10   S    
C7    O3    A    
C8    O6    A    
C5    O10   S    
C11   C13   T    
C3    Cl1   S    
C1    O1    A    
Cu2   O3    S    
C2    C13   S    
Cu1   O9    S    
N1    N2    D    
C6    O2    S    
C3    C4    D    
C1    C3    S    
Cu1   O1    S    
