data_mof_unit_10352.cif
_audit_creation_date              2012-10-26T18:26:37-0400
_audit_creation_method            fapswitch 2.2
_symmetry_space_group_name_H-M    P1
_symmetry_Int_Tables_number       1
_space_group_crystal_system       triclinic
_cell_length_a                    15.837571
_cell_length_b                    8.693023
_cell_length_c                    7.452772
_cell_angle_alpha                 103.015018
_cell_angle_beta                  93.956305
_cell_angle_gamma                 92.216218
_cell_volume                      995.777311287

loop_
_atom_site_label
_atom_site_type_symbol
_atom_type_description
_atom_site_fract_x
_atom_site_fract_y
_atom_site_fract_z
_atom_type_partial_charge
C1    C     C_R   0.497482 0.199741 0.453267 0.547323
C2    C     C_3   0.976495 0.648528 0.565083 -0.099330
C3    C     C_1   0.250508 0.500383 0.508155 -0.030929
C4    C     C_1   0.749492 0.499617 0.491845 -0.030929
C5    C     C_3   0.032150 0.552738 0.673238 0.026171
C6    C     C_3   0.967850 0.447262 0.326762 0.026171
C7    C     C_3   0.083181 0.500249 0.505188 0.052518
C8    C     C_3   0.916819 0.499751 0.494812 0.052518
C9    C     C_1   0.174950 0.500462 0.508735 -0.061396
C10   C     C_1   0.825050 0.499538 0.491265 -0.061396
C11   C     C_3   0.930657 0.386511 0.128710 -0.409286
C12   C     C_R   0.502518 0.800259 0.546732 0.547323
C13   C     C_3   0.069343 0.613489 0.871290 -0.409286
C14   C     C_R   0.339982 0.499880 0.502662 0.549712
C15   C     C_R   0.660018 0.500120 0.497338 0.549712
C16   C     C_2   0.496270 0.031837 0.427031 -0.155997
C17   C     C_2   0.503730 0.968163 0.572968 -0.155997
C18   C     C_3   0.971398 0.404676 0.605285 -0.100736
C19   C     C_3   0.028602 0.595324 0.394715 -0.100736
C20   C     C_3   0.023505 0.351472 0.434916 -0.099330
Cu1   Cu    Cu3+1 0.509330 0.517380 0.684380 0.960943
Cu2   Cu    Cu3+1 0.490670 0.482620 0.315620 0.960943
H1    H     H_    0.489241 0.960250 0.286384 0.134896
H2    H     H_    0.887804 0.280502 0.119416 0.136754
H3    H     H_    0.894364 0.479719 0.083690 0.137831
H4    H     H_    0.017350 0.645702 0.962775 0.123284
H5    H     H_    0.105635 0.520281 0.916310 0.137831
H6    H     H_    0.112196 0.719498 0.880583 0.136754
H7    H     H_    0.510759 0.039750 0.713616 0.134896
H8    H     H_    0.434432 0.377579 0.948829 0.240027
H9    H     H_    0.565568 0.622421 0.051171 0.240027
H10   H     H_    0.043683 0.230013 0.380475 0.101561
H11   H     H_    0.956317 0.769987 0.619525 0.101561
H12   H     H_    0.946872 0.327098 0.691815 0.100476
H13   H     H_    0.053128 0.672901 0.308185 0.100476
H14   H     H_    0.982650 0.354298 0.037225 0.123284
N1    N     N_2   0.476600 0.456420 0.038510 -0.255525
N2    N     N_2   0.523400 0.543580 0.961490 -0.255525
O1    O     O_R   0.506070 0.286130 0.619780 -0.505834
O2    O     O_R   0.493930 0.713870 0.380220 -0.505834
O3    O     O_R   0.490300 0.256770 0.308360 -0.498017
O4    O     O_R   0.509700 0.743230 0.691640 -0.498018
O5    O     O_R   0.386960 0.514660 0.655680 -0.499883
O6    O     O_R   0.613040 0.485340 0.344320 -0.499883
O7    O     O_R   0.371190 0.485310 0.344260 -0.494563
O8    O     O_R   0.628810 0.514690 0.655740 -0.494563

loop_
_geom_bond_atom_site_label_1
_geom_bond_atom_site_label_2
_ccdc_geom_bond_type
C12   C17   S    
C12   O2    A    
C6    C8    S    
C13   H6    S    
N1    N2    D    
C3    C9    T    
C16   H1    S    
C6    C20   S    
C5    C13   S    
Cu1   O1    S    
H9    N2    S    
Cu2   O2    S    
C4    C15   S    
C1    C16   S    
C19   H13   S    
Cu1   Cu2   S    
C6    C19   S    
C18   H12   S    
C16   C17   D    
C3    C14   S    
C2    H11   S    
C1    O3    A    
C11   H14   S    
C15   O6    A    
Cu1   O8    S    
C14   O7    A    
C7    C19   S    
C8    C18   S    
C13   H4    S    
Cu2   O3    S    
C1    O1    A    
C4    C10   T    
Cu1   O4    S    
C2    C5    S    
C7    C9    S    
C11   H2    S    
Cu2   O7    S    
C17   H7    S    
C18   C20   S    
C8    C10   S    
C7    C20   S    
C20   H10   S    
C2    C8    S    
C6    C11   S    
C5    C7    S    
C11   H3    S    
C13   H5    S    
C12   O4    A    
C5    C18   S    
C15   O8    A    
C2    C19   S    
Cu1   O5    S    
Cu2   N1    S    
Cu2   O6    S    
Cu1   N2    S    
H8    N1    S    
C14   O5    A    
