data_mof_unit_7996.cif
_audit_creation_date              2013-03-05T16:12:45-0500
_audit_creation_method            fapswitch 2.2
_symmetry_space_group_name_H-M    P1
_symmetry_Int_Tables_number       1
_space_group_crystal_system       triclinic
_cell_length_a                    10.716204
_cell_length_b                    9.905804
_cell_length_c                    27.59414
_cell_angle_alpha                 89.210164
_cell_angle_beta                  91.172406
_cell_angle_gamma                 89.915964
_cell_volume                      2928.29420525

loop_
_atom_site_label
_atom_site_type_symbol
_atom_site_description
_atom_site_fract_x
_atom_site_fract_y
_atom_site_fract_z
_atom_type_partial_charge
O1    O     O_R   0.316770 0.614620 0.500000 -0.625222
O2    O     O_R   0.683230 0.385380 0.500000 -0.604425
O3    O     O_R   0.683230 0.614620 0.500000 -0.619308
O4    O     O_R   0.316770 0.385380 0.500000 -0.600400
C1    C     C_R   0.260094 0.500180 0.500385 0.858668
C2    C     C_R   0.739911 0.500122 0.499593 0.860082
O5    O     O_R   0.500030 0.614650 0.428760 -0.586142
O6    O     O_R   0.499970 0.385350 0.571240 -0.604964
O7    O     O_R   0.499970 0.614650 0.571240 -0.590940
O8    O     O_R   0.500030 0.385350 0.428760 -0.620695
C3    C     C_R   0.498011 0.500471 0.406309 0.864051
C4    C     C_R   0.499768 0.499110 0.593840 0.868461
Zn1   Zn    Zn3+2 0.500000 0.653120 0.500000 0.971952
Zn2   Zn    Zn3+2 0.500000 0.346880 0.500000 0.976173
C5    C     C_R   0.350697 0.466152 0.177248 0.531478
C6    C     C_R   0.583565 0.546884 0.824074 0.530979
O9    O     O_2   0.260043 0.400753 0.201344 -0.567792
O10   O     O_2   0.681863 0.598828 0.800363 -0.562462
N1    N     N_R   0.448322 0.522819 0.202277 -0.356050
N2    N     N_R   0.486717 0.490993 0.798570 -0.359223
C7    C     C_R   0.539157 0.593900 0.179088 0.503456
C8    C     C_R   0.387381 0.433729 0.821093 0.505057
C9    C     C_R   0.559116 0.442250 0.275614 -0.088873
C10   C     C_R   0.420232 0.589012 0.720737 -0.102801
C11   C     C_R   0.572655 0.438173 0.325828 -0.236766
C12   C     C_R   0.423845 0.591502 0.670440 -0.235494
C13   C     C_R   0.377144 0.559949 0.332654 -0.243000
C14   C     C_R   0.565772 0.399849 0.672898 -0.224985
C15   C     C_R   0.364283 0.565616 0.282486 -0.100736
C16   C     C_R   0.562415 0.397758 0.723213 -0.096300
C17   C     C_R   0.456210 0.508506 0.253824 0.301990
C18   C     C_R   0.489574 0.492259 0.747039 0.319272
C19   C     C_R   0.444507 0.534844 0.101851 -0.059776
C20   C     C_R   0.475961 0.499911 0.898703 -0.058353
C21   C     C_R   0.345815 0.473805 0.126480 -0.067787
C22   C     C_R   0.580445 0.551259 0.874743 -0.071508
C23   C     C_R   0.242218 0.427460 0.100302 -0.265910
C24   C     C_R   0.682257 0.598902 0.901602 -0.266190
C25   C     C_R   0.539192 0.600777 0.128504 -0.001140
C26   C     C_R   0.380768 0.435896 0.871629 -0.001751
C27   C     C_R   0.483431 0.500730 0.354167 -0.017108
C28   C     C_R   0.496668 0.496894 0.646417 -0.037114
H1    H     H_    0.305179 0.603092 0.354747 0.147369
H2    H     H_    0.623962 0.327808 0.654774 0.149885
H3    H     H_    0.284290 0.616214 0.265873 0.152920
H4    H     H_    0.616418 0.323361 0.743739 0.137996
H5    H     H_    0.161034 0.395780 0.120034 0.182512
H6    H     H_    0.766770 0.624091 0.882828 0.184927
C29   C     C_R   0.362232 0.454182 0.973314 0.085571
C30   C     C_R   0.551326 0.590354 0.026816 0.086224
C31   C     C_R   0.566285 0.571511 0.976440 -0.051340
C32   C     C_R   0.349275 0.469693 0.024126 -0.049446
C33   C     C_R   0.467622 0.509952 0.949638 0.001334
C34   C     C_R   0.448493 0.530826 0.050720 0.000018
C35   C     C_R   0.278349 0.375102 0.945600 -0.153029
C36   C     C_R   0.632383 0.673730 0.054038 -0.145824
C37   C     C_R   0.284328 0.370742 0.895574 -0.176157
C38   C     C_R   0.629345 0.675130 0.104156 -0.172200
O11   O     O_2   0.295677 0.375035 0.794593 -0.557419
O12   O     O_2   0.629287 0.657222 0.204995 -0.563735
C39   C     C_R   0.239069 0.431055 0.049238 0.441102
C40   C     C_R   0.679414 0.604907 0.952435 0.438908
H7    H     H_    0.369045 0.666030 0.650284 0.152939
H8    H     H_    0.653504 0.389192 0.342500 0.143356
H9    H     H_    0.363966 0.662061 0.739350 0.138625
H10   H     H_    0.629630 0.396561 0.253527 0.146141
H11   H     H_    0.214936 0.312542 0.875874 0.189910
H12   H     H_    0.697380 0.735600 0.123653 0.188996
H13   H     H_    0.210324 0.309973 0.961758 0.191157
H14   H     H_    0.696573 0.742458 0.037219 0.185159
C41   C     C_R   0.063867 0.378068 0.499433 -0.200046
C42   C     C_R   0.935967 0.623902 0.501395 -0.188543
C43   C     C_R   0.936363 0.378343 0.497129 -0.211053
C44   C     C_R   0.063858 0.623927 0.501757 -0.197072
H15   H     H_    0.111965 0.282057 0.499952 0.167023
H16   H     H_    0.887413 0.719752 0.502793 0.150171
H17   H     H_    0.888411 0.282909 0.493960 0.162482
H18   H     H_    0.112278 0.719815 0.503014 0.153200
C45   C     C_R   0.872474 0.500844 0.499144 -0.009704
C46   C     C_R   0.127545 0.500775 0.500761 -0.008695
C47   C     C_R   0.568243 0.071118 0.534051 0.173403
C48   C     C_R   0.436802 0.929625 0.464467 0.166003
C49   C     C_R   0.431269 0.074411 0.466051 0.171035
C50   C     C_R   0.566002 0.926168 0.534808 0.160776
N3    N     N_R   0.500000 0.857200 0.500000 -0.134934
N4    N     N_R   0.500000 0.142800 0.500000 -0.137209
N5    N     N_2   0.635180 0.143751 0.570074 -0.245288
H19   H     H_    0.595794 0.141935 0.603778 0.218956
C51   C     C_3   0.770017 0.135575 0.570084 -0.784350
H20   H     H_    0.804382 0.069624 0.600337 0.222021
H21   H     H_    0.809117 0.237863 0.575748 0.253052
H22   H     H_    0.804299 0.095508 0.535345 0.221436
N6    N     N_2   0.382788 0.859169 0.424836 -0.253494
H23   H     H_    0.287100 0.865742 0.421924 0.215319
C52   C     C_3   0.446681 0.876721 0.379335 -0.715326
H24   H     H_    0.446266 0.983083 0.366907 0.211514
H25   H     H_    0.398515 0.818707 0.350660 0.233383
H26   H     H_    0.544878 0.841425 0.383070 0.256072
N7    N     N_2   0.360399 0.150859 0.431173 -0.246232
H27   H     H_    0.404517 0.176385 0.399575 0.238822
C53   C     C_3   0.227505 0.127682 0.426709 -0.795893
H28   H     H_    0.206332 0.067106 0.394027 0.230851
H29   H     H_    0.179383 0.226196 0.421749 0.251758
H30   H     H_    0.190977 0.075734 0.459447 0.221796
N8    N     N_2   0.638459 0.851065 0.569497 -0.247137
H31   H     H_    0.733548 0.857889 0.565293 0.215036
C54   C     C_3   0.599181 0.855840 0.619368 -0.718357
H32   H     H_    0.645071 0.940057 0.638731 0.211981
H33   H     H_    0.628238 0.761140 0.638329 0.253524
H34   H     H_    0.496125 0.866165 0.621413 0.232047
O13   O     O_3   0.125614 0.422211 0.023717 -0.624752
C55   C     C_3   0.047024 0.319418 0.041935 0.070066
H35   H     H_    0.994044 0.357730 0.073125 0.170912
H36   H     H_    0.100625 0.226996 0.052937 0.133688
C56   C     C_3   0.952062 0.280411 0.002816 -0.786538
H37   H     H_    0.999787 0.236624 0.971348 0.232185
H38   H     H_    0.886617 0.204095 0.017549 0.204621
H39   H     H_    0.897880 0.370525 0.990484 0.302130
O14   O     O_3   0.790171 0.616874 0.979545 -0.623890
C57   C     C_3   0.870889 0.716971 0.960851 0.071656
H40   H     H_    0.818649 0.807954 0.947418 0.132376
H41   H     H_    0.927144 0.674409 0.931293 0.171803
C58   C     C_3   0.961800 0.760900 0.000692 -0.783637
H42   H     H_    0.014603 0.672316 0.015321 0.300343
H43   H     H_    0.028857 0.835260 0.985791 0.204637
H44   H     H_    0.910790 0.808681 0.030585 0.231762

loop_
_geom_bond_atom_site_label_1
_geom_bond_atom_site_label_2
_geom_bond_distance
_ccdc_geom_bond_type
C16   C18   1.397733 A    
N5    H19   1.029112 S    
N6    H23   1.028814 S    
C13   C15   1.388744 A    
O13   C55   1.415828 S    
C42   H16   1.083553 S    
O3    C2    1.286107 A    
N1    C17   1.428278 S    
C55   H36   1.115314 S    
C52   H26   1.110708 S    
C58   H42   1.110210 S    
C5    N1    1.367262 A    
N8    C54   1.448650 S    
C19   C25   1.407712 A    
O1    C1    1.286873 A    
C9    H10   1.082931 S    
N1    C7    1.366675 A    
C10   C12   1.389098 A    
C42   C45   1.398407 A    
C32   C39   1.431398 A    
C58   H43   1.110559 S    
C56   H37   1.109780 S    
O7    Zn1   1.997243 S    
C55   H35   1.111518 S    
C4    C28   1.451755 S    
C52   H24   1.103483 S    
C32   C34   1.420538 A    
C56   H38   1.110566 S    
C54   H32   1.107252 S    
C23   H5    1.080412 S    
C24   H6    1.080347 S    
C47   N4    1.368878 A    
O3    Zn1   1.999675 S    
C57   C58   1.522397 S    
O6    C4    1.295450 A    
C29   C32   1.422211 A    
C53   H29   1.108579 S    
C48   N6    1.419295 S    
C44   C46   1.397852 A    
C54   H33   1.108897 S    
O2    C2    1.289543 A    
C31   C40   1.430357 A    
C37   H11   1.083605 S    
C5    C21   1.401794 A    
C41   C46   1.395387 A    
C57   H41   1.111428 S    
C30   C31   1.417407 A    
C53   H28   1.109866 S    
C50   N3    1.371588 A    
Zn2   N4    2.021576 S    
C7    O12   1.350284 S    
C42   C44   1.370338 A    
O8    Zn2   1.997248 S    
C11   C27   1.397117 A    
C8    O11   1.350001 S    
C41   C43   1.366541 A    
C58   H44   1.109812 S    
C29   C35   1.413131 A    
C25   C38   1.393636 A    
C14   H2    1.081433 S    
C30   C36   1.411871 A    
C15   H3    1.082831 S    
C51   H22   1.111702 S    
C11   H8    1.083510 S    
C9    C17   1.402934 A    
O5    C3    1.297050 A    
C12   H7    1.083186 S    
C10   C18   1.397912 A    
C13   C27   1.398062 A    
N7    H27   1.028992 S    
C7    C25   1.396569 A    
C6    N2    1.364362 A    
C56   H39   1.109850 S    
C8    C26   1.398192 A    
C50   N8    1.421583 S    
C43   C45   1.394747 A    
C6    O10   1.350180 S    
C30   C34   1.420600 A    
C1    C46   1.420679 S    
C40   O14   1.396042 S    
C35   H13   1.073850 S    
C10   H9    1.082880 S    
C38   H12   1.083487 S    
N7    C53   1.445870 S    
N2    C8    1.363940 A    
C53   H30   1.111902 S    
C36   H14   1.076013 S    
C35   C37   1.384496 A    
C54   H34   1.111603 S    
C20   C26   1.408780 A    
C51   H21   1.108864 S    
C22   C24   1.393012 A    
C39   O13   1.395990 S    
C47   C50   1.435960 A    
C57   H40   1.115297 S    
C12   C28   1.401022 A    
N2    C18   1.422790 S    
C19   C34   1.413534 A    
C5    O9    1.349798 S    
O6    Zn2   2.007556 S    
C26   C37   1.392593 A    
C21   C23   1.393868 A    
C16   H4    1.082882 S    
O4    C1    1.288700 A    
C23   C39   1.408733 A    
O14   C57   1.415675 S    
C52   H25   1.104304 S    
C48   N3    1.373587 A    
N8    H31   1.030146 S    
C14   C16   1.389490 A    
C15   C17   1.399493 A    
C6    C22   1.400503 A    
C41   H15   1.080867 S    
C47   N5    1.418561 S    
C2    C45   1.420903 S    
C29   C33   1.424633 A    
C14   C28   1.401013 A    
C19   C21   1.402128 A    
C36   C38   1.384252 A    
C3    C27   1.444054 S    
C20   C22   1.404366 A    
C9    C11   1.390258 A    
O4    Zn2   1.999675 S    
O2    Zn2   2.000773 S    
O7    C4    1.295847 A    
O8    C3    1.290199 A    
C13   H1    1.083742 S    
O5    Zn1   2.007562 S    
C49   N4    1.367383 A    
O1    Zn1   2.000773 S    
C20   C33   1.415017 A    
N6    C52   1.450851 S    
C48   C49   1.436657 A    
C44   H18   1.083633 S    
Zn1   N3    2.021576 S    
N5    C51   1.447081 S    
C43   H17   1.080396 S    
C49   N7    1.422968 S    
C31   C33   1.420926 A    
C51   H20   1.109504 S    
C55   C56   1.522424 S    
C24   C40   1.405724 A    
