data_mof_unit_16839.cif
_audit_creation_date              2012-12-11T16:44:11-0500
_audit_creation_method            fapswitch 2.2
_symmetry_space_group_name_H-M    P1
_symmetry_Int_Tables_number       1
_space_group_crystal_system       triclinic
_cell_length_a                    27.318166
_cell_length_b                    7.179427
_cell_length_c                    22.653016
_cell_angle_alpha                 89.996431
_cell_angle_beta                  101.570126
_cell_angle_gamma                 89.999321
_cell_volume                      4352.62826657

loop_
_atom_site_label
_atom_site_type_symbol
_atom_type_description
_atom_site_fract_x
_atom_site_fract_y
_atom_site_fract_z
_atom_type_partial_charge
O1    O     O_R   0.707300 0.594030 0.176840 -0.544398
O2    O     O_R   0.292700 0.405970 0.823160 -0.538907
O3    O     O_R   0.792700 0.094030 0.323160 -0.544362
O4    O     O_R   0.207300 0.905970 0.676840 -0.538941
O5    O     O_R   0.697330 0.262360 0.295660 -0.517772
O6    O     O_R   0.302670 0.737640 0.704340 -0.511536
O7    O     O_R   0.802670 0.762360 0.204340 -0.517776
O8    O     O_R   0.197330 0.237640 0.795660 -0.511502
C1    C     C_R   0.684208 0.432493 0.310926 0.704991
C2    C     C_R   0.315763 0.567512 0.688902 0.680033
C3    C     C_R   0.815789 0.932495 0.189070 0.704978
C4    C     C_R   0.184238 0.067508 0.811099 0.679973
O9    O     O_R   0.701410 0.264250 0.175600 -0.528077
O10   O     O_R   0.298590 0.735750 0.824400 -0.545705
O11   O     O_R   0.798590 0.764250 0.324400 -0.528062
O12   O     O_R   0.201410 0.235750 0.675600 -0.545653
O13   O     O_R   0.796800 0.094950 0.202240 -0.537599
O14   O     O_R   0.203200 0.905050 0.797760 -0.538612
O15   O     O_R   0.703200 0.594950 0.297760 -0.537592
O16   O     O_R   0.296800 0.405050 0.702240 -0.538595
C5    C     C_R   0.689595 0.432341 0.153325 0.710020
C6    C     C_R   0.309995 0.567992 0.847104 0.736867
C7    C     C_R   0.810404 0.932329 0.346677 0.710109
C8    C     C_R   0.190007 0.068005 0.652894 0.736854
O17   O     O_3   0.781290 0.427390 0.258880 -0.378516
O18   O     O_3   0.218710 0.572610 0.741120 -0.377136
O19   O     O_3   0.718710 0.927390 0.241120 -0.378565
O20   O     O_3   0.281290 0.072610 0.758880 -0.377113
V1    V     V_3+5 0.744190 0.152150 0.248350 1.434835
V2    V     V_3+5 0.255810 0.847850 0.751650 1.420001
V3    V     V_3+5 0.755810 0.652150 0.251650 1.434853
V4    V     V_3+5 0.244190 0.347850 0.748350 1.420114
C9    C     C_R   0.155278 0.066990 0.593574 -0.135192
C10   C     C_R   0.845456 0.935244 0.405602 -0.134742
C11   C     C_R   0.344723 0.566926 0.906423 -0.135136
C12   C     C_R   0.654548 0.435304 0.094399 -0.134721
C13   C     C_R   0.135533 0.166641 0.489232 -0.257119
C14   C     C_R   0.864462 0.844544 0.510730 -0.219456
C15   C     C_R   0.364445 0.666309 0.010787 -0.257046
C16   C     C_R   0.635566 0.344914 0.989247 -0.219395
C17   C     C_R   0.168958 0.159438 0.544641 0.399559
C18   C     C_R   0.829697 0.868845 0.457167 0.406208
C19   C     C_R   0.331024 0.659179 0.955375 0.399531
C20   C     C_R   0.670324 0.369129 0.042820 0.406214
C21   C     C_R   0.106295 0.997393 0.587656 -0.307274
C22   C     C_R   0.896006 0.982448 0.409261 -0.299541
C23   C     C_R   0.393716 0.497446 0.912327 -0.307300
C24   C     C_R   0.603990 0.482378 0.090746 -0.299550
C25   C     C_R   0.070129 0.020751 0.533126 0.085333
C26   C     C_R   0.932072 0.958844 0.463815 0.086491
C27   C     C_R   0.429874 0.520714 0.966867 0.085325
C28   C     C_R   0.567933 0.458878 0.036181 0.086521
C29   C     C_R   0.086492 0.101480 0.483350 0.081381
C30   C     C_R   0.915014 0.888259 0.514558 0.078008
C31   C     C_R   0.413495 0.601244 0.016660 0.081409
C32   C     C_R   0.585007 0.388514 0.985423 0.077944
C33   C     C_R   0.018221 0.972263 0.526528 0.078602
C34   C     C_R   0.984326 0.000745 0.469816 0.071754
C35   C     C_R   0.481788 0.472320 0.973459 0.078500
C36   C     C_R   0.515674 0.500685 0.030183 0.071787
C37   C     C_R   0.003758 0.071708 0.421208 -0.204696
C38   C     C_R   0.998801 0.901174 0.575123 -0.190373
C39   C     C_R   0.496228 0.571449 0.078806 -0.204640
C40   C     C_R   0.501223 0.401441 0.924849 -0.190304
C41   C     C_R   0.053584 0.122120 0.428132 -0.174265
C42   C     C_R   0.948406 0.860076 0.569064 -0.181899
C43   C     C_R   0.446395 0.621779 0.071887 -0.174281
C44   C     C_R   0.551624 0.360440 0.930905 -0.181830
H1    H     H_    0.066344 0.181182 0.389815 0.121855
H2    H     H_    0.935345 0.805969 0.607850 0.120764
H3    H     H_    0.433624 0.680688 0.110216 0.121850
H4    H     H_    0.564696 0.306499 0.892107 0.120779
H5    H     H_    0.906047 0.030555 0.368237 0.113434
H6    H     H_    0.097222 0.933127 0.627077 0.123336
H7    H     H_    0.593938 0.530319 0.131781 0.113399
H8    H     H_    0.402801 0.433328 0.872893 0.123284
H9    H     H_    0.147563 0.231409 0.451295 0.129935
H10   H     H_    0.851706 0.789545 0.549605 0.130385
H11   H     H_    0.352404 0.730938 0.048737 0.129923
H12   H     H_    0.648334 0.290077 0.950360 0.130394
C45   C     C_R   0.859095 0.102688 0.117753 -0.199855
C46   C     C_R   0.138792 0.889241 0.878645 -0.218832
C47   C     C_R   0.640855 0.602784 0.382174 -0.199812
C48   C     C_R   0.361269 0.389167 0.621440 -0.219071
C49   C     C_R   0.895286 0.116090 0.082274 -0.155840
C50   C     C_R   0.103644 0.874685 0.915504 -0.158951
C51   C     C_R   0.604664 0.616185 0.417652 -0.155894
C52   C     C_R   0.396418 0.374607 0.584583 -0.158999
C53   C     C_R   0.929340 0.970631 0.080833 0.042961
C54   C     C_R   0.072884 0.026080 0.922895 0.037496
C55   C     C_R   0.570654 0.470622 0.419162 0.042939
C56   C     C_R   0.427125 0.526086 0.577115 0.037506
C57   C     C_R   0.927121 0.812892 0.117021 -0.235796
C58   C     C_R   0.077756 0.191853 0.891402 -0.236289
C59   C     C_R   0.572912 0.312790 0.383033 -0.235803
C60   C     C_R   0.422203 0.691948 0.608533 -0.236239
C61   C     C_R   0.891418 0.799858 0.153846 0.392400
C62   C     C_R   0.112350 0.206885 0.853039 0.433971
C63   C     C_R   0.608609 0.299762 0.346201 0.392319
C64   C     C_R   0.387612 0.706989 0.646900 0.434062
C65   C     C_R   0.855793 0.943652 0.153029 -0.140569
C66   C     C_R   0.144663 0.055916 0.847963 -0.137721
C67   C     C_R   0.644199 0.443648 0.346963 -0.140595
C68   C     C_R   0.355345 0.555928 0.652046 -0.137796
C69   C     C_R   0.976786 0.829191 0.007422 -0.157101
C70   C     C_R   0.026289 0.165351 0.997955 -0.156304
C71   C     C_R   0.523266 0.329253 0.492646 -0.157071
C72   C     C_R   0.473663 0.665276 0.501981 -0.156310
H13   H     H_    0.957441 0.698496 0.009705 0.110643
H14   H     H_    0.045654 0.296137 0.996155 0.109790
H15   H     H_    0.542650 0.198616 0.490413 0.110672
H16   H     H_    0.454257 0.796003 0.503728 0.109814
C73   C     C_R   0.010905 0.843062 0.968972 -0.159597
C74   C     C_R   0.991899 0.151793 0.036017 -0.160809
C75   C     C_R   0.489151 0.343131 0.531100 -0.159608
C76   C     C_R   0.508050 0.651716 0.463915 -0.160832
C77   C     C_R   0.036193 0.011415 0.963653 0.112096
C78   C     C_R   0.966713 0.983601 0.041240 0.110262
C79   C     C_R   0.463813 0.511416 0.536353 0.112097
C80   C     C_R   0.533285 0.483591 0.458758 0.110249
H17   H     H_    0.016773 0.722340 0.942611 0.104918
H18   H     H_    0.985486 0.272679 0.062047 0.109606
H19   H     H_    0.483325 0.222473 0.557516 0.104904
H20   H     H_    0.514421 0.772541 0.437831 0.109621
O21   O     O_3   0.780911 0.813328 0.455177 -0.579250
C81   C     C_3   0.749228 0.970662 0.452319 0.064757
H21   H     H_    0.725544 0.977677 0.406346 0.146618
H22   H     H_    0.769352 0.106646 0.461243 0.104465
C82   C     C_3   0.715952 0.947102 0.498634 -0.308922
H23   H     H_    0.699260 0.805375 0.494764 0.207198
H24   H     H_    0.739109 0.962241 0.544681 0.191547
C83   C     C_3   0.674001 0.090851 0.489580 -0.831533
H25   H     H_    0.689439 0.234356 0.491247 0.242085
H26   H     H_    0.652050 0.075694 0.525581 0.226728
H27   H     H_    0.648638 0.067776 0.445439 0.244252
O22   O     O_3   0.215956 0.237828 0.550194 -0.576477
C84   C     C_3   0.212422 0.434841 0.552613 0.088770
H28   H     H_    0.226421 0.479959 0.599823 0.150514
H29   H     H_    0.173676 0.491291 0.538505 0.103257
C85   C     C_3   0.244973 0.522058 0.512460 -0.342631
H30   H     H_    0.283416 0.464745 0.524412 0.217393
H31   H     H_    0.229348 0.486292 0.464662 0.193839
C86   C     C_3   0.247232 0.733653 0.519357 -0.776197
H32   H     H_    0.209213 0.794378 0.506101 0.234712
H33   H     H_    0.271236 0.792768 0.489854 0.233418
H34   H     H_    0.263323 0.772637 0.566740 0.237627
O23   O     O_3   0.719117 0.313708 0.044803 -0.579289
C87   C     C_3   0.750798 0.471080 0.047782 0.064818
H35   H     H_    0.774509 0.477680 0.093746 0.146699
H36   H     H_    0.730676 0.607118 0.039015 0.104395
C88   C     C_3   0.784038 0.448059 0.001403 -0.309108
H37   H     H_    0.800682 0.306251 0.005070 0.207211
H38   H     H_    0.760863 0.463850 0.955390 0.191521
C89   C     C_3   0.826041 0.591600 0.010624 -0.831271
H39   H     H_    0.810665 0.735150 0.009289 0.242139
H40   H     H_    0.847905 0.577142 0.974513 0.226738
H41   H     H_    0.851469 0.567622 0.054665 0.244194
O24   O     O_3   0.284018 0.737490 0.949833 -0.576526
C90   C     C_3   0.287529 0.934509 0.947416 0.088767
H42   H     H_    0.273453 0.979654 0.900223 0.150480
H43   H     H_    0.326278 0.991004 0.961434 0.103281
C91   C     C_3   0.255049 0.021643 0.987666 -0.342631
H44   H     H_    0.216607 0.964279 0.975804 0.217363
H45   H     H_    0.270752 0.985863 0.035445 0.193799
C92   C     C_3   0.252756 0.233240 0.980775 -0.776212
H46   H     H_    0.290774 0.294013 0.993938 0.234729
H47   H     H_    0.228808 0.292298 0.010352 0.233392
H48   H     H_    0.236583 0.272234 0.933413 0.237567
H49   H     H_    0.981206 0.093399 0.377027 0.122745
H50   H     H_    0.021545 0.877452 0.619083 0.118308
H51   H     H_    0.518773 0.593046 0.122995 0.122723
H52   H     H_    0.478486 0.377818 0.880880 0.118307
H53   H     H_    0.833071 0.216651 0.116809 0.166872
H54   H     H_    0.162437 0.769968 0.875605 0.189790
H55   H     H_    0.666843 0.716839 0.383065 0.166925
H56   H     H_    0.337665 0.269818 0.624537 0.189934
H57   H     H_    0.895877 0.239091 0.054770 0.126879
H58   H     H_    0.101621 0.745533 0.939565 0.129443
H59   H     H_    0.604039 0.739272 0.445103 0.126962
H60   H     H_    0.398480 0.245379 0.560581 0.129492
H61   H     H_    0.953460 0.699926 0.117373 0.121402
H62   H     H_    0.054220 0.310426 0.895684 0.111201
H63   H     H_    0.546601 0.199753 0.382726 0.121412
H64   H     H_    0.445695 0.810595 0.604185 0.111128
O25   O     O_3   0.890651 0.643037 0.189061 -0.569328
C93   C     C_3   0.924460 0.669665 0.244397 0.081656
H65   H     H_    0.917902 0.805748 0.265421 0.086535
H66   H     H_    0.963592 0.664793 0.237175 0.118067
C94   C     C_3   0.917125 0.514232 0.287937 -0.272377
H67   H     H_    0.878411 0.520784 0.296099 0.219110
H68   H     H_    0.922504 0.376611 0.267640 0.186824
C95   C     C_3   0.953733 0.532499 0.348141 -0.849732
H69   H     H_    0.992723 0.514639 0.341752 0.231250
H70   H     H_    0.945642 0.423606 0.379635 0.240302
H71   H     H_    0.949950 0.670969 0.368544 0.243147
O26   O     O_3   0.116692 0.373932 0.823885 -0.566467
C96   C     C_3   0.074829 0.401755 0.776426 0.055384
H72   H     H_    0.066072 0.553054 0.774537 0.140903
H73   H     H_    0.040203 0.328847 0.782938 0.100010
C97   C     C_3   0.087549 0.343456 0.716195 -0.283431
H74   H     H_    0.120799 0.422449 0.708916 0.220473
H75   H     H_    0.096530 0.192385 0.717280 0.162049
C98   C     C_3   0.044192 0.381217 0.663604 -0.847101
H76   H     H_    0.011006 0.297763 0.668533 0.235529
H77   H     H_    0.055144 0.341809 0.620663 0.244419
H78   H     H_    0.034330 0.531491 0.661591 0.226480
O27   O     O_3   0.609392 0.142889 0.311020 -0.569350
C99   C     C_3   0.575586 0.169432 0.255674 0.081726
H79   H     H_    0.582148 0.305467 0.234619 0.086545
H80   H     H_    0.536453 0.164608 0.262892 0.118038
C100  C     C_3   0.582922 0.013908 0.212172 -0.272412
H81   H     H_    0.621640 0.020380 0.204023 0.219168
H82   H     H_    0.577525 0.876332 0.232493 0.186809
C101  C     C_3   0.546330 0.032133 0.151952 -0.849751
H83   H     H_    0.507333 0.014399 0.158330 0.231267
H84   H     H_    0.554414 0.923140 0.120491 0.240278
H85   H     H_    0.550141 0.170543 0.131518 0.243138
O28   O     O_3   0.383213 0.874134 0.675970 -0.566520
C102  C     C_3   0.425073 0.902315 0.723403 0.055557
H86   H     H_    0.433652 0.053754 0.725360 0.140953
H87   H     H_    0.459768 0.830111 0.716792 0.100042
C103  C     C_3   0.412486 0.843289 0.783641 -0.283922
H88   H     H_    0.379161 0.921627 0.791011 0.220589
H89   H     H_    0.403683 0.692067 0.782496 0.161972
C104  C     C_3   0.455842 0.881417 0.836198 -0.846960
H90   H     H_    0.489120 0.798687 0.831162 0.235492
H91   H     H_    0.444993 0.841364 0.879143 0.244426
H92   H     H_    0.465507 0.031868 0.838289 0.226477

loop_
_geom_bond_atom_site_label_1
_geom_bond_atom_site_label_2
_ccdc_geom_bond_type
O17   V3    S    
C86   H34   S    
C47   C51   A    
C98   H76   S    
C25   C29   A    
O1    C5    A    
C92   H46   S    
C47   H55   S    
O19   V1    S    
C9    C21   A    
O3    C7    A    
O23   C87   S    
C10   C18   A    
C87   C88   S    
C50   H58   S    
C19   O24   S    
C11   C23   A    
C20   O23   S    
O25   C93   S    
C25   C33   A    
C33   C38   A    
C5    C12   S    
C45   C65   A    
C96   C97   S    
O7    C3    A    
C6    C11   S    
C84   H29   S    
C35   C40   A    
C26   C30   A    
C47   C67   A    
C70   C74   A    
C36   C39   A    
C40   C44   A    
O9    V1    S    
C56   C79   S    
C87   H36   S    
C23   H8    S    
C14   C18   A    
C51   C55   A    
C97   C98   S    
C90   H42   S    
C70   H14   S    
O4    C8    A    
C59   C63   A    
C44   H4    S    
C43   H3    S    
C58   C62   A    
C86   H32   S    
O1    V3    S    
C104  H92   S    
O13   V1    S    
C31   C43   A    
O2    V4    S    
C88   C89   S    
O3    V1    S    
C28   C36   A    
C18   O21   S    
C104  H91   S    
C57   H61   S    
C1    O15   A    
C64   C68   A    
C15   C31   A    
C52   C56   A    
C2    O16   A    
C83   H25   S    
C16   C32   A    
O2    C6    A    
C88   H37   S    
C90   H43   S    
C54   C58   A    
C10   C22   A    
C11   C19   A    
C16   C20   A    
C89   H40   S    
C1    C67   S    
C82   C83   S    
C13   C29   A    
C34   C37   A    
O11   C7    A    
O21   C81   S    
O15   V3    S    
C35   C36   A    
O12   C8    A    
O10   C6    A    
C24   H7    S    
C94   H67   S    
O10   V2    S    
C48   H56   S    
C98   H78   S    
C52   H60   S    
C91   H45   S    
C56   C60   A    
C38   H50   S    
C84   C85   S    
C39   C43   A    
C75   H19   S    
C72   C79   A    
C38   C42   A    
C62   O26   S    
O27   C99   S    
O8    V4    S    
C54   C77   S    
C46   H54   S    
C17   O22   S    
O7    V3    S    
C85   H30   S    
C89   H41   S    
C63   C67   A    
C50   C54   A    
C102  H86   S    
C49   C53   A    
O18   V4    S    
C99   H79   S    
C15   C19   A    
C14   H10   S    
C103  C104  S    
C46   C50   A    
C13   H9    S    
C53   C57   A    
C76   C80   A    
C63   O27   S    
C21   H6    S    
C15   H11   S    
C40   H52   S    
C94   C95   S    
C61   O25   S    
C95   H71   S    
C4    C66   S    
C37   C41   A    
C102  H87   S    
C91   C92   S    
C98   H77   S    
C39   H51   S    
C100  H81   S    
C14   C30   A    
C49   H57   S    
C21   C25   A    
O8    C4    A    
C7    C10   S    
C61   C65   A    
C16   H12   S    
C104  H90   S    
C46   C66   A    
C90   C91   S    
O9    C5    A    
C3    C65   S    
C87   H35   S    
C85   C86   S    
C103  H89   S    
C71   C75   A    
C89   H39   S    
C74   C78   A    
C93   H65   S    
C83   H26   S    
C73   C77   A    
C97   H75   S    
C26   C34   A    
C100  H82   S    
C51   H59   S    
C92   H48   S    
C75   C79   A    
C70   C77   A    
C81   H21   S    
O24   C90   S    
C48   C68   A    
C69   C78   A    
C12   C20   A    
C37   H49   S    
C93   H66   S    
O5    V1    S    
C57   C61   A    
C71   C80   A    
C29   C41   A    
C91   H44   S    
O16   V4    S    
C69   C73   A    
C86   H33   S    
C69   H13   S    
C3    O13   A    
C81   H22   S    
C76   H20   S    
O6    V2    S    
C101  H83   S    
C71   H15   S    
C48   C52   A    
O5    C1    A    
O26   C96   S    
C101  H85   S    
O6    C2    A    
C23   C27   A    
O11   V3    S    
C85   H31   S    
O12   V4    S    
C73   H17   S    
C84   H28   S    
C22   C26   A    
C8    C9    S    
C81   C82   S    
C9    C17   A    
C95   H69   S    
C72   C76   A    
C93   C94   S    
C96   H73   S    
C82   H23   S    
C101  H84   S    
O20   V2    S    
C99   H80   S    
C62   C66   A    
C102  C103  S    
C59   H63   S    
O28   C102  S    
C42   H2    S    
C60   H64   S    
C97   H74   S    
C83   H27   S    
C41   H1    S    
C60   C64   A    
C2    C68   S    
C32   C44   A    
C45   H53   S    
C12   C24   A    
C27   C31   A    
C88   H38   S    
C13   C17   A    
C96   H72   S    
C45   C49   A    
O14   V2    S    
C64   O28   S    
C74   H18   S    
C72   H16   S    
C24   C28   A    
C100  C101  S    
C27   C35   A    
C53   C78   S    
C55   C59   A    
C92   H47   S    
C99   C100  S    
C4    O14   A    
C55   C80   S    
O22   C84   S    
C58   H62   S    
C94   H68   S    
C33   C34   A    
C30   C42   A    
C103  H88   S    
C22   H5    S    
O4    V2    S    
C28   C32   A    
C95   H70   S    
C82   H24   S    
