data_mof_unit_30223.cif
_audit_creation_date              2012-12-10T20:26:24-0500
_audit_creation_method            fapswitch 2.2
_symmetry_space_group_name_H-M    P1
_symmetry_Int_Tables_number       1
_space_group_crystal_system       triclinic
_cell_length_a                    10.679633
_cell_length_b                    10.679178
_cell_length_c                    9.904579
_cell_angle_alpha                 89.857585
_cell_angle_beta                  90.253624
_cell_angle_gamma                 90.542507
_cell_volume                      1129.54920523

loop_
_atom_site_label
_atom_site_type_symbol
_atom_type_description
_atom_site_fract_x
_atom_site_fract_y
_atom_site_fract_z
_atom_type_partial_charge
C1    C     C_R   0.503385 0.260144 0.500195 0.847394
C2    C     C_R   0.522387 0.128902 0.501000 -0.098813
C3    C     C_R   0.546272 0.065628 0.380067 -0.221579
C4    C     C_R   0.545583 0.936265 0.379821 -0.159226
C5    C     C_R   0.521833 0.871712 0.500599 -0.107998
C6    C     C_R   0.521012 0.936038 0.622717 0.126874
C7    C     C_3   0.430922 0.927865 0.737663 -0.419547
C8    C     C_3   0.431117 0.069859 0.737833 -0.493438
C9    C     C_R   0.429301 0.414705 0.071440 0.074812
C10   C     C_R   0.579647 0.575682 0.071818 0.386951
C11   C     C_R   0.579957 0.575146 0.927745 -0.081041
C12   C     C_R   0.262813 0.502672 0.499256 0.876863
C13   C     C_R   0.426154 0.417682 0.929468 0.082180
C14   C     C_3   0.285903 0.407544 0.929141 0.227294
C15   C     C_3   0.291462 0.396844 0.081994 -0.498887
C16   C     C_R   0.503351 0.739960 0.499920 0.924549
C17   C     C_R   0.736732 0.489063 0.500356 0.947218
C18   C     C_2   0.936177 0.436026 0.394988 0.037964
C19   C     C_2   0.866716 0.458723 0.504195 -0.304166
C20   C     C_2   0.069989 0.431020 0.413466 -0.333485
C21   C     C_2   0.131037 0.512152 0.494052 0.279265
C22   C     C_R   0.521194 0.063799 0.622915 0.148823
H1    H     H_    0.474648 0.110982 0.829971 0.209807
H2    H     H_    0.250348 0.321511 0.878367 0.106617
H3    H     H_    0.245102 0.474428 0.136495 0.258128
H4    H     H_    0.266597 0.301723 0.119669 0.168705
H5    H     H_    0.909333 0.456708 0.604185 0.201188
H6    H     H_    0.120727 0.359799 0.358000 0.137154
H7    H     H_    0.556658 0.114908 0.284963 0.180507
H8    H     H_    0.554904 0.888061 0.284498 0.215849
H9    H     H_    0.339177 0.885827 0.708018 0.239721
H10   H     H_    0.474357 0.886906 0.829724 0.215954
H11   H     H_    0.339492 0.110599 0.708262 0.206603
N1    N     N_R   0.499170 0.499140 0.142800 -0.121049
N2    N     N_R   0.499170 0.499180 0.857150 -0.125092
O1    O     O_R   0.500020 0.316790 0.614690 -0.628967
O2    O     O_R   0.500000 0.316760 0.385350 -0.629591
O3    O     O_R   0.319080 0.500020 0.614640 -0.554277
O4    O     O_R   0.319070 0.499980 0.385300 -0.640109
O5    O     O_R   0.500000 0.683240 0.614650 -0.616776
O6    O     O_R   0.499980 0.683210 0.385310 -0.575571
O7    O     O_R   0.680930 0.500020 0.614700 -0.627623
O8    O     O_R   0.680920 0.499980 0.385360 -0.567388
Zn1   Zn    Zn3+2 0.500010 0.500020 0.653130 1.001036
Zn2   Zn    Zn3+2 0.499990 0.499980 0.346870 1.009406
C23   C     C_1   0.886193 0.412512 0.261168 0.308224
N3    N     N_1   0.846696 0.393390 0.154097 -0.175690
Cl1   Cl    Cl    0.681856 0.677947 0.158744 -0.592394
C24   C     C_1   0.663311 0.657898 0.855331 0.346722
N4    N     N_1   0.730566 0.724662 0.797880 -0.136775
Cl2   Cl    Cl    0.209696 0.549002 0.879437 -0.515196
Cl3   Cl    Cl    0.066511 0.648691 0.566449 -0.541130

loop_
_geom_bond_atom_site_label_1
_geom_bond_atom_site_label_2
_ccdc_geom_bond_type
C2    C22   A    
C8    C22   S    
C17   O8    A    
O3    Zn1   S    
C6    C7    S    
C11   C24   S    
C19   H5    S    
C14   Cl2   S    
C1    O2    A    
O4    Zn2   S    
C16   O6    A    
C12   O4    A    
C11   N2    A    
C2    C3    A    
C9    C15   S    
C7    C8    S    
C10   N1    A    
N1    Zn2   S    
C13   C14   S    
C12   O3    A    
N2    Zn1   S    
O8    Zn2   S    
C5    C6    A    
O7    Zn1   S    
C16   O5    A    
C18   C23   S    
C17   C19   S    
C18   C19   D    
C18   C20   S    
C8    H11   S    
C21   Cl3   S    
C10   Cl1   S    
C9    N1    A    
O1    Zn1   S    
C15   H3    S    
C10   C11   A    
O2    Zn2   S    
C3    C4    A    
C6    C22   A    
O5    Zn1   S    
C8    H1    S    
C7    H9    S    
C20   C21   D    
C3    H7    S    
C1    C2    S    
C17   O7    A    
C14   H2    S    
C24   N4    T    
C9    C13   A    
C23   N3    T    
C5    C16   S    
O6    Zn2   S    
C7    H10   S    
C20   H6    S    
C14   C15   S    
C12   C21   S    
C13   N2    A    
C4    H8    S    
C1    O1    A    
C4    C5    A    
C15   H4    S    
