data_mof_unit_37269.cif
_audit_creation_date              2012-12-11T15:31:40-0500
_audit_creation_method            fapswitch 2.2
_symmetry_space_group_name_H-M    P1
_symmetry_Int_Tables_number       1
_space_group_crystal_system       triclinic
_cell_length_a                    13.590248
_cell_length_b                    13.574298
_cell_length_c                    27.6722
_cell_angle_alpha                 90.482067
_cell_angle_beta                  89.990681
_cell_angle_gamma                 119.972082
_cell_volume                      4422.02395764

loop_
_atom_site_label
_atom_site_type_symbol
_atom_type_description
_atom_site_fract_x
_atom_site_fract_y
_atom_site_fract_z
_atom_type_partial_charge
C1    C     C_R   0.619361 0.898431 0.431195 0.547525
C2    C     C_R   0.153250 0.915086 0.265974 -0.084060
C3    C     C_R   0.138068 0.909675 0.215683 0.102792
C4    C     C_R   0.599690 0.218413 0.431275 0.546229
C5    C     C_R   0.195708 0.767001 0.210567 -0.106920
C6    C     C_R   0.210584 0.772702 0.260685 -0.103268
C7    C     C_R   0.188301 0.845774 0.288616 0.015777
C8    C     C_R   0.158677 0.834596 0.187783 0.054152
C9    C     C_1   0.131604 0.817586 0.136849 0.001923
C10   C     C_1   0.208952 0.854252 0.340021 -0.056958
C11   C     C_1   0.100331 0.796507 0.095294 0.026644
C12   C     C_R   0.575176 0.282037 0.211094 -0.128105
C13   C     C_1   0.633981 0.866103 0.383418 -0.015237
C14   C     C_R   0.553250 0.741155 0.264350 0.019933
C15   C     C_R   0.562358 0.734078 0.213633 -0.085725
C16   C     C_R   0.279982 0.878976 0.430386 0.545861
C17   C     C_R   0.750468 0.900323 0.215309 -0.091304
C18   C     C_R   0.743641 0.908081 0.265297 -0.105132
C19   C     C_R   0.646411 0.829192 0.290069 0.035462
C20   C     C_R   0.660341 0.813395 0.189387 0.021283
C21   C     C_1   0.673353 0.800677 0.138433 -0.041581
C22   C     C_1   0.641038 0.846105 0.341417 -0.066044
C23   C     C_R   0.564470 0.267846 0.261110 -0.110403
C24   C     C_1   0.691455 0.788595 0.096760 0.004843
C25   C     C_R   0.630527 0.267782 0.618033 0.008130
C26   C     C_R   0.719149 0.264227 0.642119 -0.132120
C27   C     C_R   0.727390 0.274877 0.691812 -0.136458
C28   C     C_R   0.619803 0.900884 0.569195 0.543833
C29   C     C_R   0.647637 0.289517 0.718101 0.032536
C30   C     C_R   0.560863 0.299829 0.694388 0.009363
C31   C     C_R   0.555110 0.290548 0.643898 -0.108762
C32   C     C_R   0.766795 0.408973 0.784134 -0.132669
C33   C     C_R   0.781025 0.442803 0.831868 -0.132833
C34   C     C_R   0.661439 0.310331 0.290443 0.013295
C35   C     C_R   0.598509 0.278378 0.851667 -0.141459
C36   C     C_R   0.585966 0.242256 0.803690 -0.131763
C37   C     C_R   0.667652 0.311030 0.769648 0.021171
C38   C     C_R   0.695368 0.379797 0.865328 0.023674
C39   C     C_R   0.226077 0.865292 0.615417 0.023644
C40   C     C_R   0.600142 0.220974 0.569185 0.541183
C41   C     C_R   0.249179 0.961213 0.643526 -0.125369
C42   C     C_R   0.223664 0.949822 0.692379 -0.120434
C43   C     C_R   0.172545 0.842122 0.713571 0.040852
C44   C     C_R   0.141341 0.745289 0.684646 -0.101393
C45   C     C_R   0.682937 0.338266 0.189898 0.046186
C46   C     C_R   0.168897 0.756902 0.635879 -0.114011
C47   C     C_R   0.171744 0.752054 0.791559 -0.115407
C48   C     C_R   0.144399 0.733596 0.840219 -0.131006
C49   C     C_R   0.091260 0.879723 0.839167 -0.128778
C50   C     C_R   0.117544 0.897296 0.790430 -0.128397
C51   C     C_R   0.154496 0.830990 0.765933 0.030673
C52   C     C_R   0.280073 0.881820 0.568315 0.542688
C53   C     C_R   0.099920 0.794345 0.863859 0.016923
C54   C     C_R   0.634244 0.862916 0.616655 0.000914
C55   C     C_R   0.536770 0.781606 0.640973 -0.098384
C56   C     C_1   0.691784 0.361347 0.138869 -0.011360
C57   C     C_R   0.540738 0.762424 0.689838 0.090587
C58   C     C_R   0.644759 0.821150 0.714647 0.039320
C59   C     C_R   0.743777 0.897499 0.689893 -0.146490
C60   C     C_R   0.738462 0.919180 0.641155 -0.137317
C61   C     C_R   0.692240 0.901270 0.797505 -0.089744
C62   C     C_R   0.707905 0.891078 0.847053 -0.007249
C63   C     C_R   0.631885 0.686932 0.833403 -0.130345
C64   C     C_1   0.630810 0.264277 0.383631 -0.008737
C65   C     C_R   0.619499 0.699622 0.784663 -0.101432
C66   C     C_R   0.651067 0.806777 0.766532 0.041217
C67   C     C_1   0.648482 0.290210 0.341654 -0.053136
C68   C     C_R   0.679732 0.781899 0.864618 0.025740
C69   C     C_R   0.049475 0.761322 0.048197 0.552075
C70   C     C_R   0.714180 0.435733 0.049687 0.546802
C71   C     C_R   0.723380 0.770949 0.049452 0.548497
C72   C     C_R   0.044261 0.756083 0.910592 0.535687
C73   C     C_R   0.708144 0.428382 0.912917 0.529362
C74   C     C_R   0.717039 0.765894 0.912134 0.527197
C75   C     C_R   0.769400 0.365781 0.269447 -0.080043
C76   C     C_R   0.780683 0.380348 0.219268 0.112118
C77   C     C_3   0.476205 0.318818 0.723556 -0.256515
C78   C     C_1   0.700417 0.388962 0.097102 0.016409
C79   C     C_3   0.389399 0.335422 0.694437 -0.315463
C80   C     C_3   0.307809 0.348946 0.728078 -0.432901
C81   C     C_3   0.757277 0.994201 0.880962 -0.248310
C82   C     C_3   0.764899 0.102875 0.860632 -0.318705
C83   C     C_3   0.808423 0.196813 0.899067 -0.434322
C84   C     C_3   0.447150 0.658024 0.291949 -0.257301
C85   C     C_3   0.350071 0.565763 0.261213 -0.311656
C86   C     C_3   0.248412 0.488064 0.292518 -0.432222
C87   C     C_1   0.234636 0.863309 0.382251 -0.012103
Cr1   Cr    Cr6+3 0.417720 0.831920 0.499820 1.023394
Cr2   Cr    Cr6+3 0.668190 0.085770 0.500360 1.024968
Cr3   Cr    Cr6+3 0.414060 0.082260 0.499840 1.021489
Cr4   Cr    Cr6+3 0.908000 0.821090 0.979770 1.030445
Cr5   Cr    Cr6+3 0.912420 0.571130 0.979880 1.033716
Cr6   Cr    Cr6+3 0.657970 0.566940 0.980940 1.031435
H1    H     H_    0.844620 0.397578 0.291945 0.133715
H2    H     H_    0.532969 0.228944 0.877690 0.116612
H3    H     H_    0.488455 0.294641 0.624408 0.126879
H4    H     H_    0.294519 0.046117 0.628724 0.130312
H5    H     H_    0.203058 0.702104 0.773673 0.155640
H6    H     H_    0.152586 0.667893 0.858599 0.138980
H7    H     H_    0.249206 0.025870 0.713925 0.100871
H8    H     H_    0.103304 0.958573 0.771474 0.100465
H9    H     H_    0.056847 0.927748 0.856515 0.132462
H10   H     H_    0.098635 0.660939 0.700018 0.114075
H11   H     H_    0.150037 0.681920 0.614731 0.130837
H12   H     H_    0.494682 0.667223 0.192499 0.109821
H13   H     H_    0.454755 0.738795 0.623093 0.163138
H14   H     H_    0.499332 0.250403 0.188991 0.130320
H15   H     H_    0.714159 0.982476 0.781982 0.108296
H16   H     H_    0.588509 0.626345 0.760757 0.132221
H17   H     H_    0.611535 0.603470 0.845987 0.138766
H18   H     H_    0.824441 0.942865 0.708774 0.108490
H19   H     H_    0.814428 0.982708 0.623231 0.130311
H20   H     H_    0.480473 0.223645 0.276925 0.127320
H21   H     H_    0.137807 0.973275 0.287289 0.132976
H22   H     H_    0.211248 0.708327 0.189651 0.134617
H23   H     H_    0.826662 0.961719 0.196855 0.161743
H24   H     H_    0.239387 0.720046 0.277703 0.117653
H25   H     H_    0.256590 0.269754 0.748892 0.140367
H26   H     H_    0.355607 0.420778 0.753747 0.188571
H27   H     H_    0.249230 0.366065 0.706462 0.171392
H28   H     H_    0.434384 0.412623 0.671766 0.180280
H29   H     H_    0.338093 0.259915 0.670897 0.151514
H30   H     H_    0.427246 0.243784 0.746873 0.142641
H31   H     H_    0.524695 0.394926 0.747178 0.156479
H32   H     H_    0.744859 0.173890 0.928323 0.156322
H33   H     H_    0.889838 0.211158 0.914755 0.154376
H34   H     H_    0.814310 0.976525 0.284723 0.129906
H35   H     H_    0.823977 0.277265 0.882426 0.165430
H36   H     H_    0.825303 0.134260 0.829888 0.155413
H37   H     H_    0.679888 0.085109 0.847951 0.177078
H38   H     H_    0.704182 0.970403 0.914093 0.153532
H39   H     H_    0.844685 0.015551 0.891348 0.173139
H40   H     H_    0.272973 0.443689 0.319347 0.157288
H41   H     H_    0.215868 0.537954 0.311848 0.156254
H42   H     H_    0.179323 0.423291 0.269301 0.177137
H43   H     H_    0.321840 0.606167 0.233915 0.164143
H44   H     H_    0.379839 0.512796 0.242395 0.173388
H45   H     H_    0.778401 0.246814 0.622953 0.134806
H46   H     H_    0.472343 0.615476 0.319493 0.155186
H47   H     H_    0.414252 0.707684 0.311337 0.150360
H48   H     H_    0.830421 0.462207 0.758045 0.115086
H49   H     H_    0.856223 0.521836 0.842161 0.134372
H50   H     H_    0.795525 0.270284 0.710091 0.110053
H51   H     H_    0.510906 0.164037 0.792730 0.114312
I1    I     I_    0.946763 0.467727 0.189999 -0.424366
I2    I     I_    0.383097 0.657590 0.724406 -0.531871
I3    I     I_    0.083286 0.015725 0.183888 -0.432026
O1    O     O_R   0.302900 0.805360 0.446400 -0.509461
O2    O     O_R   0.638120 0.455970 0.034270 -0.507859
O3    O     O_R   0.667540 0.672320 0.030160 -0.494295
O4    O     O_R   0.522090 0.841370 0.450730 -0.496949
O5    O     O_R   0.814460 0.840990 0.926980 -0.532377
O6    O     O_R   0.001710 0.811400 0.930110 -0.505378
O7    O     O_R   0.023410 0.659800 0.926210 -0.522542
O8    O     O_R   0.806940 0.473170 0.931090 -0.510070
O9    O     O_R   0.633420 0.451310 0.927930 -0.513114
O10   O     O_R   0.663190 0.668000 0.931580 -0.499946
O11   O     O_3   0.826130 0.653050 0.980200 -0.249691
O12   O     O_R   0.657980 0.180990 0.549630 -0.502213
O13   O     O_R   0.693280 0.995650 0.447220 -0.504065
O14   O     O_R   0.657260 0.178740 0.451050 -0.493443
O15   O     O_R   0.502640 0.195380 0.446850 -0.506155
O16   O     O_R   0.319630 0.976590 0.450330 -0.492936
O17   O     O_R   0.303680 0.807790 0.552740 -0.516368
O18   O     O_R   0.522820 0.843620 0.549310 -0.506014
O19   O     O_R   0.694060 0.998080 0.553560 -0.516633
O20   O     O_R   0.503420 0.197810 0.553190 -0.526082
O21   O     O_R   0.320350 0.978840 0.548910 -0.505561
O22   O     O_3   0.499990 0.999990 0.500010 -0.245774
O23   O     O_R   0.819150 0.845650 0.033320 -0.495009
O24   O     O_R   0.006060 0.815720 0.028680 -0.484101
O25   O     O_R   0.028100 0.664460 0.032550 -0.496824
O26   O     O_R   0.811290 0.477490 0.029660 -0.482835

loop_
_geom_bond_atom_site_label_1
_geom_bond_atom_site_label_2
_ccdc_geom_bond_type
C25   C31   A    
C7    C10   S    
C63   C65   A    
C3    I3    S    
Cr3   O20   S    
C70   C78   S    
C41   C42   A    
C40   O12   A    
Cr6   O2    S    
C35   C36   A    
C14   C84   S    
C83   H35   S    
C75   C76   A    
C80   H27   S    
C81   C82   S    
C39   C41   A    
C54   C60   A    
C85   C86   S    
C79   H28   S    
C12   C23   A    
C26   C27   A    
C47   H5    S    
Cr3   O15   S    
C45   C76   A    
C77   H30   S    
C5    C6    A    
C35   C38   A    
C36   C37   A    
Cr4   O6    S    
C25   C40   S    
C30   C31   A    
C81   H38   S    
C71   O3    A    
C27   C29   A    
C68   C74   S    
C31   H3    S    
C17   C20   A    
C56   C78   T    
Cr3   O22   S    
Cr5   O11   S    
C18   C19   A    
C69   O24   A    
C61   H15   S    
Cr4   O11   S    
C63   C68   A    
C30   C77   S    
C61   C66   A    
C86   H41   S    
C2    C7    A    
C84   H46   S    
C44   C46   A    
C8    C9    S    
C40   O20   A    
C16   C87   S    
C27   H50   S    
Cr1   O22   S    
C82   H37   S    
C6    H24   S    
Cr4   O23   S    
C28   O19   A    
C34   C75   A    
C39   C52   S    
C80   H26   S    
C59   C60   A    
C57   I2    S    
C5    H22   S    
C84   H47   S    
C74   O5    A    
Cr6   O3    S    
C48   C53   A    
C70   O2    A    
C1    O13   A    
C83   H32   S    
Cr2   O14   S    
C44   H10   S    
C58   C66   S    
Cr2   O12   S    
C77   C79   S    
C16   O16   A    
C15   C20   A    
C79   H29   S    
C80   H25   S    
C10   C87   T    
C72   O7    A    
C17   H23   S    
C55   H13   S    
C64   C67   T    
C19   C22   S    
C84   C85   S    
C45   C56   S    
C3    C8    A    
C49   H9    S    
C28   C54   S    
C81   H39   S    
C47   C51   A    
C50   C51   A    
C25   C26   A    
Cr1   O17   S    
C46   H11   S    
C82   C83   S    
C69   O25   A    
C43   C44   A    
C29   C30   A    
C60   H19   S    
C42   H7    S    
C18   H34   S    
C23   H20   S    
C86   H40   S    
C59   H18   S    
C47   C48   A    
C23   C34   A    
C73   O8    A    
C17   C18   A    
Cr1   O1    S    
C71   O23   A    
C32   C37   A    
C82   H36   S    
Cr6   O10   S    
C9    C11   T    
C65   H16   S    
C32   H48   S    
C28   O18   A    
C52   O17   A    
C39   C46   A    
C62   C81   S    
C76   I1    S    
C65   C66   A    
C55   C57   A    
Cr5   O26   S    
Cr1   O4    S    
C4    O15   A    
C5    C8    A    
C1    C13   S    
C42   C43   A    
C83   H33   S    
Cr6   O11   S    
C85   H44   S    
Cr2   O13   S    
C48   H6    S    
C54   C55   A    
C72   O6    A    
C74   O10   A    
Cr3   O21   S    
C4    O14   A    
C14   C19   A    
Cr6   O9    S    
C12   C45   A    
C26   H45   S    
C34   C67   S    
C12   H14   S    
C11   C69   S    
C6    C7    A    
C35   H2    S    
C33   H49   S    
C4    C64   S    
C33   C38   A    
Cr4   O24   S    
Cr3   O16   S    
C16   O1    A    
C32   C33   A    
C15   H12   S    
C63   H17   S    
C2    C3    A    
C58   C59   A    
Cr2   O22   S    
Cr1   O18   S    
C77   H31   S    
C52   O21   A    
C2    H21   S    
C43   C51   S    
C57   C58   A    
Cr4   O5    S    
Cr5   O25   S    
C49   C53   A    
C73   O9    A    
C13   C22   T    
C1    O4    A    
Cr5   O8    S    
C41   H4    S    
C62   C68   A    
C36   H51   S    
C61   C62   A    
C70   O26   A    
Cr2   O19   S    
C85   H43   S    
C79   C80   S    
C86   H42   S    
C20   C21   S    
C24   C71   S    
C50   H8    S    
C49   C50   A    
C21   C24   T    
C29   C37   S    
C14   C15   A    
Cr5   O7    S    
C53   C72   S    
C75   H1    S    
C38   C73   S    
