data_mof_unit_41958.cif
_audit_creation_date              2013-03-05T15:43:06-0500
_audit_creation_method            fapswitch 2.2
_symmetry_space_group_name_H-M    P1
_symmetry_Int_Tables_number       1
_space_group_crystal_system       triclinic
_cell_length_a                    11.03015
_cell_length_b                    19.298581
_cell_length_c                    18.447104
_cell_angle_alpha                 90.053492
_cell_angle_beta                  89.736845
_cell_angle_gamma                 89.797587
_cell_volume                      3926.69803431

loop_
_atom_site_label
_atom_site_type_symbol
_atom_site_description
_atom_site_fract_x
_atom_site_fract_y
_atom_site_fract_z
_atom_type_partial_charge
O1    O     O_R   0.575450 0.828820 0.667950 -0.447187
O2    O     O_R   0.575450 0.828820 0.832050 -0.487550
O3    O     O_R   0.575450 0.171180 0.332050 -0.507345
O4    O     O_R   0.575450 0.171180 0.167950 -0.520109
O5    O     O_R   0.075450 0.328820 0.667950 -0.509942
O6    O     O_R   0.075450 0.328820 0.832050 -0.516040
O7    O     O_R   0.075450 0.671180 0.332050 -0.521729
O8    O     O_R   0.075450 0.671180 0.167950 -0.518613
O9    O     O_R   0.416860 0.942890 0.674680 -0.537964
O10   O     O_R   0.416860 0.942890 0.825320 -0.534497
O11   O     O_R   0.416860 0.057110 0.325320 -0.525964
O12   O     O_R   0.416860 0.057110 0.174680 -0.519749
O13   O     O_R   0.916860 0.442890 0.674680 -0.526949
O14   O     O_R   0.916860 0.442890 0.825320 -0.523327
O15   O     O_R   0.916860 0.557110 0.325320 -0.523065
O16   O     O_R   0.916860 0.557110 0.174680 -0.525892
C1    C     C_R   0.322366 0.971317 0.648479 0.528455
C2    C     C_R   0.318830 0.966802 0.855731 0.535879
C3    C     C_R   0.319814 0.032319 0.355135 0.515136
C4    C     C_R   0.322729 0.028705 0.148693 0.530809
C5    C     C_R   0.820886 0.471293 0.648708 0.534808
C6    C     C_R   0.819298 0.467178 0.855603 0.537802
C7    C     C_R   0.818543 0.532199 0.354849 0.543174
C8    C     C_R   0.822314 0.528141 0.149103 0.538476
O17   O     O_R   0.213790 0.953680 0.668330 -0.498872
O18   O     O_R   0.213790 0.953680 0.831670 -0.516372
O19   O     O_R   0.213790 0.046320 0.331670 -0.526075
O20   O     O_R   0.213790 0.046320 0.168330 -0.513483
O21   O     O_R   0.713790 0.453680 0.668330 -0.517799
O22   O     O_R   0.713790 0.453680 0.831670 -0.525031
O23   O     O_R   0.713790 0.546320 0.331670 -0.532380
O24   O     O_R   0.713790 0.546320 0.168330 -0.510202
O25   O     O_R   0.121360 0.817890 0.672660 -0.484921
O26   O     O_R   0.121360 0.817890 0.827340 -0.490588
O27   O     O_R   0.121360 0.182110 0.327340 -0.488605
O28   O     O_R   0.121360 0.182110 0.172660 -0.508531
O29   O     O_R   0.621360 0.317890 0.672660 -0.507751
O30   O     O_R   0.621360 0.317890 0.827340 -0.490905
O31   O     O_R   0.621360 0.682110 0.327340 -0.514191
O32   O     O_R   0.621360 0.682110 0.172660 -0.512424
C9    C     C_R   0.141879 0.759526 0.641599 0.559873
C10   C     C_R   0.132796 0.756864 0.855273 0.553549
C11   C     C_R   0.133898 0.242956 0.355612 0.547688
C12   C     C_R   0.176188 0.230357 0.135552 0.566678
C13   C     C_R   0.628197 0.256769 0.646011 0.547158
C14   C     C_R   0.681028 0.270007 0.863481 0.532883
C15   C     C_R   0.633130 0.742407 0.356249 0.531306
C16   C     C_R   0.628486 0.743339 0.145946 0.536005
O33   O     O_R   0.206850 0.711370 0.665820 -0.545610
O34   O     O_R   0.206850 0.711370 0.834180 -0.522137
O35   O     O_R   0.206850 0.288630 0.334180 -0.522667
O36   O     O_R   0.206850 0.288630 0.165820 -0.484500
O37   O     O_R   0.706850 0.211370 0.665820 -0.465980
O38   O     O_R   0.706850 0.211370 0.834180 -0.509063
O39   O     O_R   0.706850 0.788630 0.334180 -0.508834
O40   O     O_R   0.706850 0.788630 0.165820 -0.468961
O41   O     O_R   0.457710 0.733190 0.672630 -0.482806
O42   O     O_R   0.457710 0.733190 0.827370 -0.398636
O43   O     O_R   0.457710 0.266810 0.327370 -0.421101
O44   O     O_R   0.457710 0.266810 0.172630 -0.465911
O45   O     O_R   0.957710 0.233190 0.672630 -0.460815
O46   O     O_R   0.957710 0.233190 0.827370 -0.430497
O47   O     O_R   0.957710 0.766810 0.327370 -0.445899
O48   O     O_R   0.957710 0.766810 0.172630 -0.466381
C17   C     C_R   0.493947 0.788120 0.638192 0.577934
C18   C     C_R   0.492653 0.789470 0.862203 0.577457
C19   C     C_R   0.492513 0.210865 0.362308 0.572831
C20   C     C_R   0.538169 0.228998 0.143498 0.561230
C21   C     C_R   0.994919 0.287680 0.637777 0.562092
C22   C     C_R   0.005790 0.284288 0.863247 0.548998
C23   C     C_R   0.002849 0.715323 0.362803 0.557886
C24   C     C_R   0.994078 0.711932 0.137755 0.564765
Cr1   Cr    Cr6+3 0.488160 0.884660 0.750000 1.029148
Cr2   Cr    Cr6+3 0.488160 0.115340 0.250000 1.001708
Cr3   Cr    Cr6+3 0.988160 0.384660 0.750000 1.003956
Cr4   Cr    Cr6+3 0.988160 0.615340 0.250000 0.994534
Cr5   Cr    Cr6+3 0.173480 0.883120 0.750000 1.057635
Cr6   Cr    Cr6+3 0.173480 0.116880 0.250000 1.026739
Cr7   Cr    Cr6+3 0.673480 0.383120 0.750000 1.031709
Cr8   Cr    Cr6+3 0.673480 0.616880 0.250000 1.005350
Cr9   Cr    Cr6+3 0.333410 0.727260 0.750000 1.070750
Cr10  Cr    Cr6+3 0.333410 0.272740 0.250000 1.096032
Cr11  Cr    Cr6+3 0.833410 0.227260 0.750000 1.101552
Cr12  Cr    Cr6+3 0.833410 0.772740 0.250000 1.089122
O49   O     O_3   0.331690 0.831680 0.750000 -0.341067
O50   O     O_3   0.331690 0.168320 0.250000 -0.321182
O51   O     O_3   0.831690 0.331680 0.750000 -0.335772
O52   O     O_3   0.831690 0.668320 0.250000 -0.309708
C25   C     C_3   0.017056 0.798542 0.480359 0.233277
C26   C     C_3   0.969969 0.782129 0.008783 0.236901
C27   C     C_3   0.970141 0.218505 0.508148 0.241281
C28   C     C_3   0.066880 0.193952 0.964971 0.239499
C29   C     C_3   0.548711 0.291038 0.471585 0.238680
C30   C     C_3   0.517928 0.296172 0.015201 0.245806
C31   C     C_3   0.637868 0.739473 0.539802 0.232922
C32   C     C_3   0.553592 0.710975 0.970700 0.235775
C33   C     C_3   0.148408 0.797372 0.505796 -0.131164
C34   C     C_3   0.099467 0.797646 0.985879 -0.109449
C35   C     C_3   0.099099 0.200354 0.485554 -0.108590
C36   C     C_3   0.191937 0.213872 0.993663 -0.133710
C37   C     C_3   0.654283 0.256444 0.509921 -0.053212
C38   C     C_3   0.646261 0.316522 0.992308 -0.127780
C39   C     C_3   0.655083 0.797208 0.484316 -0.104249
C40   C     C_3   0.656230 0.746694 0.010209 -0.049635
H1    H     H_    0.209408 0.842774 0.510948 0.121380
H2    H     H_    0.138241 0.849405 0.976450 0.133887
H3    H     H_    0.135809 0.148008 0.474911 0.138917
H4    H     H_    0.273942 0.180413 0.992454 0.109754
H5    H     H_    0.744907 0.280125 0.514106 0.124158
H6    H     H_    0.684138 0.365113 0.973092 0.123807
H7    H     H_    0.736010 0.826173 0.469108 0.216618
H8    H     H_    0.747343 0.723750 0.015356 0.125195
C41   C     C_3   0.105897 0.750672 0.567908 0.014255
C42   C     C_3   0.085223 0.743396 0.926713 0.031395
C43   C     C_3   0.088385 0.255914 0.427503 0.030407
C44   C     C_3   0.128260 0.239339 0.063119 0.021838
C45   C     C_3   0.570069 0.246086 0.575594 0.008313
C46   C     C_3   0.641051 0.258980 0.936494 0.034054
C47   C     C_3   0.585147 0.752646 0.429277 0.008849
C48   C     C_3   0.570384 0.754769 0.075584 0.009866
C49   C     C_3   0.975627 0.753656 0.543674 -0.054291
C50   C     C_3   0.955231 0.728277 0.948446 -0.126122
C51   C     C_3   0.959096 0.273592 0.449010 -0.129951
C52   C     C_3   0.002755 0.216632 0.035232 -0.133514
C53   C     C_3   0.464127 0.282786 0.536989 -0.127616
C54   C     C_3   0.512060 0.239346 0.957937 -0.105707
C55   C     C_3   0.572240 0.694019 0.484877 -0.107366
C56   C     C_3   0.467483 0.716814 0.035663 -0.130895
C57   C     C_3   0.998621 0.687619 0.497609 -0.122332
C58   C     C_3   0.002074 0.671422 0.001207 -0.174160
C59   C     C_3   0.008650 0.328298 0.502955 -0.172366
C60   C     C_3   0.987292 0.290584 0.003028 -0.205423
C61   C     C_3   0.424417 0.211146 0.505590 -0.198386
C62   C     C_3   0.565667 0.187469 0.012961 -0.156957
C63   C     C_3   0.449834 0.725907 0.509470 -0.164500
C64   C     C_3   0.423903 0.788229 0.005328 -0.196562
C65   C     C_3   0.130681 0.684709 0.523273 -0.129547
C66   C     C_3   0.133905 0.686036 0.977279 -0.108477
C67   C     C_3   0.139917 0.311173 0.479429 -0.106581
C68   C     C_3   0.112457 0.312424 0.031346 -0.068016
C69   C     C_3   0.529100 0.175593 0.546981 -0.125836
C70   C     C_3   0.695871 0.206372 0.989610 -0.123527
C71   C     C_3   0.463395 0.784220 0.451897 -0.159529
C72   C     C_3   0.525971 0.825139 0.047739 -0.129679
C73   C     C_3   0.170657 0.731074 0.459517 -0.164489
C74   C     C_3   0.146092 0.740703 0.037540 -0.157284
C75   C     C_3   0.148025 0.255330 0.538696 -0.159321
C76   C     C_3   0.174844 0.286932 0.961395 -0.082529
C77   C     C_3   0.613082 0.185112 0.480928 -0.054105
C78   C     C_3   0.700153 0.264211 0.047260 -0.189221
C79   C     C_3   0.532456 0.829078 0.507304 -0.162190
C80   C     C_3   0.611463 0.817621 0.981906 -0.058754
C81   C     C_3   0.038373 0.733816 0.434743 0.028565
C82   C     C_3   0.015268 0.726213 0.061087 0.022805
C83   C     C_3   0.017820 0.272427 0.561681 0.022565
C84   C     C_3   0.050021 0.265735 0.933858 0.043160
C85   C     C_3   0.510232 0.221616 0.440725 0.009041
C86   C     C_3   0.571167 0.245547 0.070149 0.035942
C87   C     C_3   0.519089 0.771599 0.563279 0.036950
C88   C     C_3   0.511085 0.779921 0.940753 0.008552
H9    H     H_    0.907966 0.772073 0.583046 0.220075
H10   H     H_    0.878640 0.723959 0.909896 0.177503
H11   H     H_    0.882961 0.280543 0.410494 0.161793
H12   H     H_    0.936297 0.185734 0.066767 0.131224
H13   H     H_    0.405262 0.323906 0.560468 0.134644
H14   H     H_    0.437623 0.229702 0.918974 0.132434
H15   H     H_    0.598372 0.641241 0.469272 0.156304
H16   H     H_    0.410788 0.674363 0.057888 0.121706
H17   H     H_    0.940338 0.642173 0.487817 0.170982
H18   H     H_    0.955686 0.622037 0.010949 0.145129
H19   H     H_    0.964242 0.377764 0.515044 0.142355
H20   H     H_    0.907448 0.325526 0.002916 0.108284
H21   H     H_    0.336749 0.184932 0.499218 0.114805
H22   H     H_    0.527276 0.135766 0.023987 0.151472
H23   H     H_    0.372089 0.693660 0.525717 0.129493
H24   H     H_    0.334550 0.812671 0.999068 0.111437
H25   H     H_    0.179459 0.638340 0.543338 0.140545
H26   H     H_    0.205353 0.647874 0.962889 0.161165
H27   H     H_    0.214230 0.347482 0.466103 0.172240
H28   H     H_    0.132660 0.360846 0.060510 0.193615
H29   H     H_    0.518556 0.132786 0.585690 0.141650
H30   H     H_    0.768275 0.168489 0.977354 0.181115
H31   H     H_    0.394926 0.804662 0.413523 0.119075
H32   H     H_    0.513209 0.868726 0.085664 0.135902
H33   H     H_    0.245790 0.719667 0.421238 0.144212
H34   H     H_    0.220678 0.745338 0.077314 0.138351
H35   H     H_    0.220786 0.248291 0.579326 0.141098
H36   H     H_    0.238815 0.312521 0.924106 0.210667
H37   H     H_    0.657326 0.139772 0.456101 0.223797
H38   H     H_    0.772408 0.274944 0.087308 0.127335
H39   H     H_    0.510091 0.881974 0.522807 0.151646
H40   H     H_    0.655829 0.863299 0.958048 0.221240
C89   C     C_R   0.326562 0.005991 0.430339 -0.033123
C90   C     C_R   0.340337 0.986146 0.083077 -0.040192
C91   C     C_R   0.338798 0.013470 0.582265 -0.035683
C92   C     C_R   0.322892 0.991339 0.931585 -0.003875
C93   C     C_R   0.819733 0.505217 0.429598 -0.003413
C94   C     C_R   0.836869 0.485237 0.083335 -0.036274
C95   C     C_R   0.830030 0.510741 0.581108 0.028367
C96   C     C_R   0.825368 0.492722 0.931270 -0.008005
C97   C     C_R   0.547204 0.984683 0.425473 -0.103643
C98   C     C_R   0.562648 0.999242 0.073026 -0.085007
C99   C     C_R   0.562580 0.005794 0.574597 -0.105439
C100  C     C_R   0.541005 0.021275 0.924632 -0.094166
C101  C     C_R   0.040494 0.483471 0.426412 -0.081333
C102  C     C_R   0.059824 0.488821 0.076434 -0.096481
C103  C     C_R   0.053582 0.510757 0.574278 -0.076497
C104  C     C_R   0.047011 0.510121 0.927432 -0.080283
C105  C     C_R   0.659035 0.982420 0.459572 -0.102530
C106  C     C_R   0.664826 0.014231 0.031704 -0.099175
C107  C     C_R   0.667154 0.994561 0.533745 -0.072194
C108  C     C_R   0.653821 0.026262 0.957714 -0.120008
C109  C     C_R   0.151923 0.482679 0.461077 -0.133962
C110  C     C_R   0.165006 0.499367 0.036111 -0.102806
C111  C     C_R   0.158877 0.497083 0.534765 -0.140999
C112  C     C_R   0.158406 0.510010 0.961753 -0.107460
C113  C     C_R   0.447371 0.007354 0.541261 -0.023881
C114  C     C_R   0.436890 0.002046 0.964875 -0.008601
C115  C     C_R   0.440529 0.000687 0.464825 -0.006749
C116  C     C_R   0.446674 0.995598 0.040900 -0.015271
C117  C     C_R   0.938830 0.508355 0.540656 -0.006026
C118  C     C_R   0.939386 0.495539 0.966198 -0.009856
C119  C     C_R   0.932899 0.499918 0.464806 -0.027479
C120  C     C_R   0.945506 0.488675 0.042602 -0.015098
H41   H     H_    0.738401 0.969508 0.427941 0.176160
H42   H     H_    0.751704 0.018326 0.058044 0.122174
H43   H     H_    0.753905 0.993429 0.560411 0.170065
H44   H     H_    0.732177 0.040499 0.925778 0.168298
H45   H     H_    0.232056 0.468685 0.430531 0.137661
H46   H     H_    0.251192 0.500030 0.063072 0.128373
H47   H     H_    0.245510 0.496321 0.561788 0.113491
H48   H     H_    0.238591 0.520272 0.929963 0.139313
H49   H     H_    0.544817 0.970219 0.368863 0.140477
H50   H     H_    0.575895 0.988152 0.129927 0.138802
H51   H     H_    0.573062 0.015959 0.631911 0.141578
H52   H     H_    0.535834 0.034934 0.867904 0.146207
H53   H     H_    0.038922 0.467493 0.370212 0.142051
H54   H     H_    0.069068 0.478633 0.133823 0.137711
H55   H     H_    0.062614 0.523457 0.631139 0.144116
H56   H     H_    0.046193 0.525392 0.871086 0.146033
C121  C     C_R   0.232023 0.030661 0.546956 -0.016731
C122  C     C_R   0.218090 0.981211 0.976442 -0.009266
C123  C     C_R   0.220751 0.012003 0.473968 -0.020292
C124  C     C_R   0.233894 0.965193 0.049814 -0.024958
C125  C     C_R   0.719213 0.523416 0.546204 0.052327
C126  C     C_R   0.718564 0.490307 0.974965 -0.010261
C127  C     C_R   0.710143 0.510455 0.471998 0.012210
C128  C     C_R   0.728792 0.471656 0.048010 -0.031332
C129  C     C_R   0.129562 0.052234 0.586852 -0.095718
C130  C     C_R   0.096873 0.989275 0.952565 -0.026485
C131  C     C_R   0.103142 0.000283 0.447445 -0.051813
C132  C     C_R   0.134175 0.943898 0.092434 -0.088273
C133  C     C_R   0.615599 0.546280 0.585825 -0.014956
C134  C     C_R   0.600617 0.503989 0.949269 -0.000752
C135  C     C_R   0.590709 0.506080 0.443283 -0.018218
C136  C     C_R   0.624320 0.453755 0.088113 -0.060840
C137  C     C_R   0.015395 0.038995 0.560318 -0.035378
C138  C     C_R   0.000434 0.986004 0.001198 -0.047596
C139  C     C_R   0.002457 0.015053 0.489921 0.010178
C140  C     C_R   0.018563 0.962189 0.071061 -0.054995
C141  C     C_R   0.501231 0.545445 0.555240 -0.150223
C142  C     C_R   0.502353 0.506200 0.997150 -0.040119
C143  C     C_R   0.488621 0.523490 0.484322 -0.131812
C144  C     C_R   0.514007 0.480410 0.066729 -0.036651
H57   H     H_    0.087528 0.976586 0.395285 0.185838
H58   H     H_    0.147075 0.925362 0.147347 0.136080
H59   H     H_    0.138029 0.071137 0.641965 0.151700
H60   H     H_    0.072711 0.004241 0.898569 0.229903
H61   H     H_    0.572319 0.488218 0.389175 0.222371
H62   H     H_    0.631683 0.431764 0.142014 0.143700
H63   H     H_    0.623556 0.564336 0.641258 0.182535
H64   H     H_    0.583606 0.519431 0.894342 0.226149
H65   H     H_    0.937886 0.044964 0.595520 0.171595
H66   H     H_    0.910732 0.999241 0.983225 0.171636
H67   H     H_    0.913853 0.006563 0.468118 0.197198
H68   H     H_    0.943979 0.959033 0.109067 0.158358
H69   H     H_    0.423240 0.562559 0.586292 0.111850
H70   H     H_    0.415731 0.524566 0.979356 0.146210
H71   H     H_    0.400546 0.523367 0.459575 0.124124
H72   H     H_    0.438055 0.479637 0.103792 0.137226
N1    N     N_R   0.950441 0.861552 0.465314 0.030088
O53   O     O_R   0.927742 0.880844 0.399280 -0.382634
O54   O     O_R   0.894447 0.891444 0.519147 -0.445235
N2    N     N_R   0.884038 0.838364 0.014362 0.042376
O55   O     O_R   0.834454 0.855359 0.075653 -0.360694
O56   O     O_R   0.862559 0.874748 0.956551 -0.407502
N3    N     N_R   0.881642 0.164110 0.511708 0.034351
O57   O     O_R   0.829137 0.147356 0.572065 -0.370810
O58   O     O_R   0.861623 0.128670 0.453081 -0.422830
N4    N     N_R   0.045666 0.134506 0.918945 0.059324
O59   O     O_R   0.124309 0.122011 0.867695 -0.361327
O60   O     O_R   0.935308 0.112615 0.910887 -0.418922
N5    N     N_R   0.556028 0.352808 0.427495 0.072058
O61   O     O_R   0.653058 0.362833 0.388586 -0.381232
O62   O     O_R   0.454973 0.382621 0.408673 -0.391526
N6    N     N_R   0.420613 0.346322 0.022493 0.046378
O63   O     O_R   0.366735 0.356895 0.084139 -0.368104
O64   O     O_R   0.390481 0.383223 0.966505 -0.412662
N7    N     N_R   0.723643 0.710966 0.592112 0.051691
O65   O     O_R   0.785078 0.656122 0.575730 -0.435426
O66   O     O_R   0.735955 0.736727 0.656787 -0.282855
N8    N     N_R   0.566155 0.651095 0.924220 0.058948
O67   O     O_R   0.667327 0.642302 0.888776 -0.363682
O68   O     O_R   0.467479 0.622831 0.899720 -0.393871

loop_
_geom_bond_atom_site_label_1
_geom_bond_atom_site_label_2
_geom_bond_distance
_ccdc_geom_bond_type
O46   Cr11  1.987133 S    
C72   H32   1.101814 S    
C5    O21   1.281061 A    
C47   C71   1.528885 S    
C27   N3    1.437344 S    
O26   C10   1.291942 A    
C52   H12   1.109561 S    
O1    Cr1   2.086983 S    
Cr7   O51   2.004632 S    
O6    Cr3   2.094841 S    
C16   C48   1.466726 S    
O45   C21   1.299808 A    
C59   H19   1.093729 S    
O31   C15   1.286816 A    
N2    O55   1.295156 A    
C34   C42   1.520728 S    
C133  C141  1.384422 A    
O46   C22   1.302839 A    
O3    Cr2   2.096886 S    
O48   Cr12  1.977507 S    
C48   C72   1.531989 S    
C122  C124  1.400172 A    
N3    O58   1.299245 A    
C78   C86   1.526616 S    
C98   H50   1.081908 S    
C33   H1    1.110887 S    
C102  C110  1.390959 A    
C71   C79   1.544191 S    
C8    C94   1.476033 S    
C20   C86   1.436103 S    
C9    O33   1.255347 A    
O38   Cr11  2.106707 S    
C109  C111  1.389724 A    
C43   C51   1.516109 S    
C99   C113  1.414525 A    
C2    C92   1.477736 S    
C121  C129  1.407384 A    
C97   C115  1.412805 A    
C29   C37   1.518149 S    
C4    O20   1.297516 A    
C125  C133  1.422401 A    
C101  C119  1.414235 A    
C7    O23   1.262808 A    
C8    O24   1.294087 A    
C78   H38   1.109124 S    
C51   H11   1.110368 S    
C74   C82   1.531825 S    
C49   H9    1.097024 S    
C100  C108  1.392079 A    
O13   C5    1.285182 A    
C102  H54   1.082140 S    
C55   H15   1.095455 S    
N6    O63   1.296342 A    
C70   H30   1.103319 S    
O47   C23   1.289624 A    
C136  C144  1.378802 A    
C93   C119  1.413171 A    
C41   C65   1.538400 S    
O28   C12   1.304849 A    
C79   H39   1.087075 S    
O29   C13   1.279306 A    
C58   C66   1.544683 S    
C109  H45   1.079423 S    
C132  C140  1.381280 A    
O4    C20   1.271607 A    
C65   C73   1.542164 S    
O32   C16   1.283230 A    
C35   C75   1.544303 S    
C62   H22   1.104012 S    
C33   C73   1.555605 S    
Cr12  O52   2.015316 S    
C9    C41   1.428178 S    
O11   Cr2   1.952176 S    
C76   H36   1.101633 S    
O27   Cr6   1.983596 S    
C77   H37   1.098961 S    
C34   H2    1.101635 S    
O47   Cr12  1.986728 S    
C1    O17   1.297416 A    
O31   Cr8   1.983596 S    
C40   C80   1.545628 S    
C28   C52   1.536265 S    
O25   C9    1.282173 A    
C100  H52   1.081105 S    
C80   H40   1.100922 S    
O10   C2    1.298952 A    
C68   H28   1.101804 S    
C69   H29   1.098596 S    
C67   H27   1.107174 S    
C57   C65   1.534565 S    
C54   C62   1.544494 S    
Cr8   O52   2.010729 S    
C28   N4    1.446957 S    
C61   C69   1.546127 S    
C60   H20   1.107327 S    
C23   C81   1.430719 S    
C121  C123  1.399599 A    
C61   H21   1.099634 S    
O34   Cr9   2.106707 S    
C63   H23   1.101916 S    
C64   H24   1.097762 S    
C138  H66   1.074960 S    
O43   Cr10  1.986728 S    
C11   O35   1.258369 A    
C14   C46   1.431624 S    
C31   C87   1.508962 S    
C12   C44   1.449544 S    
C133  H63   1.084042 S    
C110  C112  1.389363 A    
O33   Cr9   2.115719 S    
O8    Cr4   2.091950 S    
C52   C60   1.555511 S    
C98   C116  1.414235 A    
O43   C19   1.314936 A    
C10   C42   1.440455 S    
O13   Cr3   1.954119 S    
C102  C120  1.409522 A    
O1    C17   1.317266 A    
O27   C11   1.292527 A    
C131  H57   1.079772 S    
C12   O36   1.301571 A    
C63   C71   1.555237 S    
Cr5   O49   2.004632 S    
C27   C51   1.528921 S    
C106  H42   1.079520 S    
C99   C107  1.391162 A    
C32   N8    1.444198 S    
C5    C95   1.464912 S    
C97   C105  1.387786 A    
C31   C39   1.525444 S    
N8    O68   1.301797 A    
C36   H4    1.109623 S    
C123  C131  1.407498 A    
C58   C82   1.536170 S    
C40   H8    1.101314 S    
C93   C127  1.439960 A    
C73   H33   1.107661 S    
C79   C87   1.523258 S    
C53   H13   1.109980 S    
N5    O61   1.301045 A    
C132  H58   1.084431 S    
C114  C116  1.412655 A    
O41   C17   1.299615 A    
C29   N5    1.446008 S    
C19   C85   1.475158 S    
C118  C120  1.417664 A    
Cr1   O49   2.009113 S    
O2    Cr1   2.094841 S    
C10   O34   1.257307 A    
O22   Cr7   2.080460 S    
Cr3   O51   2.009113 S    
C62   C86   1.540049 S    
C103  C117  1.412974 A    
C106  C108  1.390507 A    
C91   C113  1.418024 A    
C75   C83   1.530368 S    
C13   C45   1.465964 S    
C89   C115  1.414911 A    
C49   C57   1.550584 S    
C6    O22   1.274276 A    
O16   Cr4   1.955822 S    
O2    C18   1.311930 A    
O7    Cr4   2.096886 S    
C103  H55   1.082075 S    
N1    O54   1.300462 A    
C50   H10   1.110076 S    
C36   C44   1.537737 S    
C129  H59   1.084364 S    
N2    O56   1.299613 A    
C130  H60   1.071921 S    
C72   C80   1.540555 S    
C144  H72   1.079057 S    
C57   C81   1.527079 S    
O25   Cr5   1.989963 S    
C66   C74   1.538515 S    
C60   C84   1.524874 S    
C61   C85   1.536227 S    
C42   C66   1.544731 S    
O30   C14   1.316214 A    
C59   C67   1.544196 S    
C140  H68   1.080363 S    
C141  H69   1.081827 S    
C134  C142  1.395559 A    
C27   C35   1.520025 S    
C45   C53   1.541749 S    
Cr9   O49   2.015182 S    
C47   C55   1.534364 S    
Cr11  O51   2.015182 S    
O12   Cr2   1.955822 S    
C2    O18   1.268897 A    
O19   Cr6   2.080245 S    
O23   Cr8   2.080245 S    
O11   C3    1.294574 A    
C6    C96   1.481764 S    
C55   C63   1.547713 S    
C56   C64   1.562969 S    
O26   Cr5   1.987860 S    
C35   C43   1.520799 S    
O10   Cr1   1.947478 S    
O30   Cr7   1.987860 S    
C37   H5    1.103576 S    
C32   C56   1.529522 S    
C39   H7    1.090628 S    
N4    O59   1.301906 A    
C30   N6    1.448461 S    
O5    C21   1.318283 A    
C131  C139  1.384888 A    
C94   C128  1.386888 A    
C139  H67   1.071626 S    
C26   C82   1.532190 S    
C39   C79   1.541428 S    
N6    O64   1.298907 A    
O15   Cr4   1.952176 S    
C91   C121  1.387830 A    
C101  C109  1.388118 A    
C30   C86   1.526465 S    
C89   C123  1.419023 A    
C104  H56   1.080730 S    
C105  H41   1.078158 S    
O40   Cr12  2.114709 S    
C39   C47   1.541346 S    
O8    C24   1.317115 A    
C122  C130  1.417729 A    
C24   C82   1.459102 S    
O45   Cr11  1.978222 S    
O42   Cr9   1.987133 S    
C90   C116  1.416941 A    
C126  C134  1.410813 A    
C75   H35   1.108720 S    
Cr10  O50   2.015316 S    
C136  H62   1.084740 S    
C92   C122  1.432605 A    
C71   H31   1.109243 S    
O5    Cr3   2.086983 S    
C94   C120  1.413247 A    
N7    O65   1.289645 A    
C99   H51   1.081939 S    
C62   C70   1.542567 S    
C97   H49   1.081156 S    
N3    O57   1.294502 A    
O21   Cr7   2.079345 S    
C14   O38   1.284141 A    
C103  C111  1.392674 A    
C101  H53   1.081572 S    
C38   C78   1.550262 S    
C125  C127  1.395432 A    
C111  H47   1.079880 S    
C38   H6    1.087002 S    
C110  H46   1.075023 S    
O6    C22   1.289058 A    
C44   C52   1.543850 S    
C51   C59   1.552670 S    
C74   H34   1.108652 S    
C129  C137  1.377805 A    
C54   H14   1.109772 S    
C92   C114  1.417604 A    
C48   C56   1.542613 S    
C60   C68   1.538467 S    
C35   H3    1.104087 S    
C25   N1    1.446307 S    
O37   Cr11  2.115719 S    
C37   C45   1.536842 S    
O14   Cr3   1.947478 S    
C70   C78   1.541990 S    
C59   C83   1.532578 S    
C64   C72   1.549084 S    
O14   C6    1.296249 A    
C25   C49   1.524183 S    
C58   H18   1.097893 S    
C143  H71   1.075292 S    
C134  H64   1.073582 S    
C29   C53   1.530542 S    
C108  H44   1.080202 S    
C31   C55   1.526315 S    
O44   C20   1.264598 A    
N5    O62   1.301321 A    
C22   C84   1.438180 S    
C76   C84   1.526764 S    
O39   Cr12  2.104848 S    
C77   C85   1.528513 S    
C40   C48   1.537327 S    
C127  C135  1.424884 A    
C80   C88   1.530978 S    
C45   C69   1.529300 S    
C17   C87   1.443369 S    
C68   C76   1.539132 S    
C18   C88   1.475761 S    
C69   C77   1.538753 S    
O29   Cr7   1.989963 S    
C67   C75   1.538564 S    
C21   C83   1.454797 S    
C90   C124  1.388515 A    
O17   Cr5   2.079345 S    
C57   H17   1.104491 S    
C26   C34   1.518617 S    
O7    C23   1.295743 A    
O24   Cr8   2.075441 S    
C142  H70   1.070962 S    
C37   C77   1.546905 S    
C11   C43   1.437257 S    
O44   Cr10  1.977507 S    
O42   C18   1.320998 A    
O32   Cr8   1.989078 S    
C95   C117  1.410847 A    
O20   Cr6   2.075441 S    
Cr4   O52   2.002898 S    
O4    Cr2   2.091950 S    
C38   C46   1.515067 S    
C73   C81   1.531753 S    
Cr6   O50   2.010729 S    
O15   C7    1.304846 A    
O16   C8    1.277054 A    
C107  H43   1.078073 S    
O36   Cr10  2.114709 S    
C26   C50   1.531699 S    
O12   C4    1.271385 A    
O9    Cr1   1.954119 S    
C98   C106  1.389174 A    
C4    C90   1.473870 S    
C30   C54   1.523726 S    
C126  C128  1.399987 A    
O18   Cr5   2.080460 S    
C26   N2    1.441659 S    
C96   C126  1.425288 A    
C141  C143  1.382537 A    
C142  C144  1.383457 A    
C34   C74   1.543608 S    
N1    O53   1.299280 A    
C25   C33   1.525068 S    
C137  C139  1.386116 A    
C64   C88   1.535413 S    
C138  C140  1.383815 A    
C27   C83   1.530166 S    
C63   C87   1.535082 S    
C25   C81   1.522442 S    
C96   C118  1.416910 A    
C41   C49   1.507719 S    
C28   C84   1.511200 S    
Cr2   O50   2.002898 S    
C29   C85   1.517873 S    
N7    O66   1.299940 A    
O35   Cr10  2.104848 S    
O9    C1    1.273581 A    
C32   C88   1.514843 S    
C3    C89   1.479966 S    
C100  C114  1.415407 A    
O41   Cr9   1.978222 S    
C1    C91   1.479014 S    
C33   C41   1.531305 S    
C66   H26   1.107945 S    
C3    O19   1.276968 A    
C28   C36   1.529933 S    
C15   O39   1.274923 A    
C135  H61   1.076087 S    
C53   C61   1.563294 S    
C16   O40   1.285754 A    
N8    O67   1.301302 A    
C124  C132  1.411628 A    
C31   N7    1.461059 S    
O3    C19   1.313220 A    
C43   C67   1.544429 S    
C46   C70   1.536040 S    
C128  C136  1.410679 A    
C113  C115  1.418127 A    
C7    C93   1.474496 S    
C137  H65   1.077006 S    
C32   C40   1.516644 S    
C117  C119  1.410338 A    
O28   Cr6   1.989078 S    
C135  C143  1.393928 A    
C36   C76   1.542251 S    
C15   C47   1.458151 S    
C105  C107  1.391317 A    
C50   C58   1.555878 S    
N4    O60   1.299032 A    
O48   C24   1.299916 A    
C95   C125  1.404970 A    
C104  C118  1.412358 A    
C13   O37   1.285283 A    
C42   C50   1.516448 S    
C65   H25   1.107396 S    
C104  C112  1.384814 A    
C56   H16   1.110051 S    
C112  H48   1.077984 S    
C46   C54   1.524238 S    
C130  C138  1.390041 A    
C30   C38   1.528085 S    
C44   C68   1.537528 S    
