data_mof_unit_9828.cif
_audit_creation_date              2012-10-26T21:25:50-0400
_audit_creation_method            fapswitch 2.2
_symmetry_space_group_name_H-M    P1
_symmetry_Int_Tables_number       1
_space_group_crystal_system       triclinic
_cell_length_a                    10.862674
_cell_length_b                    10.821818
_cell_length_c                    12.720198
_cell_angle_alpha                 92.940421
_cell_angle_beta                  93.054124
_cell_angle_gamma                 87.473838
_cell_volume                      1489.9369325

loop_
_atom_site_label
_atom_site_type_symbol
_atom_type_description
_atom_site_fract_x
_atom_site_fract_y
_atom_site_fract_z
_atom_type_partial_charge
C1    C     C_R   0.262019 0.496762 0.500661 0.553396
C2    C     C_R   0.794986 0.707831 0.330707 -0.109254
C3    C     C_R   0.135177 0.403676 0.682517 -0.020593
C4    C     C_R   0.864828 0.596277 0.317476 -0.020595
C5    C     C_R   0.121965 0.457024 0.784439 -0.135020
C6    C     C_R   0.878033 0.542925 0.215564 -0.135007
C7    C     C_R   0.176026 0.398411 0.871910 -0.118762
C8    C     C_R   0.823953 0.601522 0.128103 -0.118787
C9    C     C_R   0.242041 0.285094 0.858686 0.269349
C10   C     C_R   0.757919 0.714816 0.141326 0.269345
C11   C     C_R   0.940521 0.467697 0.588311 -0.125653
C12   C     C_R   0.737982 0.503242 0.499338 0.553402
C13   C     C_R   0.059484 0.532309 0.411684 -0.125625
C14   C     C_R   0.871557 0.505955 0.498664 0.023119
C15   C     C_R   0.128446 0.494044 0.501329 0.023138
C16   C     C_R   0.502256 0.262026 0.500761 0.570742
C17   C     C_R   0.497719 0.737975 0.499240 0.570744
C18   C     C_R   0.931391 0.540834 0.409687 -0.011346
C19   C     C_R   0.068613 0.459146 0.590303 -0.011357
C20   C     C_2   0.500600 0.452818 0.032942 -0.111140
C21   C     C_2   0.499395 0.547178 0.967058 -0.111114
C22   C     C_1   0.512594 0.529503 0.852249 0.235513
C23   C     C_R   0.499115 0.871410 0.497959 0.008843
C24   C     C_1   0.487404 0.470494 0.147751 0.235633
C25   C     C_R   0.916339 0.157880 0.638107 -0.137244
C26   C     C_R   0.083571 0.842278 0.361794 -0.137191
C27   C     C_R   0.814245 0.118515 0.576208 -0.079340
C28   C     C_R   0.185649 0.881633 0.423725 -0.079272
C29   C     C_R   0.697047 0.124161 0.617964 0.023221
C30   C     C_R   0.302886 0.875843 0.382049 0.023161
C31   C     C_R   0.682452 0.173419 0.721057 0.014764
C32   C     C_R   0.317530 0.826446 0.279010 0.014754
C33   C     C_R   0.784601 0.215243 0.782110 0.266615
C34   C     C_R   0.500836 0.128593 0.502049 0.008813
C35   C     C_R   0.215396 0.784613 0.217936 0.266601
C36   C     C_R   0.901723 0.205276 0.741222 -0.055937
C37   C     C_R   0.098240 0.794730 0.258737 -0.055925
C38   C     C_R   0.593218 0.932847 0.556715 0.236718
C39   C     C_R   0.406726 0.067160 0.443299 0.236690
C40   C     C_R   0.405756 0.938028 0.440874 -0.017120
C41   C     C_R   0.594179 0.061976 0.559144 -0.017149
C42   C     C_R   0.257349 0.232162 0.756775 0.257679
C43   C     C_R   0.742617 0.767747 0.243224 0.257692
C44   C     C_R   0.205012 0.292104 0.669283 -0.109273
Cl1   Cl    Cl    0.766745 0.276437 0.911030 -0.569409
Cl2   Cl    Cl    0.233315 0.723222 0.089089 -0.569661
Cl3   Cl    Cl    0.713273 0.847975 0.625426 -0.538419
Cl4   Cl    Cl    0.286694 0.152046 0.374568 -0.538448
Cl5   Cl    Cl    0.299389 0.208598 0.970904 -0.434116
Cl6   Cl    Cl    0.700541 0.791291 0.029125 -0.434238
Cl7   Cl    Cl    0.336039 0.088088 0.736656 -0.534799
Cl8   Cl    Cl    0.663874 0.911783 0.263331 -0.534773
Cu1   Cu    Cu3+1 0.492140 0.492110 0.395880 1.080001
Cu2   Cu    Cu3+1 0.507860 0.507890 0.604120 1.079997
H1    H     H_    0.981165 0.233975 0.789479 0.163813
H2    H     H_    0.514570 0.358754 0.000884 0.216510
H3    H     H_    0.006859 0.149518 0.606431 0.143441
H4    H     H_    0.993025 0.850774 0.393393 0.143501
H5    H     H_    0.827127 0.078670 0.497457 0.161575
H6    H     H_    0.172728 0.921593 0.502428 0.161625
H7    H     H_    0.592781 0.176501 0.754602 0.200403
H8    H     H_    0.407233 0.823261 0.245521 0.200405
H9    H     H_    0.214794 0.249457 0.591127 0.163885
H10   H     H_    0.785217 0.750483 0.408854 0.163898
H11   H     H_    0.018812 0.766032 0.210457 0.163850
H12   H     H_    0.068223 0.542860 0.796179 0.177811
H13   H     H_    0.931782 0.457103 0.203822 0.177831
H14   H     H_    0.163862 0.439651 0.950241 0.189886
H15   H     H_    0.836110 0.560284 0.049780 0.189830
H16   H     H_    0.894200 0.439773 0.656091 0.148879
H17   H     H_    0.105806 0.560250 0.343911 0.148899
H18   H     H_    0.485430 0.641242 0.999117 0.216607
N1    N     N_1   0.480320 0.480250 0.239400 -0.161789
N2    N     N_1   0.519680 0.519750 0.760600 -0.161818
O1    O     O_R   0.313000 0.493330 0.412070 -0.487710
O2    O     O_R   0.687000 0.506670 0.587930 -0.487712
O3    O     O_R   0.326280 0.506660 0.587930 -0.500225
O4    O     O_R   0.673720 0.493340 0.412070 -0.500235
O5    O     O_R   0.493370 0.312980 0.412070 -0.431382
O6    O     O_R   0.506630 0.687020 0.587930 -0.431366
O7    O     O_R   0.506650 0.326310 0.587930 -0.526874
O8    O     O_R   0.493350 0.673690 0.412070 -0.526901

loop_
_geom_bond_atom_site_label_1
_geom_bond_atom_site_label_2
_ccdc_geom_bond_type
C27   C29   A    
C33   Cl1   S    
C31   H7    S    
C20   H2    S    
C11   H16   S    
Cu1   Cu2   S    
C15   C19   A    
C11   C19   A    
C8    H15   S    
C17   C23   S    
C25   H3    S    
C13   C18   A    
C35   C37   A    
C11   C14   A    
C43   Cl8   S    
C23   C40   A    
C33   C36   A    
C1    O3    A    
Cu1   O5    S    
C17   O8    A    
C14   C18   A    
C16   C34   S    
C7    H14   S    
Cu2   N2    S    
C20   C24   S    
C37   H11   S    
C31   C33   A    
C3    C19   S    
C1    C15   S    
C42   Cl7   S    
Cu2   O3    S    
C4    C18   S    
C21   C22   S    
Cu1   O1    S    
C34   C41   A    
C42   C44   A    
C2    H10   S    
Cu2   O6    S    
C28   H6    S    
C44   H9    S    
C3    C44   A    
C21   H18   S    
C34   C39   A    
C1    O1    A    
C32   C35   A    
C9    Cl5   S    
C38   C41   A    
C4    C6    A    
C39   C40   A    
C5    C7    A    
C6    C8    A    
C13   H17   S    
C17   O6    A    
C12   O4    A    
Cu1   O8    S    
C2    C4    A    
C2    C43   A    
C9    C42   A    
C30   C40   S    
C26   H4    S    
C38   Cl3   S    
Cu2   O2    S    
C6    H13   S    
C12   C14   S    
C13   C15   A    
C12   O2    A    
C22   N2    T    
C10   Cl6   S    
C7    C9    A    
C29   C41   S    
C10   C43   A    
Cu1   N1    S    
C5    H12   S    
C3    C5    A    
C26   C37   A    
C25   C27   A    
C23   C38   A    
C26   C28   A    
C16   O5    A    
C28   C30   A    
Cu1   O4    S    
C32   H8    S    
C29   C31   A    
C36   H1    S    
C27   H5    S    
C30   C32   A    
C16   O7    A    
C24   N1    T    
C25   C36   A    
C20   C21   D    
C8    C10   A    
C35   Cl2   S    
Cu2   O7    S    
C39   Cl4   S    
