data_mof_unit_27604.cif
_audit_creation_date              2012-12-10T19:12:23-0500
_audit_creation_method            fapswitch 2.2
_symmetry_space_group_name_H-M    P1
_symmetry_Int_Tables_number       1
_space_group_crystal_system       triclinic
_cell_length_a                    15.662639
_cell_length_b                    10.816892
_cell_length_c                    9.985823
_cell_angle_alpha                 84.896713
_cell_angle_beta                  91.244356
_cell_angle_gamma                 89.039969
_cell_volume                      1684.40842246

loop_
_atom_site_label
_atom_site_type_symbol
_atom_type_description
_atom_site_fract_x
_atom_site_fract_y
_atom_site_fract_z
_atom_type_partial_charge
C1    C     C_R   0.495626 0.257690 0.504087 0.915850
C2    C     C_3   0.083373 0.491092 0.501146 0.050493
C3    C     C_3   0.973135 0.588708 0.571136 -0.174897
C4    C     C_3   0.916674 0.494398 0.506380 0.063976
C5    C     C_3   0.026314 0.600274 0.441442 -0.152880
C6    C     C_3   0.968110 0.506311 0.376568 -0.154991
C7    C     C_1   0.174306 0.493723 0.497758 -0.009345
C8    C     C_1   0.825729 0.498092 0.505717 0.044019
C9    C     C_3   0.584229 0.068645 0.504754 -0.445739
C10   C     C_3   0.585405 0.927139 0.495200 -0.203534
C11   C     C_3   0.441186 0.052961 0.625582 -0.206932
C12   C     C_R   0.338565 0.500430 0.498704 0.972899
C13   C     C_3   0.445273 0.085094 0.368216 -0.273504
C14   C     C_3   0.490989 0.119378 0.505116 -0.018001
C15   C     C_3   0.491572 0.877690 0.488074 -0.060055
C16   C     C_3   0.436427 0.914512 0.607188 -0.353432
C17   C     C_3   0.449717 0.941406 0.355848 -0.305452
C18   C     C_3   0.494839 0.373808 0.099456 -0.274872
C19   C     C_3   0.489074 0.366170 0.939700 -0.224036
C20   C     C_3   0.424065 0.572773 0.070781 -0.207567
C21   C     C_3   0.578172 0.553702 0.080689 -0.191876
C22   C     C_3   0.429113 0.581752 0.910855 -0.209671
C23   C     C_R   0.495596 0.741252 0.494715 0.844349
C24   C     C_3   0.579098 0.554409 0.920662 -0.228196
C25   C     C_R   0.661375 0.500313 0.501223 0.940282
C26   C     C_3   0.973540 0.385683 0.565981 -0.133190
C27   C     C_3   0.026266 0.397849 0.437364 -0.065415
C28   C     C_1   0.249634 0.497223 0.496822 -0.111198
C29   C     C_1   0.750311 0.499685 0.504006 -0.043129
C30   C     C_3   0.031332 0.479327 0.629589 -0.075127
H1    H     H_    0.483992 0.125480 0.283402 0.162569
H2    H     H_    0.631845 0.494250 0.125979 0.183806
H3    H     H_    0.940191 0.517514 0.272937 0.199740
N1    N     N_3   0.498170 0.499750 0.138610 -0.158639
N2    N     N_3   0.498850 0.496730 0.861320 -0.173471
O1    O     O_R   0.499980 0.314910 0.616040 -0.611095
O2    O     O_R   0.500040 0.314680 0.383960 -0.663441
O3    O     O_R   0.376750 0.500100 0.616020 -0.568167
O4    O     O_R   0.376810 0.499870 0.383940 -0.616860
O5    O     O_R   0.499960 0.685320 0.616040 -0.612823
O6    O     O_R   0.500020 0.685090 0.383960 -0.627815
O7    O     O_R   0.623190 0.500130 0.616060 -0.643105
O8    O     O_R   0.623250 0.499900 0.383980 -0.604607
Zn1   Zn    Zn3+2 0.499960 0.500150 0.654960 0.986011
Zn2   Zn    Zn3+2 0.500040 0.499850 0.345040 0.971132
C31   C     C_2   0.056980 0.291627 0.363387 0.937720
O9    O     O_2   0.040151 0.290057 0.243489 -0.574074
O10   O     O_R   0.104097 0.194392 0.432511 -0.747647
H4    H     H_    0.120987 0.127794 0.372301 0.369834
C32   C     C_2   0.645978 0.859602 0.598479 0.998385
O11   O     O_2   0.627622 0.844607 0.716892 -0.534669
O12   O     O_R   0.724318 0.814904 0.556256 -0.811185
H5    H     H_    0.761620 0.775993 0.633353 0.368810
C33   C     C_2   0.474445 0.058184 0.767161 0.959126
O13   O     O_2   0.550170 0.041046 0.793918 -0.498958
O14   O     O_R   0.415318 0.046150 0.870271 -0.749273
H6    H     H_    0.442696 0.023812 0.962298 0.400213
H7    H     H_    0.454792 0.858138 0.702460 0.233337
C34   C     C_2   0.356506 0.144303 0.341064 0.980672
O15   O     O_2   0.319866 0.133772 0.233463 -0.512676
O16   O     O_R   0.318275 0.215847 0.433769 -0.815882
H8    H     H_    0.262011 0.254879 0.398825 0.373352
H9    H     H_    0.494975 0.927031 0.273587 0.190381
C35   C     C_2   0.366801 0.884776 0.309628 1.006121
O17   O     O_2   0.361261 0.853413 0.195271 -0.546125
O18   O     O_R   0.295806 0.874467 0.391972 -0.817620
H10   H     H_    0.245173 0.836303 0.347164 0.362325
H11   H     H_    0.375083 0.091160 0.623968 0.204281
H12   H     H_    0.368880 0.889917 0.593354 0.246001
H13   H     H_    0.443970 0.323907 0.154574 0.236946
C36   C     C_2   0.943553 0.266231 0.636315 0.956754
O19   O     O_2   0.995880 0.187037 0.680385 -0.516048
O20   O     O_R   0.856273 0.246076 0.651401 -0.791532
H14   H     H_    0.844253 0.162266 0.700438 0.373148
H15   H     H_    0.552341 0.324845 0.147451 0.189783
C37   C     C_2   0.556735 0.263107 0.919774 0.943978
O21   O     O_2   0.559902 0.171659 0.001547 -0.574071
O22   O     O_R   0.613950 0.261626 0.816025 -0.686192
H16   H     H_    0.612161 0.338854 0.756681 0.349249
C38   C     C_2   0.403897 0.306985 0.903175 0.999460
O23   O     O_2   0.360044 0.254366 0.989611 -0.502352
O24   O     O_R   0.377142 0.303768 0.770039 -0.748598
H17   H     H_    0.320032 0.262311 0.759817 0.383834
C39   C     C_2   0.336281 0.538380 0.124709 1.011662
O25   O     O_2   0.312202 0.431388 0.135406 -0.559891
O26   O     O_R   0.280928 0.632674 0.159162 -0.764058
H18   H     H_    0.224139 0.600137 0.192495 0.344947
C40   C     C_2   0.341690 0.586860 0.840545 1.003242
O27   O     O_2   0.291269 0.502371 0.857861 -0.588668
O28   O     O_R   0.316510 0.694461 0.760048 -0.800281
H19   H     H_    0.256780 0.689174 0.719964 0.354538
C41   C     C_2   0.598875 0.681265 0.125263 0.970795
O29   O     O_2   0.557496 0.773678 0.081930 -0.622287
O30   O     O_R   0.670261 0.694151 0.209077 -0.770183
H20   H     H_    0.679307 0.783248 0.229237 0.354319
C42   C     C_2   0.667799 0.511460 0.882707 0.928350
O31   O     O_2   0.701330 0.417187 0.938684 -0.592432
O32   O     O_R   0.717587 0.592223 0.801338 -0.771158
H21   H     H_    0.777629 0.558529 0.790649 0.348222
H22   H     H_    0.579875 0.652784 0.877589 0.209114
H23   H     H_    0.428979 0.668762 0.099045 0.205055
H24   H     H_    0.448069 0.679403 0.883201 0.164769
H25   H     H_    0.049916 0.688002 0.390181 0.177241
H26   H     H_    0.949257 0.666693 0.626064 0.188724
C43   C     C_2   0.069046 0.463517 0.769447 0.973241
O33   O     O_2   0.053269 0.540156 0.848710 -0.590450
O34   O     O_R   0.122184 0.360957 0.808131 -0.707896
H27   H     H_    0.143333 0.359659 0.904937 0.399646
H28   H     H_    0.622099 0.095262 0.592513 0.241004
H29   H     H_    0.617213 0.113655 0.415906 0.180214
H30   H     H_    0.614917 0.912025 0.397334 0.143355

loop_
_geom_bond_atom_site_label_1
_geom_bond_atom_site_label_2
_ccdc_geom_bond_type
C3    H26   S    
C18   H13   S    
C5    H25   S    
C18   H15   S    
O20   H14   S    
C2    C7    S    
C4    C8    S    
C25   O8    A    
O12   H5    S    
C22   N2    S    
C43   O34   S    
C26   C27   S    
C12   C28   S    
C8    C29   T    
C37   O22   S    
C19   C37   S    
C39   O26   S    
C10   C15   S    
C24   C42   S    
C17   C35   S    
C5    C6    S    
C11   C14   S    
C15   C16   S    
O32   H21   S    
O14   H6    S    
C18   C19   S    
C33   O13   D    
C42   O32   S    
C32   O12   S    
O34   H27   S    
C2    C27   S    
C22   C40   S    
C9    C10   S    
C1    O2    A    
O4    Zn2   S    
C20   N1    S    
C15   C23   S    
O18   H10   S    
C34   O15   D    
C13   C14   S    
C9    H28   S    
C26   C36   S    
C19   C38   S    
O7    Zn1   S    
C31   O10   S    
C25   C29   S    
C21   H2    S    
C33   O14   S    
C34   O16   S    
C24   N2    S    
C37   O21   D    
C4    C6    S    
C36   O20   S    
O26   H18   S    
C21   N1    S    
C7    C28   T    
C35   O18   S    
C3    C30   S    
C9    C14   S    
O3    Zn1   S    
C18   N1    S    
C11   C16   S    
C6    C27   S    
C42   O31   D    
C41   O30   S    
C32   O11   D    
C10   H30   S    
N1    Zn2   S    
C16   H7    S    
C39   O25   D    
N2    Zn1   S    
O8    Zn2   S    
C11   C33   S    
C13   C34   S    
C27   C31   S    
C38   O24   S    
O10   H4    S    
C20   C22   S    
C26   C30   S    
O30   H20   S    
C20   C39   S    
C30   C43   S    
O1    Zn1   S    
C2    C5    S    
O2    Zn2   S    
C3    C4    S    
C10   C32   S    
C11   H11   S    
C9    H29   S    
C15   C17   S    
C31   O9    D    
C24   H22   S    
C13   H1    S    
C16   H12   S    
C40   O28   S    
C38   O23   D    
C3    C5    S    
C23   O6    A    
C25   O7    A    
C4    C26   S    
C20   H23   S    
C43   O33   D    
C22   H24   S    
C6    H3    S    
C13   C17   S    
C2    C30   S    
C35   O17   D    
C12   O4    A    
C36   O19   D    
C19   N2    S    
C17   H9    S    
O22   H16   S    
O28   H19   S    
C41   O29   D    
C12   O3    A    
O16   H8    S    
O5    Zn1   S    
C40   O27   D    
O24   H17   S    
C21   C24   S    
O6    Zn2   S    
C1    C14   S    
C23   O5    A    
C1    O1    A    
C21   C41   S    
