data_mof_unit_52127.cif
_audit_creation_date              2012-12-11T16:37:18-0500
_audit_creation_method            fapswitch 2.2
_symmetry_space_group_name_H-M    P1
_symmetry_Int_Tables_number       1
_space_group_crystal_system       triclinic
_cell_length_a                    19.480373
_cell_length_b                    6.950368
_cell_length_c                    17.669944
_cell_angle_alpha                 89.996401
_cell_angle_beta                  108.865371
_cell_angle_gamma                 90.004481
_cell_volume                      2263.9161654

loop_
_atom_site_label
_atom_site_type_symbol
_atom_type_description
_atom_site_fract_x
_atom_site_fract_y
_atom_site_fract_z
_atom_type_partial_charge
O1    O     O_R   0.561710 0.369960 0.440200 -0.533693
O2    O     O_R   0.061710 0.630040 0.940200 -0.533736
O3    O     O_R   0.412630 0.033330 0.406330 -0.543495
O4    O     O_R   0.912630 0.966670 0.906330 -0.543766
O5    O     O_R   0.438290 0.869790 0.559800 -0.538570
O6    O     O_R   0.938290 0.130210 0.059800 -0.538565
C1    C     C_R   0.384611 0.203104 0.383587 0.691280
C2    C     C_R   0.884610 0.796893 0.883587 0.690396
O7    O     O_R   0.559570 0.039810 0.430640 -0.539448
O8    O     O_R   0.059570 0.960190 0.930640 -0.538022
O9    O     O_R   0.586280 0.876320 0.584290 -0.538274
O10   O     O_R   0.086280 0.123680 0.084290 -0.538193
C3    C     C_R   0.580950 0.208708 0.415863 0.685389
C4    C     C_R   0.080952 0.791309 0.915870 0.685565
O11   O     O_R   0.413720 0.363440 0.415710 -0.538393
O12   O     O_R   0.913720 0.636560 0.915710 -0.538568
O13   O     O_3   0.508590 0.205630 0.550380 -0.368213
O14   O     O_3   0.008590 0.794370 0.050380 -0.368444
V1    V     V_3+5 0.498410 0.928130 0.490650 1.407671
V2    V     V_3+5 0.998410 0.071870 0.990650 1.411346
O15   O     O_R   0.587370 0.546990 0.593670 -0.540254
O16   O     O_R   0.087370 0.453010 0.093670 -0.540363
C5    C     C_R   0.615582 0.716781 0.616410 0.701286
C6    C     C_R   0.115582 0.283222 0.116410 0.702317
O17   O     O_R   0.440430 0.540520 0.569360 -0.542456
O18   O     O_R   0.940430 0.459480 0.069360 -0.542707
C7    C     C_R   0.418786 0.708928 0.584470 0.698514
C8    C     C_R   0.918787 0.291052 0.084484 0.699190
V3    V     V_3+5 0.501590 0.428960 0.509350 1.411583
V4    V     V_3+5 0.001590 0.571040 0.009350 1.412849
O19   O     O_3   0.491410 0.701330 0.449620 -0.368109
O20   O     O_3   0.991410 0.298670 0.949620 -0.367869
C9    C     C_R   0.280842 0.890347 0.678425 -0.151954
C10   C     C_R   0.781233 0.109110 0.178958 -0.115766
H1    H     H_    0.251151 0.021979 0.678000 0.152704
H2    H     H_    0.751591 0.977445 0.178604 0.137352
C11   C     C_R   0.329164 0.884466 0.634696 -0.134657
C12   C     C_R   0.829484 0.115102 0.135136 -0.132782
H3    H     H_    0.334707 0.010999 0.601356 0.124003
H4    H     H_    0.835151 0.988417 0.101952 0.121283
C13   C     C_R   0.369048 0.717271 0.633177 -0.077433
C14   C     C_R   0.869092 0.282633 0.133268 -0.082075
C15   C     C_R   0.359242 0.555705 0.676519 -0.208287
C16   C     C_R   0.859084 0.444387 0.176388 -0.204715
H5    H     H_    0.388639 0.424339 0.674681 0.154247
H6    H     H_    0.888275 0.575979 0.174292 0.153189
C17   C     C_R   0.310758 0.559399 0.720922 0.023667
C18   C     C_R   0.810696 0.440504 0.221013 0.017768
C19   C     C_R   0.271661 0.731072 0.723383 0.001282
C20   C     C_R   0.771819 0.268669 0.223619 0.010209
C21   C     C_R   0.245906 0.688990 0.853878 -0.070697
C22   C     C_R   0.746295 0.308784 0.354257 -0.066847
H7    H     H_    0.299701 0.629824 0.880983 0.106794
H8    H     H_    0.800292 0.366599 0.381513 0.112037
C23   C     C_R   0.199173 0.699751 0.899577 -0.152343
C24   C     C_R   0.699539 0.298053 0.399939 -0.161956
H9    H     H_    0.217356 0.646563 0.960483 0.098186
H10   H     H_    0.717952 0.349607 0.461083 0.098921
C25   C     C_R   0.130027 0.781605 0.867465 -0.042624
C26   C     C_R   0.630035 0.218443 0.367463 -0.038688
C27   C     C_R   0.108309 0.853191 0.789037 -0.142965
C28   C     C_R   0.607953 0.149226 0.288660 -0.154877
H11   H     H_    0.055224 0.917775 0.763359 0.105800
H12   H     H_    0.554587 0.086411 0.262696 0.108812
C29   C     C_R   0.154073 0.836203 0.742277 -0.084576
C30   C     C_R   0.653765 0.166216 0.241951 -0.130272
H13   H     H_    0.135063 0.887215 0.681101 0.113267
H14   H     H_    0.634586 0.116836 0.180548 0.117085
C31   C     C_R   0.223124 0.751103 0.773692 0.106471
C32   C     C_R   0.723218 0.248763 0.273807 0.111417
C33   C     C_R   0.768309 0.623298 0.811348 0.108514
C34   C     C_R   0.268314 0.376689 0.311348 0.109731
C35   C     C_R   0.814274 0.782710 0.817840 -0.111764
C36   C     C_R   0.314274 0.217286 0.317840 -0.112028
C37   C     C_R   0.790431 0.927910 0.759852 -0.183504
C38   C     C_R   0.290429 0.072099 0.259850 -0.184008
H15   H     H_    0.823693 0.053538 0.762104 0.134449
H16   H     H_    0.323688 0.946480 0.262101 0.134180
C39   C     C_R   0.725869 0.905592 0.694877 -0.169737
C40   C     C_R   0.225867 0.094421 0.194875 -0.169626
H17   H     H_    0.711041 0.016995 0.649717 0.126356
H18   H     H_    0.211037 0.983027 0.149715 0.126309
C41   C     C_R   0.683239 0.736925 0.685603 -0.111994
C42   C     C_R   0.183241 0.263079 0.185602 -0.112155
C43   C     C_R   0.704489 0.601079 0.747111 0.106270
C44   C     C_R   0.204494 0.398913 0.247111 0.107480
C45   C     C_3   0.715819 0.390076 0.742672 -0.420329
C46   C     C_3   0.215832 0.609918 0.242672 -0.420661
C47   C     C_3   0.785100 0.413760 0.813071 -0.391016
C48   C     C_3   0.285111 0.586230 0.313072 -0.391224
H19   H     H_    0.725739 0.348494 0.686368 0.165357
H20   H     H_    0.225754 0.651518 0.186369 0.164963
H21   H     H_    0.673546 0.304864 0.757416 0.183012
H22   H     H_    0.173561 0.695118 0.257416 0.183941
H23   H     H_    0.835164 0.384418 0.797793 0.173576
H24   H     H_    0.335176 0.615588 0.297795 0.173138
H25   H     H_    0.782664 0.343091 0.868591 0.167466
H26   H     H_    0.282677 0.656883 0.368592 0.168456
C49   C     C_2   0.300629 0.378771 0.760832 0.693313
O21   O     O_2   0.240871 0.335609 0.764367 -0.562401
O22   O     O_R   0.359531 0.255131 0.792929 -0.668577
H27   H     H_    0.346306 0.137748 0.819375 0.298047
C50   C     C_2   0.799930 0.620673 0.260929 0.696763
O23   O     O_2   0.850760 0.731261 0.288480 -0.560927
O24   O     O_R   0.731518 0.666701 0.265607 -0.666062
H28   H     H_    0.731661 0.791168 0.295561 0.297464

loop_
_geom_bond_atom_site_label_1
_geom_bond_atom_site_label_2
_ccdc_geom_bond_type
C30   H14   S    
O22   H27   S    
C23   C25   A    
C35   C37   A    
O4    C2    A    
V1    O19   S    
C17   C19   A    
C3    C26   S    
C4    C25   S    
O9    V1    S    
C37   C39   A    
C36   C38   A    
C38   H16   S    
C12   C14   A    
O3    C1    A    
C44   C46   S    
O12   V4    S    
C17   C49   S    
C26   C28   A    
C8    C14   S    
C27   H11   S    
O7    C3    A    
C28   H12   S    
O13   V1    S    
O5    C7    A    
O7    V1    S    
O6    C8    A    
C46   H20   S    
O8    V2    S    
C29   H13   S    
O3    V1    S    
O14   V4    S    
V4    O20   S    
C10   H2    S    
C40   C42   A    
C18   C20   A    
C2    O12   A    
C33   C43   A    
C11   C13   A    
C13   C15   A    
C14   C16   A    
C22   H8    S    
O11   V3    S    
C1    C36   S    
C43   C45   S    
O17   V3    S    
C46   H22   S    
C10   C20   A    
C25   C27   A    
C45   H19   S    
C28   C30   A    
C22   C24   A    
C34   C36   A    
O8    C4    A    
C39   H17   S    
C1    O11   A    
C16   H6    S    
C21   C23   A    
C18   C50   S    
O15   V3    S    
C9    C11   A    
C24   C26   A    
C47   H25   S    
C21   H7    S    
O4    V2    S    
C47   H23   S    
C34   C48   S    
C7    C13   S    
C49   O21   D    
C33   C47   S    
O10   V2    S    
O1    V3    S    
C50   O24   S    
C15   H5    S    
C5    C41   S    
C40   H18   S    
C49   O22   S    
C46   C48   S    
O18   V4    S    
C23   H9    S    
O16   C6    A    
O1    C3    A    
C33   C35   A    
V2    O20   S    
O16   V4    S    
C41   C43   A    
C10   C12   A    
C38   C40   A    
C42   C44   A    
C34   C44   A    
C48   H24   S    
O5    V1    S    
O17   C7    A    
O6    V2    S    
O24   H28   S    
O10   C6    A    
O18   C8    A    
O2    V4    S    
O15   C5    A    
C20   C32   S    
V3    O19   S    
O13   V3    S    
C12   H4    S    
C30   C32   A    
C15   C17   A    
C29   C31   A    
C45   H21   S    
O9    C5    A    
C2    C35   S    
C9    H1    S    
C24   H10   S    
O14   V2    S    
C6    C42   S    
O2    C4    A    
C22   C32   A    
C39   C41   A    
C27   C29   A    
C11   H3    S    
C37   H15   S    
C50   O23   D    
C45   C47   S    
C19   C31   S    
C21   C31   A    
C9    C19   A    
C48   H26   S    
C16   C18   A    
