data_mof_unit_52009.cif
_audit_creation_date              2012-10-26T18:43:49-0400
_audit_creation_method            fapswitch 2.2
_symmetry_space_group_name_H-M    P1
_symmetry_Int_Tables_number       1
_space_group_crystal_system       triclinic
_cell_length_a                    9.541693
_cell_length_b                    10.862617
_cell_length_c                    17.374965
_cell_angle_alpha                 90.482649
_cell_angle_beta                  86.291456
_cell_angle_gamma                 90.954223
_cell_volume                      1796.80714928

loop_
_atom_site_label
_atom_site_type_symbol
_atom_type_description
_atom_site_fract_x
_atom_site_fract_y
_atom_site_fract_z
_atom_type_partial_charge
C1    C     C_R   0.500725 0.737166 0.503898 0.541476
C2    C     C_R   0.522408 0.515384 0.263406 -0.054030
C3    C     C_R   0.423134 0.932314 0.455332 0.017468
C4    C     C_R   0.482143 0.495660 0.649551 0.517015
C5    C     C_R   0.504334 0.870259 0.505595 0.007766
C6    C     C_R   0.597292 0.939783 0.550359 0.006152
C7    C     C_R   0.594384 0.069378 0.547142 -0.053265
C8    C     C_R   0.500897 0.129148 0.501007 0.010670
C9    C     C_R   0.424228 0.058220 0.450992 -0.034676
C10   C     C_3   0.275377 0.060187 0.428744 -0.104983
C11   C     C_3   0.273643 0.919803 0.434701 -0.075838
C12   C     C_R   0.371044 0.561971 0.773982 -0.087306
C13   C     C_R   0.933581 0.460658 0.436698 0.121254
C14   C     C_R   0.919423 0.548762 0.559999 0.001887
C15   C     C_R   0.068192 0.547658 0.560353 0.010226
C16   C     C_R   0.499282 0.262390 0.499889 0.541250
C17   C     C_R   0.081159 0.467300 0.435127 0.133662
C18   C     C_3   0.096708 0.347938 0.394406 -0.243590
C19   C     C_3   0.938000 0.334428 0.400543 -0.103517
C20   C     C_R   0.517748 0.508316 0.349605 0.553019
C21   C     C_R   0.473893 0.491828 0.733652 -0.040018
C22   C     C_R   0.571799 0.425633 0.774019 0.003753
C23   C     C_R   0.386952 0.484586 0.149570 -0.016310
C24   C     C_R   0.569943 0.438750 0.853974 -0.060835
C25   C     C_R   0.468921 0.511007 0.894414 -0.021120
C26   C     C_R   0.366422 0.571949 0.854416 0.018809
C27   C     C_2   0.672805 0.339155 0.734533 0.254941
C28   C     C_2   0.772249 0.459718 0.085380 0.320763
C29   C     C_2   0.688465 0.880702 0.605102 0.256533
C30   C     C_2   0.265801 0.103372 0.347208 0.204474
C31   C     C_2   0.172507 0.872049 0.498389 0.277398
C32   C     C_2   0.267226 0.580107 0.266268 0.311941
C33   C     C_2   0.891127 0.231193 0.453733 0.280737
C34   C     C_R   0.393740 0.524343 0.226475 0.002436
C35   C     C_2   0.787877 0.523202 0.250240 0.290522
C36   C     C_2   0.252786 0.643964 0.895438 0.261209
C37   C     C_2   0.251079 0.477641 0.111553 0.226536
C38   C     C_R   0.649697 0.500061 0.217181 -0.002972
C39   C     C_R   0.643350 0.469015 0.138076 0.033816
C40   C     C_R   0.511703 0.453934 0.106551 -0.054180
C41   C     C_2   0.475551 0.525600 0.978100 -0.132607
C42   C     C_2   0.506559 0.432018 0.023262 -0.171714
Cu1   Cu    Cu3+1 0.359330 0.500020 0.500000 0.983969
Cu2   Cu    Cu3+1 0.640670 0.499980 0.500000 0.956659
H1    H     H_    0.203920 0.106334 0.472515 0.161773
H2    H     H_    0.350045 0.158545 0.319260 0.120957
H3    H     H_    0.090692 0.806552 0.484500 0.132951
H4    H     H_    0.263914 0.870808 0.379019 0.193855
H5    H     H_    0.118396 0.584679 0.609732 0.150432
H6    H     H_    0.141719 0.357921 0.334240 0.135650
H7    H     H_    0.163575 0.540562 0.260003 0.168062
H8    H     H_    0.152640 0.284172 0.429814 0.144665
H9    H     H_    0.891591 0.329103 0.343804 0.201874
H10   H     H_    0.908530 0.236810 0.514831 0.127260
H11   H     H_    0.799064 0.595389 0.293023 0.137257
H12   H     H_    0.858911 0.587000 0.608972 0.143259
H13   H     H_    0.530187 0.341048 0.000075 0.135160
H14   H     H_    0.237751 0.642760 0.957771 0.153820
H15   H     H_    0.229850 0.400599 0.073624 0.138869
H16   H     H_    0.295678 0.611002 0.742158 0.178233
H17   H     H_    0.452554 0.615021 0.004054 0.157749
H18   H     H_    0.648634 0.392789 0.885028 0.168006
H19   H     H_    0.658396 0.307132 0.676299 0.124997
H20   H     H_    0.782396 0.384543 0.043962 0.102159
H21   H     H_    0.672545 0.784982 0.620978 0.124364
H22   H     H_    0.660397 0.123990 0.583244 0.159614
N1    N     N_R   0.852130 0.499070 0.499500 -0.255906
N2    N     N_R   0.148040 0.499110 0.499500 -0.244344
O1    O     O_R   0.381190 0.680360 0.500000 -0.478081
O2    O     O_2   0.863560 0.539836 0.084542 -0.396185
O3    O     O_2   0.782329 0.939100 0.634062 -0.456020
O4    O     O_2   0.161108 0.079750 0.312684 -0.451186
O5    O     O_2   0.179951 0.906940 0.565059 -0.468516
O6    O     O_2   0.277918 0.673907 0.304637 -0.505697
O7    O     O_2   0.836349 0.138729 0.427907 -0.466000
O8    O     O_2   0.890544 0.462557 0.230059 -0.496271
O9    O     O_2   0.172758 0.705062 0.859804 -0.457753
O10   O     O_2   0.166400 0.560649 0.118245 -0.436189
O11   O     O_R   0.618770 0.680320 0.499990 -0.514145
O12   O     O_R   0.367430 0.500040 0.613600 -0.505174
O13   O     O_R   0.605020 0.500000 0.613590 -0.533955
O14   O     O_R   0.381230 0.319680 0.500010 -0.514844
O15   O     O_R   0.618810 0.319640 0.500000 -0.499537
O16   O     O_R   0.394980 0.500000 0.386410 -0.477495
O17   O     O_R   0.632570 0.499960 0.386400 -0.517591
O18   O     O_2   0.772659 0.300701 0.767208 -0.475460

loop_
_geom_bond_atom_site_label_1
_geom_bond_atom_site_label_2
_ccdc_geom_bond_type
C14   H12   S    
C41   C42   D    
C41   H17   S    
Cu2   O15   S    
C18   H8    S    
C7    C8    A    
C1    C5    S    
C4    O12   A    
C36   H14   S    
C36   O9    D    
C32   O6    D    
C5    C6    A    
C31   O5    D    
C23   C40   A    
C18   C19   S    
C10   C30   S    
C33   O7    D    
C4    O13   A    
Cu1   N2    S    
C14   N1    A    
C9    C10   S    
C2    C34   A    
C40   C42   S    
C11   C31   S    
Cu1   O1    S    
C31   H3    S    
C21   C22   A    
Cu1   O16   S    
C11   H4    S    
C42   H13   S    
C35   O8    D    
C13   C19   S    
C2    C20   S    
C35   C38   S    
C24   C25   A    
Cu2   O13   S    
C19   C33   S    
C25   C41   S    
C39   C40   A    
C8    C9    A    
C28   C39   S    
C25   C26   A    
C23   C37   S    
C35   H11   S    
C12   C21   A    
C16   O15   A    
C1    O1    A    
C12   C26   A    
C32   C34   S    
C27   O18   D    
Cu1   Cu2   S    
C32   H7    S    
C3    C9    A    
C2    C38   A    
C23   C34   A    
C20   O17   A    
C10   H1    S    
C16   O14   A    
C17   C18   S    
C37   H15   S    
C27   H19   S    
C29   H21   S    
C28   H20   S    
C26   C36   S    
C22   C27   S    
C20   O16   A    
C1    O11   A    
C22   C24   A    
Cu2   O17   S    
C18   H6    S    
C13   N1    A    
C33   H10   S    
C17   N2    A    
C24   H18   S    
C30   H2    S    
Cu2   O11   S    
C28   O2    D    
C3    C5    A    
C30   O4    D    
C6    C7    A    
C37   O10   D    
C13   C17   A    
Cu1   O12   S    
C7    H22   S    
C4    C21   S    
C19   H9    S    
C38   C39   A    
C15   N2    A    
C15   H5    S    
C3    C11   S    
C10   C11   S    
C12   H16   S    
C6    C29   S    
C8    C16   S    
Cu1   O14   S    
C14   C15   A    
Cu2   N1    S    
C29   O3    D    
