data_mof_unit_43697.cif
_audit_creation_date              2012-12-11T17:09:31-0500
_audit_creation_method            fapswitch 2.2
_symmetry_space_group_name_H-M    P1
_symmetry_Int_Tables_number       1
_space_group_crystal_system       triclinic
_cell_length_a                    14.813316
_cell_length_b                    6.949284
_cell_length_c                    13.510477
_cell_angle_alpha                 89.994107
_cell_angle_beta                  99.870003
_cell_angle_gamma                 90.00871
_cell_volume                      1370.20982211

loop_
_atom_site_label
_atom_site_type_symbol
_atom_type_description
_atom_site_fract_x
_atom_site_fract_y
_atom_site_fract_z
_atom_type_partial_charge
O1    O     O_R   0.586930 0.505770 0.416350 -0.535626
O2    O     O_R   0.413070 0.005770 0.583650 -0.545875
O3    O     O_R   0.397900 0.173100 0.389630 -0.538320
O4    O     O_R   0.602100 0.673100 0.610370 -0.535819
C1    C     C_R   0.364480 0.345430 0.362681 0.713821
C2    C     C_R   0.635674 0.845403 0.637113 0.712816
O5    O     O_R   0.585280 0.175870 0.404330 -0.550158
O6    O     O_R   0.414720 0.675870 0.595670 -0.534201
O7    O     O_R   0.601790 0.008380 0.598460 -0.534532
O8    O     O_R   0.398210 0.508380 0.401540 -0.530764
C3    C     C_R   0.615314 0.344966 0.383633 0.699597
C4    C     C_R   0.385210 0.844856 0.617005 0.702444
O9    O     O_3   0.505200 0.340120 0.563670 -0.369743
O10   O     O_3   0.494800 0.840120 0.436330 -0.371836
V1    V     V_3+5 0.499040 0.064180 0.488190 1.394246
V2    V     V_3+5 0.500960 0.564180 0.511810 1.420729
C5    C     C_R   0.251805 0.006471 0.676427 0.055672
C6    C     C_R   0.691797 0.520007 0.257269 0.090732
C7    C     C_R   0.314085 0.853186 0.682069 -0.126313
C8    C     C_R   0.682571 0.355023 0.313978 -0.068010
C9    C     C_R   0.303808 0.702429 0.748966 -0.124609
C10   C     C_R   0.741587 0.201032 0.304785 -0.185016
H1    H     H_    0.349920 0.580920 0.755811 0.126683
H2    H     H_    0.740825 0.079025 0.353010 0.130503
C11   C     C_R   0.238047 0.713066 0.812822 -0.175619
C12   C     C_R   0.806918 0.211118 0.240487 -0.178260
H3    H     H_    0.235206 0.598647 0.866443 0.120331
H4    H     H_    0.854414 0.093444 0.239587 0.130341
C13   C     C_R   0.181123 0.875751 0.812518 -0.104443
C14   C     C_R   0.815417 0.377416 0.183417 -0.085885
C15   C     C_R   0.187660 0.018258 0.740868 0.053508
C16   C     C_R   0.755121 0.529517 0.191334 0.048479
C17   C     C_3   0.200401 0.229753 0.755105 -0.382146
C18   C     C_3   0.780377 0.731225 0.220044 -0.412699
C19   C     C_3   0.270090 0.218102 0.684587 0.034139
C20   C     C_3   0.715203 0.718298 0.295351 0.032056
H5    H     H_    0.231779 0.266127 0.833559 0.134547
H6    H     H_    0.756265 0.831652 0.157028 0.144050
H7    H     H_    0.137203 0.311652 0.724810 0.187279
H8    H     H_    0.854026 0.746129 0.253714 0.179232
H9    H     H_    0.341515 0.253169 0.720304 0.125976
H10   H     H_    0.655795 0.818484 0.280855 0.113775
C21   C     C_1   0.783532 0.877119 0.782802 -0.188256
C22   C     C_1   0.216527 0.377142 0.217120 -0.190076
C23   C     C_1   0.716219 0.860097 0.716735 -0.180139
C24   C     C_1   0.283887 0.360116 0.283124 -0.181986
O11   O     O_R   0.101720 0.231700 0.098560 -0.536246
O12   O     O_R   0.898280 0.731700 0.901440 -0.534321
O13   O     O_R   0.914700 0.558980 0.095690 -0.540625
O14   O     O_R   0.085300 0.058980 0.904310 -0.541215
C25   C     C_R   0.885586 0.389720 0.117405 0.692837
C26   C     C_R   0.114829 0.889716 0.883032 0.698386
O15   O     O_R   0.102080 0.561590 0.110390 -0.537404
O16   O     O_R   0.897920 0.061590 0.889610 -0.536271
O17   O     O_R   0.086950 0.728940 0.916330 -0.540585
O18   O     O_R   0.913050 0.228940 0.083670 -0.542395
C27   C     C_R   0.136010 0.391933 0.137455 0.728410
C28   C     C_R   0.864004 0.891923 0.862526 0.735327
O19   O     O_3   0.994770 0.394510 0.936380 -0.367674
O20   O     O_3   0.005230 0.894510 0.063620 -0.370879
V3    V     V_3+5 0.000970 0.670520 0.011800 1.414217
V4    V     V_3+5 0.999030 0.170520 0.988200 1.413503
N1    N     N_3   0.240117 0.320565 0.589927 -0.638440
H11   H     H_    0.176984 0.266671 0.553837 0.231265
H12   H     H_    0.287663 0.292644 0.542924 0.237494
N2    N     N_3   0.762979 0.714138 0.399997 -0.638105
H13   H     H_    0.816999 0.812864 0.410144 0.221679
H14   H     H_    0.717150 0.760427 0.445838 0.230419

loop_
_geom_bond_atom_site_label_1
_geom_bond_atom_site_label_2
_ccdc_geom_bond_type
O4    V2    S    
N2    H14   S    
C14   C25   S    
N1    H12   S    
O12   C28   A    
C7    C9    A    
C2    C23   S    
O11   C27   A    
O16   V4    S    
C1    C24   S    
C20   N2    S    
C20   H10   S    
O1    C3    A    
C26   O17   A    
C22   C27   S    
O6    C4    A    
O18   V4    S    
O2    C4    A    
O11   V4    S    
O5    V1    S    
N2    H13   S    
O7    V1    S    
O3    V1    S    
C1    O8    A    
C13   C15   A    
O1    V2    S    
O8    V2    S    
C14   C16   A    
O2    V1    S    
C21   C23   T    
O12   V3    S    
C17   H7    S    
C6    C20   S    
C2    O7    A    
C19   H9    S    
O17   V3    S    
C4    C7    S    
O20   V4    S    
C12   H4    S    
C17   C19   S    
C18   C20   S    
C8    C10   A    
O5    C3    A    
C10   H2    S    
O9    V1    S    
C9    H1    S    
C11   C13   A    
C11   H3    S    
C5    C15   A    
O10   V2    S    
C3    C8    S    
O19   V3    S    
O14   V4    S    
O13   V3    S    
C15   C17   S    
N1    H11   S    
C6    C16   A    
C6    C8    A    
O4    C2    A    
C25   O18   A    
C10   C12   A    
O9    V2    S    
O16   C28   A    
O14   C26   A    
O15   C27   A    
O10   V1    S    
C18   H8    S    
O19   V4    S    
C9    C11   A    
O6    V2    S    
C5    C19   S    
C21   C28   S    
C5    C7    A    
C18   H6    S    
O15   V3    S    
C19   N1    S    
C13   C26   S    
C17   H5    S    
O13   C25   A    
C22   C24   T    
O20   V3    S    
O3    C1    A    
C12   C14   A    
C16   C18   S    
