data_mof_unit_29422.cif
_audit_creation_date              2012-12-11T15:07:02-0500
_audit_creation_method            fapswitch 2.2
_symmetry_space_group_name_H-M    P1
_symmetry_Int_Tables_number       1
_space_group_crystal_system       triclinic
_cell_length_a                    19.799873
_cell_length_b                    11.263045
_cell_length_c                    18.711147
_cell_angle_alpha                 89.902571
_cell_angle_beta                  90.926688
_cell_angle_gamma                 90.005931
_cell_volume                      4172.16234739

loop_
_atom_site_label
_atom_site_type_symbol
_atom_type_description
_atom_site_fract_x
_atom_site_fract_y
_atom_site_fract_z
_atom_type_partial_charge
C1    C     C_R   0.761857 0.522928 0.638686 0.545663
C2    C     C_3   0.255948 0.055378 0.561888 0.045228
C3    C     C_R   0.739898 0.035983 0.152018 0.535841
C4    C     C_R   0.774903 0.133589 0.859182 0.525021
C5    C     C_R   0.225379 0.132541 0.141258 0.524962
C6    C     C_R   0.274904 0.633589 0.859182 0.525021
C7    C     C_R   0.725379 0.632541 0.141258 0.524962
C8    C     C_R   0.968177 0.353202 0.854387 0.537848
C9    C     C_R   0.029747 0.353224 0.146976 0.535514
C10   C     C_R   0.468177 0.853202 0.854387 0.537848
C11   C     C_R   0.529747 0.853224 0.146976 0.535514
C12   C     C_3   0.683016 0.127430 0.465905 -0.223236
C13   C     C_3   0.244060 0.555127 0.438147 0.045282
C14   C     C_3   0.317040 0.127543 0.533995 -0.223653
C15   C     C_3   0.183016 0.627429 0.465905 -0.223236
C16   C     C_3   0.817040 0.627543 0.533995 -0.223653
C17   C     C_3   0.688340 0.142238 0.547564 -0.224058
C18   C     C_3   0.311700 0.142296 0.452313 -0.224073
C19   C     C_3   0.188340 0.642238 0.547564 -0.224058
C20   C     C_3   0.811700 0.642296 0.452313 -0.224073
C21   C     C_3   0.754831 0.937084 0.481596 -0.228040
C22   C     C_3   0.245140 0.937266 0.518761 -0.227733
C23   C     C_3   0.254831 0.437084 0.481596 -0.228040
C24   C     C_3   0.755948 0.555378 0.561888 0.045228
C25   C     C_3   0.745139 0.437266 0.518761 -0.227734
C26   C     C_3   0.755587 0.087106 0.576358 0.054640
C27   C     C_3   0.244434 0.087073 0.423645 0.055032
C28   C     C_3   0.255587 0.587106 0.576358 0.054640
C29   C     C_3   0.744434 0.587073 0.423645 0.055032
C30   C     C_3   0.749754 0.954271 0.562990 -0.265870
C31   C     C_3   0.250265 0.954276 0.437344 -0.266277
C32   C     C_3   0.249754 0.454271 0.562990 -0.265870
C33   C     C_R   0.238113 0.522688 0.361365 0.544613
C34   C     C_3   0.750265 0.454277 0.437344 -0.266277
C35   C     C_3   0.816611 0.132731 0.533729 -0.218286
C36   C     C_3   0.183411 0.132833 0.466109 -0.218327
C37   C     C_3   0.316611 0.632731 0.533729 -0.218286
C38   C     C_3   0.683411 0.632833 0.466109 -0.218327
C39   C     C_3   0.014194 0.195495 0.462085 0.144951
C40   C     C_3   0.985919 0.195539 0.538290 0.144744
C41   C     C_3   0.514194 0.695495 0.462085 0.144951
C42   C     C_3   0.485919 0.695539 0.538290 0.144743
C43   C     C_3   0.063634 0.401343 0.476117 -0.292538
C44   C     C_R   0.261857 0.022928 0.638686 0.545663
C45   C     C_3   0.936357 0.401335 0.523752 -0.292766
C46   C     C_3   0.563634 0.901343 0.476117 -0.292538
C47   C     C_3   0.436357 0.901335 0.523752 -0.292766
C48   C     C_3   0.941650 0.376839 0.443353 -0.289270
C49   C     C_3   0.058341 0.377064 0.556585 -0.289390
C50   C     C_3   0.441650 0.876839 0.443353 -0.289270
C51   C     C_3   0.558341 0.877064 0.556585 -0.289389
C52   C     C_3   0.012008 0.325641 0.431037 0.005996
C53   C     C_3   0.988018 0.325788 0.569016 0.005594
C54   C     C_3   0.512008 0.825640 0.431037 0.005996
C55   C     C_R   0.738113 0.022688 0.361365 0.544613
C56   C     C_3   0.488018 0.825788 0.569016 0.005594
C57   C     C_3   0.819280 0.030614 0.048874 -0.227652
C58   C     C_3   0.187381 0.010844 0.955271 -0.223720
C59   C     C_3   0.319280 0.530614 0.048874 -0.227652
C60   C     C_3   0.687381 0.510844 0.955271 -0.223720
C61   C     C_R   0.772368 0.117976 0.651214 0.524623
C62   C     C_R   0.227657 0.117852 0.348755 0.524205
C63   C     C_R   0.272368 0.617976 0.651214 0.524623
C64   C     C_R   0.727657 0.617852 0.348755 0.524205
C65   C     C_3   0.822060 0.036185 0.968654 -0.228437
C66   C     C_3   0.804407 0.133865 0.453025 -0.267341
C67   C     C_3   0.184593 0.016647 0.035431 -0.236261
C68   C     C_3   0.322060 0.536185 0.968654 -0.228438
C69   C     C_3   0.684593 0.516647 0.035431 -0.236261
C70   C     C_3   0.692630 0.013149 0.030439 -0.224223
C71   C     C_3   0.317810 0.034006 0.970802 -0.217160
C72   C     C_3   0.192630 0.513149 0.030439 -0.224223
C73   C     C_3   0.817810 0.534006 0.970802 -0.217160
C74   C     C_3   0.744521 0.205010 0.060890 -0.254153
C75   C     C_3   0.245396 0.200609 0.937438 -0.258796
C76   C     C_3   0.244521 0.705010 0.060890 -0.254153
C77   C     C_3   0.195627 0.134168 0.546805 -0.267896
C78   C     C_3   0.745396 0.700609 0.937438 -0.258796
C79   C     C_3   0.749009 0.072866 0.075475 0.056554
C80   C     C_3   0.253455 0.068222 0.925948 0.061140
C81   C     C_3   0.249009 0.572866 0.075475 0.056554
C82   C     C_3   0.753455 0.568222 0.925948 0.061140
C83   C     C_3   0.761092 0.105864 0.936342 0.060780
C84   C     C_3   0.239510 0.102606 0.064511 0.057854
C85   C     C_3   0.261092 0.605864 0.936342 0.060780
C86   C     C_3   0.739510 0.602606 0.064511 0.057854
C87   C     C_3   0.699735 0.027156 0.948341 -0.257034
C88   C     C_3   0.304407 0.633865 0.453025 -0.267341
C89   C     C_3   0.307763 0.044405 0.052496 -0.248518
C90   C     C_3   0.199736 0.527156 0.948341 -0.257034
C91   C     C_3   0.807763 0.544405 0.052496 -0.248518
C92   C     C_3   0.746052 0.222577 0.978642 -0.217216
C93   C     C_3   0.237811 0.218154 0.019092 -0.231598
C94   C     C_3   0.246052 0.722577 0.978642 -0.217216
C95   C     C_3   0.737811 0.718154 0.019092 -0.231598
C96   C     C_3   0.994720 0.480203 0.042295 -0.233321
C97   C     C_3   0.991297 0.480227 0.961420 -0.227304
C98   C     C_3   0.494720 0.980203 0.042295 -0.233321
C99   C     C_3   0.695627 0.634168 0.546805 -0.267896
C100  C     C_3   0.491297 0.980227 0.961420 -0.227304
C101  C     C_3   0.066620 0.296164 0.028510 -0.224674
C102  C     C_3   0.937898 0.269898 0.972372 -0.214929
C103  C     C_3   0.566620 0.796165 0.028510 -0.224674
C104  C     C_3   0.437897 0.769898 0.972372 -0.214929
C105  C     C_3   0.945417 0.278767 0.054379 -0.255338
C106  C     C_3   0.057731 0.298681 0.946304 -0.262412
C107  C     C_3   0.445417 0.778767 0.054379 -0.255338
C108  C     C_3   0.557731 0.798681 0.946304 -0.262412
C109  C     C_R   0.967826 0.341033 0.644470 0.575466
C110  C     C_3   0.744060 0.055127 0.438147 0.045282
C111  C     C_R   0.032179 0.340933 0.355544 0.574608
C112  C     C_R   0.467826 0.841033 0.644470 0.575465
C113  C     C_R   0.532179 0.840933 0.355544 0.574608
C114  C     C_3   0.008065 0.352225 0.070362 0.059203
C115  C     C_3   0.988293 0.351324 0.931338 0.062562
C116  C     C_3   0.508065 0.852225 0.070362 0.059203
C117  C     C_3   0.488293 0.851324 0.931338 0.062562
C118  C     C_R   0.761374 0.532238 0.849449 0.539494
C119  C     C_R   0.239898 0.535983 0.152018 0.535840
C120  C     C_R   0.261375 0.032238 0.849449 0.539494
Cr1   Cr    Cr6+3 0.885690 0.492860 0.745310 1.010064
Cr2   Cr    Cr6+3 0.111880 0.178590 0.246990 1.087712
Cr3   Cr    Cr6+3 0.388120 0.678590 0.753010 1.088711
Cr4   Cr    Cr6+3 0.611880 0.678590 0.246990 1.087712
Cr5   Cr    Cr6+3 0.114310 0.492860 0.254690 1.008993
Cr6   Cr    Cr6+3 0.385690 0.992860 0.745310 1.010064
Cr7   Cr    Cr6+3 0.614310 0.992860 0.254690 1.008994
Cr8   Cr    Cr6+3 0.729880 0.332270 0.748190 1.019355
Cr9   Cr    Cr6+3 0.270120 0.332270 0.251810 1.018539
Cr10  Cr    Cr6+3 0.229880 0.832270 0.748190 1.019355
Cr11  Cr    Cr6+3 0.770120 0.832270 0.251810 1.018540
Cr12  Cr    Cr6+3 0.888120 0.178590 0.753010 1.088711
H1    H     H_    0.635426 0.087468 0.450026 0.141481
H2    H     H_    0.192689 0.908433 0.528412 0.151313
H3    H     H_    0.536532 0.026558 0.940489 0.115980
H4    H     H_    0.607814 0.851628 0.043640 0.108329
H5    H     H_    0.385615 0.781722 0.954322 0.108482
H6    H     H_    0.107814 0.351628 0.043640 0.108329
H7    H     H_    0.885614 0.281722 0.954322 0.108482
H8    H     H_    0.597712 0.852686 0.921095 0.108606
H9    H     H_    0.400109 0.820006 0.077942 0.106204
H10   H     H_    0.097712 0.352686 0.921095 0.108606
H11   H     H_    0.900109 0.320006 0.077942 0.106204
H12   H     H_    0.952255 0.189068 0.078131 0.122151
H13   H     H_    0.307244 0.408070 0.471991 0.150830
H14   H     H_    0.061517 0.207584 0.924019 0.117061
H15   H     H_    0.452255 0.689068 0.078131 0.122151
H16   H     H_    0.561517 0.707584 0.924019 0.117061
H17   H     H_    0.952403 0.178174 0.958240 0.124957
H18   H     H_    0.075323 0.203866 0.046357 0.132059
H19   H     H_    0.452403 0.678173 0.958240 0.124957
H20   H     H_    0.575323 0.703867 0.046357 0.132059
H21   H     H_    0.644604 0.099374 0.573178 0.112554
H22   H     H_    0.355447 0.099445 0.426796 0.112355
H23   H     H_    0.144604 0.599374 0.573178 0.112554
H24   H     H_    0.692689 0.408433 0.528412 0.151313
H25   H     H_    0.855447 0.599445 0.426796 0.112355
H26   H     H_    0.721672 0.867230 0.462850 0.108400
H27   H     H_    0.278226 0.867376 0.537771 0.108528
H28   H     H_    0.221672 0.367230 0.462850 0.108400
H29   H     H_    0.778226 0.367376 0.537771 0.108528
H30   H     H_    0.701047 0.920518 0.583125 0.109151
H31   H     H_    0.298992 0.920508 0.417355 0.108960
H32   H     H_    0.201047 0.420518 0.583125 0.109151
H33   H     H_    0.798992 0.420508 0.417356 0.108960
H34   H     H_    0.848257 0.099060 0.425846 0.228955
H35   H     H_    0.790874 0.905152 0.591334 0.141937
H36   H     H_    0.151752 0.099559 0.574104 0.228800
H37   H     H_    0.348257 0.599060 0.425846 0.228953
H38   H     H_    0.651752 0.599559 0.574104 0.228800
H39   H     H_    0.796055 0.224755 0.432721 0.104005
H40   H     H_    0.204029 0.225085 0.566828 0.104106
H41   H     H_    0.296055 0.724755 0.432721 0.104006
H42   H     H_    0.704029 0.725085 0.566828 0.104106
H43   H     H_    0.834474 0.218652 0.553550 0.091599
H44   H     H_    0.165528 0.218694 0.445979 0.092008
H45   H     H_    0.334474 0.718651 0.553550 0.091600
H46   H     H_    0.209157 0.905137 0.409098 0.141611
H47   H     H_    0.665528 0.718694 0.445979 0.092008
H48   H     H_    0.929404 0.909192 0.420137 0.357998
H49   H     H_    0.070760 0.909304 0.580844 0.358170
H50   H     H_    0.429401 0.409195 0.420137 0.357998
H51   H     H_    0.570760 0.409304 0.580844 0.358170
H52   H     H_    0.290874 0.405152 0.591334 0.141937
H53   H     H_    0.709157 0.405137 0.409098 0.141611
H54   H     H_    0.065650 0.176634 0.471233 0.124879
H55   H     H_    0.934474 0.176542 0.529262 0.125198
H56   H     H_    0.565650 0.676634 0.471233 0.124879
H57   H     H_    0.364601 0.087457 0.549968 0.141591
H58   H     H_    0.434474 0.676542 0.529262 0.125198
H59   H     H_    0.615554 0.888521 0.458522 0.111445
H60   H     H_    0.384439 0.888511 0.541387 0.111320
H61   H     H_    0.115554 0.388522 0.458522 0.111445
H62   H     H_    0.884439 0.388511 0.541387 0.111320
H63   H     H_    0.597595 0.813363 0.574770 0.145214
H64   H     H_    0.402430 0.813014 0.425376 0.145059
H65   H     H_    0.097595 0.313363 0.574770 0.145214
H66   H     H_    0.902430 0.313014 0.425376 0.145059
H67   H     H_    0.934041 0.460453 0.412843 0.137952
H68   H     H_    0.135426 0.587468 0.450026 0.141481
H69   H     H_    0.065865 0.460771 0.586847 0.138076
H70   H     H_    0.434041 0.960453 0.412843 0.137952
H71   H     H_    0.565866 0.960771 0.586847 0.138076
H72   H     H_    0.950506 0.495605 0.531776 0.157328
H73   H     H_    0.049443 0.495571 0.467812 0.157677
H74   H     H_    0.450506 0.995605 0.531776 0.157329
H75   H     H_    0.549443 0.995571 0.467812 0.157677
H76   H     H_    0.832626 0.938558 0.064295 0.140377
H77   H     H_    0.179606 0.919438 0.938711 0.139554
H78   H     H_    0.332626 0.438558 0.064295 0.140377
H79   H     H_    0.864601 0.587457 0.549968 0.141591
H80   H     H_    0.679606 0.419438 0.938711 0.139554
H81   H     H_    0.681074 0.216225 0.440258 0.123998
H82   H     H_    0.319036 0.216359 0.559444 0.123995
H83   H     H_    0.181074 0.716226 0.440258 0.123998
H84   H     H_    0.819036 0.716359 0.559444 0.123995
H85   H     H_    0.859156 0.086544 0.073327 0.122011
H86   H     H_    0.142684 0.057701 0.932007 0.121584
H87   H     H_    0.359156 0.586544 0.073327 0.122011
H88   H     H_    0.642684 0.557701 0.932007 0.121584
H89   H     H_    0.870587 0.072046 0.953717 0.133905
H90   H     H_    0.856820 0.066073 0.544412 0.212769
H91   H     H_    0.132545 0.042401 0.049283 0.133617
H92   H     H_    0.370587 0.572046 0.953717 0.133905
H93   H     H_    0.632545 0.542401 0.049283 0.133617
H94   H     H_    0.822521 0.944475 0.946688 0.117018
H95   H     H_    0.192230 0.927920 0.059084 0.120458
H96   H     H_    0.322520 0.444475 0.946688 0.117018
H97   H     H_    0.692230 0.427920 0.059084 0.120458
H98   H     H_    0.699257 0.922481 0.044672 0.107813
H99   H     H_    0.338408 0.948241 0.955699 0.106815
H100  H     H_    0.199258 0.422481 0.044672 0.107813
H101  H     H_    0.143197 0.066151 0.455628 0.212864
H102  H     H_    0.838408 0.448240 0.955699 0.106815
H103  H     H_    0.706368 0.939817 0.922241 0.107896
H104  H     H_    0.310118 0.955879 0.078334 0.103921
H105  H     H_    0.206368 0.439818 0.922240 0.107896
H106  H     H_    0.810118 0.455879 0.078334 0.103921
H107  H     H_    0.696485 0.238892 0.082974 0.117785
H108  H     H_    0.289750 0.250395 0.917449 0.115370
H109  H     H_    0.196485 0.738892 0.082973 0.117785
H110  H     H_    0.789750 0.750395 0.917449 0.115370
H111  H     H_    0.786915 0.252662 0.087599 0.106269
H112  H     H_    0.356820 0.566073 0.544412 0.212769
H113  H     H_    0.200381 0.234149 0.907397 0.108469
H114  H     H_    0.286915 0.752662 0.087599 0.106269
H115  H     H_    0.700381 0.734149 0.907397 0.108469
H116  H     H_    0.779426 0.295071 0.964101 0.108052
H117  H     H_    0.187701 0.248943 0.025542 0.109952
H118  H     H_    0.279426 0.795071 0.964101 0.108052
H119  H     H_    0.687701 0.748943 0.025542 0.109952
H120  H     H_    0.694183 0.247815 0.962666 0.121783
H121  H     H_    0.276301 0.280933 0.039181 0.127208
H122  H     H_    0.194183 0.747815 0.962666 0.121783
H123  H     H_    0.643197 0.566151 0.455628 0.212864
H124  H     H_    0.776301 0.780933 0.039181 0.127208
H125  H     H_    0.642673 0.045963 0.046897 0.126663
H126  H     H_    0.356258 0.100995 0.957332 0.119911
H127  H     H_    0.142673 0.545963 0.046897 0.126662
H128  H     H_    0.856258 0.600995 0.957332 0.119911
H129  H     H_    0.683890 0.235734 0.562047 0.141185
H130  H     H_    0.316124 0.235835 0.437648 0.141588
H131  H     H_    0.183890 0.735734 0.562047 0.141185
H132  H     H_    0.816123 0.735835 0.437648 0.141589
H133  H     H_    0.653408 0.067846 0.924564 0.113951
H134  H     H_    0.807244 0.908070 0.471991 0.150832
H135  H     H_    0.347913 0.100797 0.076984 0.119494
H136  H     H_    0.153408 0.567846 0.924565 0.113951
H137  H     H_    0.847913 0.600797 0.076984 0.119494
H138  H     H_    0.034109 0.544626 0.058957 0.136265
H139  H     H_    0.949489 0.535304 0.943075 0.135977
H140  H     H_    0.534109 0.044626 0.058957 0.136265
H141  H     H_    0.449489 0.035304 0.943075 0.135977
H142  H     H_    0.947060 0.514040 0.064388 0.117383
H143  H     H_    0.036532 0.526558 0.940489 0.115980
H144  H     H_    0.447060 0.014040 0.064388 0.117384
O1    O     O_R   0.957210 0.449410 0.665480 -0.537322
O2    O     O_R   0.167480 0.095300 0.164000 -0.532229
O3    O     O_R   0.332520 0.595300 0.836000 -0.531808
O4    O     O_R   0.667480 0.595300 0.164000 -0.532229
O5    O     O_R   0.946380 0.253940 0.826940 -0.503886
O6    O     O_R   0.053620 0.253940 0.173060 -0.504728
O7    O     O_R   0.446380 0.753940 0.826940 -0.503886
O8    O     O_R   0.553620 0.753940 0.173060 -0.504728
O9    O     O_3   0.834560 0.334570 0.748840 -0.299367
O10   O     O_3   0.165440 0.334570 0.251160 -0.296538
O11   O     O_3   0.334560 0.834570 0.748840 -0.299367
O12   O     O_R   0.042790 0.449410 0.334520 -0.538044
O13   O     O_3   0.665440 0.834570 0.251160 -0.296538
O14   O     O_R   0.820730 0.541240 0.668250 -0.514972
O15   O     O_R   0.179270 0.541240 0.331750 -0.515447
O16   O     O_R   0.320730 0.041240 0.668250 -0.514972
O17   O     O_R   0.679270 0.041240 0.331750 -0.515447
O18   O     O_R   0.714240 0.455060 0.663710 -0.502241
O19   O     O_R   0.285760 0.455060 0.336290 -0.502823
O20   O     O_R   0.214240 0.955060 0.663710 -0.502241
O21   O     O_R   0.785760 0.955060 0.336290 -0.502821
O22   O     O_R   0.736780 0.204870 0.675910 -0.520882
O23   O     O_R   0.457210 0.949410 0.665480 -0.537322
O24   O     O_R   0.263220 0.204870 0.324090 -0.521113
O25   O     O_R   0.236780 0.704870 0.675910 -0.520882
O26   O     O_R   0.763220 0.704870 0.324090 -0.521113
O27   O     O_R   0.833070 0.087590 0.673490 -0.482184
O28   O     O_R   0.166930 0.087590 0.326510 -0.482300
O29   O     O_R   0.333070 0.587590 0.673490 -0.482184
O30   O     O_R   0.666930 0.587590 0.326510 -0.482301
O31   O     O_R   0.946890 0.246800 0.676300 -0.428374
O32   O     O_R   0.053110 0.246800 0.323700 -0.428640
O33   O     O_R   0.446890 0.746800 0.676300 -0.428374
O34   O     O_R   0.542790 0.949410 0.334520 -0.538043
O35   O     O_R   0.553110 0.746800 0.323700 -0.428640
O36   O     O_R   0.956650 0.457120 0.827980 -0.532408
O37   O     O_R   0.043350 0.457120 0.172020 -0.532434
O38   O     O_R   0.456650 0.957120 0.827980 -0.532408
O39   O     O_R   0.543350 0.957120 0.172020 -0.532434
O40   O     O_R   0.820220 0.548390 0.818890 -0.510111
O41   O     O_R   0.179780 0.548390 0.181110 -0.509871
O42   O     O_R   0.320220 0.048390 0.818890 -0.510111
O43   O     O_R   0.679780 0.048390 0.181110 -0.509871
O44   O     O_R   0.713680 0.462770 0.826210 -0.519766
O45   O     O_R   0.736260 0.212010 0.826560 -0.513698
O46   O     O_R   0.286320 0.462770 0.173790 -0.519925
O47   O     O_R   0.213680 0.962770 0.826210 -0.519766
O48   O     O_R   0.786320 0.962770 0.173790 -0.519925
O49   O     O_2   0.937502 0.121273 0.347071 -0.326657
O50   O     O_2   0.041823 0.013373 0.372511 -0.251641
O51   O     O_3   0.941759 0.972735 0.454472 -0.526113
O52   O     O_2   0.062773 0.121485 0.653374 -0.325779
O53   O     O_2   0.958398 0.013538 0.628361 -0.251105
O54   O     O_3   0.058352 0.972788 0.546362 -0.526010
O55   O     O_2   0.437502 0.621273 0.347071 -0.326659
O56   O     O_R   0.263740 0.212010 0.173440 -0.513408
O57   O     O_2   0.541823 0.513373 0.372511 -0.251638
O58   O     O_3   0.441759 0.472735 0.454472 -0.526113
O59   O     O_2   0.562773 0.621485 0.653374 -0.325779
O60   O     O_2   0.458398 0.513538 0.628361 -0.251105
O61   O     O_3   0.558352 0.472789 0.546362 -0.526008
O62   O     O_R   0.236260 0.712010 0.826560 -0.513698
O63   O     O_R   0.763740 0.712010 0.173440 -0.513408
O64   O     O_R   0.832520 0.095300 0.836000 -0.531807
S1    S     S_3+6 0.982925 0.074783 0.405926 -0.003086
S2    S     S_3+6 0.017261 0.074906 0.594713 -0.002616
S3    S     S_3+6 0.482925 0.574783 0.405926 -0.003086
S4    S     S_3+6 0.517261 0.574906 0.594713 -0.002616

loop_
_geom_bond_atom_site_label_1
_geom_bond_atom_site_label_2
_ccdc_geom_bond_type
C19   H23   S    
Cr11  O26   S    
C17   H21   S    
C21   C110  S    
Cr7   O13   S    
C40   H55   S    
C77   H36   S    
Cr8   O18   S    
C6    C85   S    
C1    O18   A    
Cr2   O28   S    
C9    C114  S    
C89   H104  S    
Cr1   O1    S    
C18   H130  S    
C94   H122  S    
Cr3   O3    S    
C22   H27   S    
Cr10  O20   S    
C87   H103  S    
C41   C42   S    
C74   C92   S    
O59   S4    D    
C76   C94   S    
O51   S1    S    
C14   H57   S    
C2    C22   S    
C38   H47   S    
C3    O43   A    
C97   C115  S    
C64   O30   A    
C47   H74   S    
C59   H78   S    
C25   C34   S    
Cr4   O8    S    
Cr12  O5    S    
C29   C64   S    
C3    C79   S    
C37   H112  S    
C96   C114  S    
C75   H108  S    
C46   H75   S    
Cr12  O64   S    
C11   O8    A    
C106  H10   S    
C50   H70   S    
C112  O23   A    
C48   H67   S    
C27   C31   S    
C28   C32   S    
C15   H83   S    
C99   H38   S    
C38   C99   S    
C35   C66   S    
C118  O44   A    
C119  O41   A    
C71   H126  S    
C13   C33   S    
H51   O61   S    
C78   C82   S    
C16   C20   S    
C119  O46   A    
O54   S2    S    
C67   H91   S    
C60   H80   S    
C73   H102  S    
C33   O19   A    
C98   H144  S    
C103  H20   S    
C74   C79   S    
Cr10  O25   S    
C30   H30   S    
Cr12  O31   S    
Cr6   O38   S    
C75   C93   S    
Cr6   O42   S    
C104  C117  S    
C53   C109  S    
C45   H62   S    
C88   H37   S    
C70   C79   S    
C85   C90   S    
C68   H96   S    
C81   C119  S    
C61   O27   A    
C106  C115  S    
C36   C77   S    
C35   H43   S    
C76   H109  S    
C51   H63   S    
C20   H132  S    
C99   H42   S    
Cr1   O36   S    
C49   C53   S    
C103  C116  S    
C84   C93   S    
C2    C14   S    
O53   S2    D    
C86   C95   S    
C102  H17   S    
C28   C63   S    
C26   C35   S    
C48   C52   S    
C44   O20   A    
C71   H99   S    
C100  C117  S    
C104  C107  S    
C108  H16   S    
Cr7   O39   S    
C112  O33   A    
C96   H142  S    
Cr4   O30   S    
C46   H59   S    
C12   C110  S    
C92   H116  S    
C49   H65   S    
Cr8   O45   S    
C113  O35   A    
C30   H35   S    
C77   H40   S    
C43   C52   S    
C7    C86   S    
C42   S4    S    
Cr9   O19   S    
C13   C23   S    
Cr4   O35   S    
C47   H60   S    
C70   H125  S    
C25   H29   S    
Cr12  O27   S    
C29   C38   S    
C1    O14   A    
C111  O12   A    
C107  H9    S    
C34   H33   S    
H49   O54   S    
C18   H22   S    
Cr7   O17   S    
C45   C53   S    
C96   C97   S    
C25   H24   S    
Cr2   O32   S    
C68   C85   S    
C68   H92   S    
C70   C87   S    
C94   H118  S    
C47   C50   S    
C9    O37   A    
C92   H120  S    
C49   H69   S    
Cr11  O13   S    
C31   H46   S    
C66   H39   S    
C39   C40   S    
C5    C84   S    
Cr6   O23   S    
Cr8   O44   S    
C46   C51   S    
C48   H66   S    
C103  H4    S    
C6    O62   A    
C27   C62   S    
C69   H97   S    
C72   C90   S    
C58   C67   S    
Cr12  O9    S    
C67   H95   S    
C8    O36   A    
C19   C28   S    
Cr5   O15   S    
C21   H134  S    
Cr6   O16   S    
C26   C30   S    
C4    O45   A    
C58   H77   S    
C101  C106  S    
C118  O40   A    
C72   H100  S    
C108  C117  S    
C16   H79   S    
C5    O2    A    
C109  O1    A    
C100  H3    S    
C37   H45   S    
C109  O31   A    
C43   H61   S    
C62   O28   A    
O60   S4    D    
C10   C117  S    
C15   H68   S    
C58   H86   S    
C60   C69   S    
C32   H32   S    
C9    O6    A    
C107  C116  S    
Cr10  O62   S    
O61   S4    S    
C55   O17   A    
C72   H127  S    
Cr9   O56   S    
C95   H124  S    
C47   C56   S    
C83   C87   S    
C21   H26   S    
C37   C88   S    
C105  H12   S    
C65   H89   S    
H48   O51   S    
Cr1   O40   S    
C15   C19   S    
C57   H76   S    
C50   C54   S    
Cr1   O14   S    
C26   C61   S    
Cr8   O9    S    
C86   C91   S    
C60   H88   S    
C93   H121  S    
C101  H18   S    
C104  H5    S    
C14   H82   S    
C102  C105  S    
C16   H84   S    
C14   C18   S    
Cr5   O41   S    
C102  C115  S    
C42   C56   S    
C39   H54   S    
C50   H64   S    
C55   O21   A    
Cr7   O43   S    
H50   O58   S    
C63   O29   A    
C12   C17   S    
C72   C81   S    
C58   C80   S    
C38   H123  S    
C101  C114  S    
C12   H81   S    
C6    O3    A    
C51   H71   S    
Cr4   O4    S    
C64   O26   A    
Cr4   O13   S    
C35   H90   S    
C95   H119  S    
C97   H139  S    
C98   H140  S    
C29   C34   S    
C41   H56   S    
C89   H135  S    
C10   O7    A    
C34   H53   S    
C90   H136  S    
C107  H15   S    
C78   C95   S    
C46   C54   S    
Cr3   O33   S    
Cr1   O9    S    
C11   C116  S    
Cr2   O6    S    
Cr3   O11   S    
C87   H133  S    
C74   H111  S    
C10   O38   A    
C36   H44   S    
C98   C100  S    
C20   H25   S    
C7    O4    A    
C73   C82   S    
Cr10  O47   S    
C45   C48   S    
C40   S2    S    
Cr7   O34   S    
Cr5   O10   S    
C90   H105  S    
C59   C81   S    
C57   C65   S    
Cr10  O11   S    
C69   H93   S    
C101  H6    S    
C27   C36   S    
C21   C30   S    
C113  O34   A    
C23   C32   S    
C2    C77   S    
C4    C83   S    
C57   H85   S    
C45   H72   S    
C91   H106  S    
C65   H94   S    
C17   H129  S    
C41   S3    S    
C19   H131  S    
Cr11  O21   S    
Cr3   O7    S    
O58   S3    S    
C80   C120  S    
C43   H73   S    
C24   C99   S    
C62   O24   A    
C57   C79   S    
C4    O64   A    
C73   H128  S    
C83   C92   S    
C23   H13   S    
C78   H110  S    
C22   H2    S    
C17   C26   S    
C28   C37   S    
C104  H19   S    
Cr9   O10   S    
C65   C83   S    
C120  O47   A    
C39   S1    S    
C96   H138  S    
C54   C113  S    
C51   C56   S    
C74   H107  S    
C42   H58   S    
C8    C115  S    
C60   C82   S    
C103  C108  S    
C120  O42   A    
C75   C80   S    
C75   H113  S    
C5    O56   A    
C39   C52   S    
Cr5   O12   S    
C67   C84   S    
C16   C24   S    
Cr6   O11   S    
C71   C80   S    
C33   O15   A    
C93   H117  S    
C20   C29   S    
C111  O32   A    
C31   H31   S    
C22   C31   S    
C66   H34   S    
C105  C114  S    
C24   C25   S    
C73   C91   S    
Cr5   O37   S    
C2    C44   S    
C108  H8    S    
C43   C49   S    
C52   C111  S    
C36   H101  S    
C66   C110  S    
C88   H41   S    
C7    O63   A    
C70   H98   S    
C59   C68   S    
C97   H143  S    
C85   C94   S    
C98   C116  S    
C3    O48   A    
C71   C89   S    
C23   H28   S    
C78   H115  S    
C1    C24   S    
O55   S3    D    
C63   O25   A    
C12   H1    S    
C13   C15   S    
C55   C110  S    
C84   C89   S    
O49   S1    D    
C61   O22   A    
C44   O16   A    
C32   H52   S    
C76   H114  S    
C18   C27   S    
Cr11  O48   S    
C91   H137  S    
C76   C81   S    
C105  H11   S    
O52   S2    D    
Cr8   O22   S    
Cr9   O24   S    
C106  H14   S    
C100  H141  S    
Cr3   O29   S    
Cr9   O46   S    
Cr2   O10   S    
Cr2   O2    S    
C59   H87   S    
C8    O5    A    
C11   O39   A    
C13   C88   S    
Cr11  O63   S    
C41   C54   S    
C102  H7    S    
O57   S3    D    
C40   C53   S    
C82   C118  S    
O50   S1    D    
C56   C112  S    
C69   C86   S    
