data_mof_unit_38873.cif
_audit_creation_date              2012-12-10T18:07:26-0500
_audit_creation_method            fapswitch 2.2
_symmetry_space_group_name_H-M    P1
_symmetry_Int_Tables_number       1
_space_group_crystal_system       triclinic
_cell_length_a                    18.405761
_cell_length_b                    18.214089
_cell_length_c                    43.119771
_cell_angle_alpha                 90.149356
_cell_angle_beta                  90.004718
_cell_angle_gamma                 89.899594
_cell_volume                      14455.5804407

loop_
_atom_site_label
_atom_site_type_symbol
_atom_type_description
_atom_site_fract_x
_atom_site_fract_y
_atom_site_fract_z
_atom_type_partial_charge
C1    C     C_R   0.437873 0.026303 0.113315 0.290879
C2    C     C_R   0.047510 0.451772 0.385100 0.351887
C3    C     C_R   0.296857 0.759305 0.779270 0.253035
C4    C     C_R   0.260958 0.317069 0.233435 0.216150
C5    C     C_R   0.734445 0.679966 0.764071 0.222541
C6    C     C_R   0.294650 0.758479 0.225713 0.238126
C7    C     C_R   0.703604 0.240757 0.776910 0.238243
C8    C     C_R   0.191871 0.700756 0.250483 -0.350920
C9    C     C_R   0.803317 0.304071 0.750762 -0.353986
C10   C     C_R   0.304303 0.197068 0.250125 -0.334637
C11   C     C_R   0.695253 0.803544 0.749859 -0.358773
C12   C     C_R   0.808250 0.299124 0.250434 -0.352536
C13   C     C_R   0.543242 0.949229 0.614487 0.360374
C14   C     C_R   0.199096 0.693694 0.752544 -0.373941
C15   C     C_R   0.695794 0.803086 0.250150 -0.337582
C16   C     C_R   0.303719 0.195723 0.749708 -0.373208
C17   C     C_R   0.197431 0.304930 0.749495 -0.376538
C18   C     C_R   0.804394 0.696214 0.249880 -0.333335
C19   C     C_R   0.309720 0.797915 0.751102 -0.368267
C20   C     C_R   0.697435 0.195174 0.251615 -0.359392
C21   C     C_R   0.802394 0.695241 0.749850 -0.341342
C22   C     C_R   0.195406 0.303585 0.249744 -0.334983
C23   C     C_R   0.696066 0.195961 0.749988 -0.357084
C24   C     C_R   0.472398 0.062403 0.386937 0.286257
C25   C     C_R   0.302524 0.804934 0.251597 -0.362849
C26   C     C_R   0.499779 0.999921 0.064746 -0.041689
C27   C     C_R   0.499554 0.999908 0.934144 -0.039610
C28   C     C_R   0.995399 0.498076 0.065363 -0.043662
C29   C     C_R   0.991447 0.493480 0.934261 -0.036593
C30   C     C_R   0.998210 0.501631 0.564767 -0.039719
C31   C     C_R   0.997632 0.497314 0.434003 -0.041583
C32   C     C_R   0.496544 0.999613 0.565998 -0.043334
C33   C     C_R   0.496497 0.999345 0.435420 -0.042694
C34   C     C_3   0.399717 0.096145 0.064370 -0.315997
C35   C     C_R   0.059564 0.473056 0.613128 0.285420
C36   C     C_3   0.339419 0.063967 0.043642 -0.294086
C37   C     C_3   0.278789 0.119870 0.038194 -0.807579
C38   C     C_3   0.623544 0.937894 0.935586 -0.333273
C39   C     C_3   0.610584 0.865218 0.952869 -0.280196
C40   C     C_3   0.681890 0.824635 0.958651 -0.832706
C41   C     C_3   0.060588 0.374421 0.063919 -0.324508
C42   C     C_3   0.129749 0.390074 0.044998 -0.290246
C43   C     C_3   0.169402 0.319016 0.036633 -0.824941
C44   C     C_3   0.879437 0.574740 0.936246 -0.315768
C45   C     C_3   0.895436 0.656968 0.940029 -0.307135
C46   C     C_R   0.950694 0.545527 0.385183 0.350162
C47   C     C_3   0.828697 0.698248 0.951723 -0.822356
C48   C     C_3   0.599832 0.903674 0.064225 -0.316728
C49   C     C_3   0.659953 0.935606 0.043412 -0.292895
C50   C     C_3   0.720743 0.879771 0.038028 -0.809854
C51   C     C_3   0.375499 0.061919 0.935508 -0.333167
C52   C     C_3   0.388169 0.134454 0.953110 -0.283704
C53   C     C_3   0.316789 0.175144 0.958805 -0.822925
C54   C     C_3   0.930650 0.621936 0.064328 -0.324560
C55   C     C_3   0.859029 0.605818 0.047192 -0.289793
C56   C     C_3   0.817649 0.676590 0.040108 -0.820125
C57   C     C_R   0.452388 0.049013 0.615162 0.345899
C58   C     C_3   0.096525 0.402702 0.937111 -0.337504
C59   C     C_3   0.079804 0.320993 0.931784 -0.282117
C60   C     C_3   0.141049 0.272386 0.943900 -0.818543
C61   C     C_3   0.907125 0.605992 0.563392 -0.317050
C62   C     C_3   0.839019 0.577089 0.546672 -0.292106
C63   C     C_3   0.786794 0.639610 0.538835 -0.818515
C64   C     C_3   0.115680 0.424079 0.435595 -0.337664
C65   C     C_3   0.095779 0.352169 0.452225 -0.287212
C66   C     C_3   0.163157 0.305422 0.458520 -0.808852
C67   C     C_3   0.565190 0.878094 0.563933 -0.334826
C68   C     C_R   0.522474 0.936587 0.386910 0.378530
C69   C     C_3   0.636335 0.894854 0.546558 -0.282001
C70   C     C_3   0.680040 0.824913 0.540429 -0.814800
C71   C     C_3   0.400175 0.099554 0.435335 -0.308531
C72   C     C_3   0.429525 0.159114 0.457446 -0.298389
C73   C     C_3   0.373580 0.220013 0.462576 -0.813762
C74   C     C_3   0.090443 0.397460 0.564769 -0.318279
C75   C     C_3   0.151121 0.423012 0.542683 -0.289293
C76   C     C_3   0.208294 0.363064 0.537998 -0.816189
C77   C     C_3   0.878515 0.568820 0.435057 -0.335583
C78   C     C_3   0.895654 0.639737 0.453120 -0.286329
C79   C     C_R   0.444940 0.037917 0.080980 -0.022677
C80   C     C_3   0.827242 0.685848 0.458234 -0.809929
C81   C     C_3   0.427137 0.120818 0.565267 -0.332498
C82   C     C_3   0.355861 0.103772 0.548006 -0.288671
C83   C     C_3   0.311678 0.173510 0.542257 -0.814464
C84   C     C_3   0.592134 0.898387 0.435731 -0.325221
C85   C     C_3   0.561251 0.838985 0.457399 -0.280723
C86   C     C_3   0.615672 0.776567 0.462146 -0.814841
C87   C     C_R   0.556507 0.964347 0.917989 -0.013623
C88   C     C_R   0.032771 0.441839 0.081477 -0.027764
C89   C     C_R   0.551798 0.957079 0.885325 0.308248
C90   C     C_R   0.939192 0.535662 0.917953 -0.019324
C91   C     C_R   0.554715 0.962074 0.080899 -0.021964
C92   C     C_R   0.442781 0.035528 0.917986 -0.010873
C93   C     C_R   0.959996 0.555268 0.081783 -0.029410
C94   C     C_R   0.045524 0.452384 0.918452 -0.019738
C95   C     C_R   0.948097 0.546233 0.580929 -0.031703
C96   C     C_R   0.051793 0.457318 0.417864 -0.024550
C97   C     C_R   0.535622 0.944237 0.581832 -0.028856
C98   C     C_R   0.459401 0.054840 0.419147 -0.016247
C99   C     C_R   0.050466 0.460293 0.580989 -0.016635
C100  C     C_R   0.041457 0.447814 0.114101 0.354894
C101  C     C_R   0.944252 0.537857 0.417763 -0.024476
C102  C     C_R   0.457997 0.054490 0.582475 -0.022164
C103  C     C_R   0.534007 0.943769 0.419246 -0.029095
C104  C     C_R   0.499942 0.000116 0.130385 -0.310388
C105  C     C_R   0.499912 0.999982 0.868808 -0.321252
C106  C     C_R   0.998731 0.499632 0.130926 -0.297845
C107  C     C_R   0.998099 0.499810 0.868985 -0.301526
C108  C     C_R   0.000379 0.504350 0.630418 -0.303860
C109  C     C_R   0.999651 0.499232 0.368677 -0.300628
C110  C     C_R   0.498707 0.999457 0.631273 -0.323207
C111  C     C_R   0.942675 0.539632 0.884995 0.252856
C112  C     C_R   0.498303 0.999775 0.369754 -0.312734
C113  C     C_R   0.997680 0.498103 0.468076 0.292427
C114  C     C_R   0.997779 0.500282 0.530713 0.287537
C115  C     C_R   0.496297 0.999618 0.469380 0.290827
C116  C     C_R   0.496091 0.000070 0.531972 0.289089
C117  C     C_R   0.499473 0.999981 0.968175 0.285409
C118  C     C_R   0.499740 0.999877 0.030765 0.289610
C119  C     C_R   0.991531 0.495109 0.968449 0.274720
C120  C     C_R   0.993654 0.497268 0.031164 0.292451
C121  C     C_R   0.499660 0.000020 0.334745 0.999569
C122  C     C_R   0.561947 0.973939 0.113233 0.290426
C123  C     C_R   0.499988 0.999857 0.665633 1.018380
C124  C     C_R   0.999970 0.499847 0.334280 1.023261
C125  C     C_R   0.000078 0.501268 0.665389 0.956845
C126  C     C_R   0.999643 0.500076 0.834432 1.024999
C127  C     C_R   0.999855 0.499907 0.165514 1.028943
C128  C     C_R   0.499991 0.999982 0.834324 0.998940
C129  C     C_R   0.499989 0.000046 0.165374 0.948569
C130  C     C_R   0.360166 0.140453 0.249981 0.993493
C131  C     C_R   0.639979 0.860038 0.749839 1.019859
C132  C     C_R   0.860614 0.359092 0.249957 1.022842
C133  C     C_R   0.447876 0.042860 0.885359 0.302673
C134  C     C_R   0.141523 0.638599 0.751151 1.026390
C135  C     C_R   0.639914 0.859688 0.250011 0.995269
C136  C     C_R   0.359023 0.138999 0.749358 1.023574
C137  C     C_R   0.139406 0.640845 0.249979 1.018496
C138  C     C_R   0.858762 0.361077 0.750799 0.992136
C139  C     C_R   0.360767 0.858957 0.750031 1.003588
C140  C     C_R   0.640401 0.139807 0.250454 0.971977
C141  C     C_R   0.859340 0.639662 0.750294 1.031864
C142  C     C_R   0.139452 0.359460 0.250142 0.966175
C143  C     C_R   0.640431 0.139596 0.749695 1.035649
C144  C     C_R   0.954509 0.550831 0.114561 0.356255
C145  C     C_R   0.359549 0.860306 0.250465 0.972434
C146  C     C_R   0.140326 0.360166 0.750078 1.028757
C147  C     C_R   0.860420 0.640372 0.250122 0.962931
C148  C     C_R   0.255501 0.799804 0.277631 0.203737
C149  C     C_R   0.741878 0.203628 0.723635 0.177789
C150  C     C_R   0.183800 0.237031 0.265986 0.210118
C151  C     C_R   0.814694 0.761544 0.733536 0.201236
C152  C     C_R   0.745206 0.199796 0.277414 0.220666
C153  C     C_R   0.273233 0.778241 0.723469 0.286137
C154  C     C_R   0.815882 0.762717 0.266329 0.214098
C155  C     C_R   0.050485 0.457374 0.885545 0.347049
C156  C     C_R   0.186834 0.240445 0.731702 0.303829
C157  C     C_R   0.236196 0.181683 0.735012 0.254949
C158  C     C_R   0.756503 0.811037 0.270052 0.211862
C159  C     C_R   0.210424 0.736366 0.725906 0.219817
C160  C     C_R   0.799809 0.255117 0.277438 0.185358
C161  C     C_R   0.763247 0.818956 0.735913 0.203467
C162  C     C_R   0.243186 0.188823 0.269750 0.216436
C163  C     C_R   0.796760 0.258191 0.724171 0.234682
C164  C     C_R   0.200861 0.744523 0.277622 0.186002
C165  C     C_R   0.757851 0.296047 0.777208 0.175693
C166  C     C_R   0.941693 0.538350 0.613613 0.289036
C167  C     C_R   0.232636 0.714625 0.223260 0.236833
C168  C     C_R   0.678891 0.734015 0.762983 0.255443
C169  C     C_R   0.311217 0.258688 0.230306 0.199642
C170  C     C_R   0.243005 0.703097 0.779439 0.168133
C171  C     C_R   0.766828 0.285605 0.223347 0.238148
C172  C     C_R   0.319613 0.264766 0.763672 0.257451
C173  C     C_R   0.688923 0.741326 0.230282 0.199207
C174  C     C_R   0.738814 0.682736 0.233553 0.212923
C175  C     C_R   0.264050 0.318837 0.764986 0.200960
C176  C     C_R   0.704760 0.241933 0.225910 0.236522
H1    H     H_    0.326819 0.923690 0.133695 0.370761
H2    H     H_    0.093482 0.346669 0.317300 0.389668
H3    H     H_    0.126613 0.213720 0.940608 0.260911
H4    H     H_    0.028590 0.306820 0.944043 0.222130
H5    H     H_    0.071610 0.308610 0.906876 0.287269
H6    H     H_    0.153761 0.417047 0.932562 0.257960
H7    H     H_    0.092898 0.411643 0.962459 0.183204
H8    H     H_    0.764144 0.664405 0.560293 0.305453
H9    H     H_    0.815399 0.682952 0.525580 0.254128
H10   H     H_    0.741086 0.618218 0.524667 0.247680
H11   H     H_    0.854933 0.549660 0.524704 0.217651
H12   H     H_    0.810224 0.536013 0.561150 0.262029
H13   H     H_    0.660711 0.897587 0.678963 0.399853
H14   H     H_    0.894200 0.652460 0.579125 0.262415
H15   H     H_    0.943531 0.631710 0.545997 0.188478
H16   H     H_    0.187016 0.285319 0.436426 0.307175
H17   H     H_    0.204720 0.338066 0.471046 0.249272
H18   H     H_    0.148138 0.257247 0.472869 0.252455
H19   H     H_    0.069529 0.364725 0.474768 0.216389
H20   H     H_    0.056730 0.319557 0.438208 0.277608
H21   H     H_    0.162744 0.415508 0.419935 0.261916
H22   H     H_    0.136308 0.464185 0.452919 0.188892
H23   H     H_    0.700182 0.801317 0.562527 0.306814
H24   H     H_    0.576671 0.174590 0.367809 0.378384
H25   H     H_    0.645792 0.783367 0.528581 0.251248
H26   H     H_    0.727510 0.837673 0.525507 0.251258
H27   H     H_    0.623908 0.920521 0.523887 0.215830
H28   H     H_    0.670472 0.933936 0.559948 0.276371
H29   H     H_    0.572394 0.830486 0.579624 0.262603
H30   H     H_    0.523896 0.858609 0.547032 0.187155
H31   H     H_    0.361449 0.248685 0.440484 0.306125
H32   H     H_    0.322400 0.196741 0.471976 0.253036
H33   H     H_    0.395297 0.260810 0.479339 0.247726
H34   H     H_    0.441944 0.134746 0.480372 0.214496
H35   H     H_    0.173050 0.571933 0.633715 0.369916
H36   H     H_    0.480456 0.183437 0.448286 0.268658
H37   H     H_    0.363118 0.123977 0.417830 0.262263
H38   H     H_    0.364756 0.061756 0.448723 0.192591
H39   H     H_    0.235382 0.349466 0.560256 0.306443
H40   H     H_    0.182660 0.312609 0.528531 0.253627
H41   H     H_    0.250330 0.382447 0.521489 0.246557
H42   H     H_    0.127878 0.436204 0.519640 0.213307
H43   H     H_    0.177909 0.473357 0.551661 0.268024
H44   H     H_    0.112216 0.358575 0.582274 0.260185
H45   H     H_    0.050665 0.364196 0.551387 0.190560
H46   H     H_    0.909641 0.651310 0.317786 0.388572
H47   H     H_    0.805118 0.705358 0.435765 0.308408
H48   H     H_    0.784966 0.652908 0.470136 0.249872
H49   H     H_    0.840488 0.734504 0.472716 0.250143
H50   H     H_    0.918594 0.625841 0.476166 0.216224
H51   H     H_    0.936480 0.673319 0.440586 0.276773
H52   H     H_    0.832664 0.577815 0.418803 0.260434
H53   H     H_    0.857249 0.527019 0.451414 0.190158
H54   H     H_    0.292508 0.197275 0.564541 0.306290
H55   H     H_    0.345233 0.214974 0.530080 0.251431
H56   H     H_    0.263570 0.160420 0.527732 0.251029
H57   H     H_    0.341165 0.093510 0.681991 0.401011
H58   H     H_    0.368077 0.078444 0.525193 0.217357
H59   H     H_    0.322169 0.064368 0.561340 0.274370
H60   H     H_    0.419478 0.167670 0.581430 0.262653
H61   H     H_    0.467859 0.141402 0.548387 0.187512
H62   H     H_    0.626693 0.747727 0.439930 0.306445
H63   H     H_    0.667643 0.798385 0.471419 0.252546
H64   H     H_    0.593184 0.736235 0.478832 0.247605
H65   H     H_    0.549273 0.863120 0.480466 0.211542
H66   H     H_    0.509782 0.816154 0.448041 0.275281
H67   H     H_    0.629664 0.873681 0.418426 0.260873
H68   H     H_    0.472664 0.783806 0.335962 0.388634
H69   H     H_    0.627382 0.935727 0.449510 0.190259
H70   H     H_    0.294776 0.958034 0.287126 0.336007
H71   H     H_    0.821348 0.079424 0.712225 0.376893
H72   H     H_    0.074556 0.141496 0.238833 0.358630
H73   H     H_    0.526972 0.820479 0.845213 0.402628
H74   H     H_    0.947588 0.840913 0.738049 0.361161
H75   H     H_    0.705249 0.040987 0.286623 0.336113
H76   H     H_    0.337296 0.899609 0.661891 0.398839
H77   H     H_    0.925698 0.858783 0.240147 0.358249
H78   H     H_    0.029152 0.164735 0.690793 0.417457
H79   H     H_    0.243746 0.977377 0.726617 0.402848
H80   H     H_    0.809221 0.961413 0.273867 0.338751
H81   H     H_    0.076089 0.800554 0.739386 0.346305
H82   H     H_    0.922764 0.174030 0.286598 0.373463
H83   H     H_    0.829353 0.944639 0.767614 0.363371
H84   H     H_    0.150245 0.398713 0.180054 0.398190
H85   H     H_    0.190902 0.037704 0.272852 0.338718
H86   H     H_    0.954806 0.278217 0.716855 0.361324
H87   H     H_    0.077461 0.825184 0.287330 0.373804
H88   H     H_    0.677159 0.418073 0.786146 0.355564
H89   H     H_    0.251314 0.577892 0.183385 0.417911
H90   H     H_    0.544622 0.689284 0.731101 0.368545
H91   H     H_    0.444617 0.336194 0.225488 0.364734
H92   H     H_    0.320601 0.580272 0.792316 0.360693
H93   H     H_    0.747141 0.422199 0.183377 0.418824
H94   H     H_    0.453472 0.314375 0.733458 0.360790
H95   H     H_    0.955134 0.684667 0.864687 0.337377
H96   H     H_    0.554761 0.665155 0.225273 0.361144
H97   H     H_    0.656363 0.563212 0.260638 0.358015
H98   H     H_    0.348324 0.458271 0.753461 0.361155
H99   H     H_    0.558302 0.281250 0.239184 0.343347
H100  H     H_    0.419290 0.685303 0.816502 0.395542
H101  H     H_    0.341747 0.438687 0.260158 0.359234
H102  H     H_    0.650537 0.542697 0.749084 0.359177
H103  H     H_    0.442197 0.721553 0.237938 0.337006
H104  H     H_    0.576336 0.319159 0.809652 0.398068
H105  H     H_    0.251672 0.134611 0.060342 0.307088
H106  H     H_    0.672289 0.077055 0.133933 0.370505
H107  H     H_    0.301197 0.170531 0.027629 0.252929
H108  H     H_    0.237441 0.096094 0.022363 0.246547
H109  H     H_    0.362112 0.048528 0.020722 0.213988
H110  H     H_    0.315968 0.013675 0.054135 0.267355
H111  H     H_    0.376887 0.135543 0.081492 0.261970
H112  H     H_    0.436043 0.130590 0.049865 0.190328
H113  H     H_    0.706564 0.807214 0.936348 0.306297
H114  H     H_    0.720861 0.860768 0.970982 0.252443
H115  H     H_    0.671678 0.775043 0.972913 0.253393
H116  H     H_    0.584824 0.876309 0.975644 0.216304
H117  H     H_    0.475815 0.177731 0.846043 0.401250
H118  H     H_    0.573562 0.828888 0.939491 0.271547
H119  H     H_    0.670703 0.933139 0.919684 0.260006
H120  H     H_    0.640924 0.980495 0.952497 0.187286
H121  H     H_    0.190232 0.291854 0.057890 0.302293
H122  H     H_    0.132090 0.280815 0.024416 0.250707
H123  H     H_    0.216125 0.331377 0.021225 0.251515
H124  H     H_    0.115440 0.418595 0.023141 0.214161
H125  H     H_    0.167256 0.426236 0.058193 0.275632
H126  H     H_    0.069818 0.327889 0.079962 0.262450
H127  H     H_    0.017603 0.353400 0.048211 0.198333
H128  H     H_    0.847981 0.602282 0.181325 0.398001
H129  H     H_    0.784934 0.696462 0.934027 0.304777
H130  H     H_    0.808282 0.673126 0.973409 0.254003
H131  H     H_    0.842940 0.756462 0.956361 0.252184
H132  H     H_    0.940505 0.664147 0.956928 0.223013
H133  H     H_    0.912884 0.681632 0.917769 0.248615
H134  H     H_    0.825681 0.563228 0.925951 0.261717
H135  H     H_    0.872188 0.551925 0.959818 0.185076
H136  H     H_    0.747859 0.865447 0.060195 0.306959
H137  H     H_    0.698490 0.828872 0.027491 0.252622
H138  H     H_    0.762072 0.903410 0.022207 0.246626
H139  H     H_    0.127273 0.319776 0.832960 0.399696
H140  H     H_    0.637117 0.950503 0.020483 0.213643
H141  H     H_    0.683283 0.986194 0.053812 0.267314
H142  H     H_    0.622843 0.864530 0.081324 0.261394
H143  H     H_    0.563397 0.869034 0.049773 0.190162
H144  H     H_    0.292677 0.193136 0.936506 0.304183
H145  H     H_    0.277437 0.138913 0.970787 0.251553
H146  H     H_    0.326811 0.224439 0.973380 0.252811
H147  H     H_    0.413492 0.123108 0.975932 0.215983
H148  H     H_    0.425512 0.170841 0.940008 0.271748
H149  H     H_    0.328581 0.066861 0.919491 0.259634
H150  H     H_    0.810774 0.461040 0.631691 0.365382
H151  H     H_    0.357882 0.019166 0.952212 0.187725
H152  H     H_    0.802896 0.705585 0.061907 0.304757
H153  H     H_    0.851437 0.713522 0.025607 0.252873
H154  H     H_    0.766809 0.663410 0.027423 0.249551
H155  H     H_    0.870428 0.577318 0.024935 0.213667
H156  H     H_    0.823752 0.569363 0.061255 0.275788
H157  H     H_    0.924048 0.669402 0.080228 0.260884
H158  H     H_    0.971687 0.641692 0.047472 0.197071
H159  H     H_    0.191993 0.283751 0.931004 0.298162
H160  H     H_    0.150219 0.282690 0.968944 0.248233
N1    N     N_R   0.536238 0.052433 0.014947 -0.175788
N2    N     N_R   0.956384 0.449861 0.484231 -0.175612
N3    N     N_R   0.546660 0.038920 0.516125 -0.174609
N4    N     N_R   0.445453 0.961118 0.485216 -0.170413
N5    N     N_R   0.956668 0.450727 0.515102 -0.176133
N6    N     N_R   0.038966 0.547453 0.483703 -0.172826
N7    N     N_R   0.445607 0.961012 0.516071 -0.177034
N8    N     N_R   0.546976 0.038419 0.485272 -0.176867
N9    N     N_R   0.462720 0.947606 0.984002 -0.175622
N10   N     N_R   0.035793 0.544204 0.014713 -0.171204
N11   N     N_R   0.949714 0.447790 0.984844 -0.164905
N12   N     N_R   0.463089 0.947380 0.014854 -0.175685
N13   N     N_R   0.536356 0.052301 0.984095 -0.176173
N14   N     N_R   0.950558 0.449078 0.015716 -0.170260
N15   N     N_R   0.034654 0.543234 0.983853 -0.163103
N16   N     N_R   0.038860 0.548661 0.514551 -0.176465
O1    O     O_3   0.500000 0.000000 0.250000 -0.574803
O2    O     O_R   0.500000 0.939250 0.680570 -0.598903
O3    O     O_3   0.458272 0.825747 0.349300 -0.451247
O4    O     O_2   0.198978 0.887264 0.323491 -0.146980
O5    O     O_2   0.306069 0.813840 0.335689 -0.166591
O6    O     O_3   0.321559 0.931498 0.303540 -0.515184
O7    O     O_2   0.669311 0.092651 0.690966 -0.255155
O8    O     O_2   0.732117 0.185601 0.661403 -0.161763
O9    O     O_3   0.808083 0.086630 0.690182 -0.377241
O10   O     O_2   0.094017 0.197272 0.313366 -0.086187
O11   O     O_2   0.035782 0.263830 0.271732 -0.322101
O12   O     O_3   0.073121 0.130238 0.261286 -0.474189
O13   O     O_R   0.939250 0.500000 0.319430 -0.595049
O14   O     O_2   0.938472 0.703815 0.706435 -0.264769
O15   O     O_2   0.858657 0.778192 0.674771 -0.136409
O16   O     O_3   0.939189 0.844003 0.715399 -0.374824
O17   O     O_2   0.803074 0.111010 0.322245 -0.150439
O18   O     O_2   0.697147 0.185024 0.335714 -0.204038
O19   O     O_3   0.679102 0.068090 0.303118 -0.523435
O20   O     O_2   0.386064 0.772468 0.683786 -0.252607
O21   O     O_2   0.266674 0.763246 0.660374 -0.190746
O22   O     O_3   0.307706 0.891108 0.680727 -0.518626
O23   O     O_2   0.904819 0.801286 0.314250 -0.086020
O24   O     O_R   0.060750 0.500000 0.680570 -0.556402
O25   O     O_2   0.963773 0.735641 0.272394 -0.324796
O26   O     O_3   0.926772 0.869504 0.262675 -0.473686
O27   O     O_2   0.079622 0.308614 0.697929 -0.299155
O28   O     O_2   0.154547 0.219186 0.671583 -0.183422
O29   O     O_3   0.056860 0.171932 0.710255 -0.478216
O30   O     O_2   0.141642 0.070963 0.740495 -0.207789
O31   O     O_2   0.192617 0.088808 0.688841 -0.156337
O32   O     O_3   0.270762 0.023959 0.729286 -0.580174
O33   O     O_2   0.685068 0.915069 0.305121 -0.303603
O34   O     O_2   0.773592 0.838636 0.330858 -0.133828
O35   O     O_R   0.000000 0.439250 0.819430 -0.577812
O36   O     O_3   0.820410 0.941635 0.294710 -0.397523
O37   O     O_2   0.144418 0.824342 0.683153 -0.155537
O38   O     O_2   0.124648 0.691196 0.678998 -0.218737
O39   O     O_3   0.062485 0.762850 0.723841 -0.499771
O40   O     O_2   0.911425 0.328279 0.308116 -0.260570
O41   O     O_2   0.823264 0.263806 0.339490 -0.157247
O42   O     O_3   0.918298 0.187878 0.308744 -0.363274
O43   O     O_2   0.814303 0.910532 0.690578 -0.095207
O44   O     O_2   0.724402 0.964551 0.724177 -0.329390
O45   O     O_3   0.851675 0.943489 0.746715 -0.511499
O46   O     O_R   1.000000 0.560750 0.180570 -0.579764
O47   O     O_2   0.313901 0.084243 0.304504 -0.306908
O48   O     O_2   0.225039 0.160337 0.330369 -0.133097
O49   O     O_3   0.178758 0.057893 0.293570 -0.399928
O50   O     O_2   0.875006 0.204942 0.673785 -0.179750
O51   O     O_2   0.816779 0.324740 0.669314 -0.207745
O52   O     O_3   0.934370 0.312374 0.701283 -0.534964
O53   O     O_2   0.089469 0.671483 0.308405 -0.260676
O54   O     O_2   0.178413 0.735499 0.339700 -0.154630
O55   O     O_3   0.083050 0.811858 0.309457 -0.364175
O56   O     O_2   0.762947 0.319339 0.839708 -0.142587
O57   O     O_R   0.560750 0.000000 0.819430 -0.562695
O58   O     O_2   0.830428 0.406913 0.809424 -0.256150
O59   O     O_3   0.691713 0.416644 0.808243 -0.380796
O60   O     O_2   0.124490 0.712448 0.181213 -0.210575
O61   O     O_2   0.245290 0.713471 0.159487 -0.185514
O62   O     O_3   0.199544 0.592555 0.184435 -0.486668
O63   O     O_2   0.589017 0.675256 0.807181 -0.124296
O64   O     O_2   0.541183 0.780725 0.780553 -0.297252
O65   O     O_3   0.547202 0.659411 0.750236 -0.486485
O66   O     O_2   0.425018 0.193485 0.198623 -0.260203
O67   O     O_2   0.337890 0.265499 0.169393 -0.148268
O68   O     O_R   0.439250 0.000000 0.180570 -0.549183
O69   O     O_3   0.431576 0.334420 0.203233 -0.364407
O70   O     O_2   0.229852 0.687730 0.841848 -0.148636
O71   O     O_2   0.165968 0.596945 0.811382 -0.258112
O72   O     O_3   0.304677 0.586369 0.814102 -0.380856
O73   O     O_2   0.874245 0.288024 0.180991 -0.212098
O74   O     O_2   0.752981 0.286493 0.159684 -0.187906
O75   O     O_3   0.798921 0.407692 0.184643 -0.486294
O76   O     O_2   0.406921 0.319901 0.809551 -0.115605
O77   O     O_2   0.456798 0.217676 0.781098 -0.291917
O78   O     O_3   0.450884 0.341866 0.753281 -0.495363
O79   O     O_R   1.000000 0.560750 0.819430 -0.578367
O80   O     O_2   0.576258 0.806880 0.198146 -0.258569
O81   O     O_2   0.663080 0.733249 0.169312 -0.148219
O82   O     O_3   0.568218 0.666152 0.203059 -0.365803
O83   O     O_2   0.698559 0.594584 0.185302 -0.116297
O84   O     O_2   0.774284 0.535831 0.223810 -0.328072
O85   O     O_3   0.642031 0.562737 0.238494 -0.491973
O86   O     O_2   0.218819 0.459274 0.781397 -0.314078
O87   O     O_2   0.281473 0.386255 0.820000 -0.112619
O88   O     O_3   0.356216 0.443199 0.775264 -0.424614
O89   O     O_2   0.629337 0.330788 0.186659 -0.192554
O90   O     O_R   0.000000 0.439250 0.180570 -0.584854
O91   O     O_2   0.629494 0.198372 0.175640 -0.205271
O92   O     O_3   0.552290 0.246991 0.221485 -0.519056
O93   O     O_2   0.413583 0.827937 0.807663 -0.316263
O94   O     O_2   0.300376 0.819470 0.836236 -0.192622
O95   O     O_3   0.380895 0.703601 0.830670 -0.416104
O96   O     O_2   0.300738 0.403973 0.184887 -0.115614
O97   O     O_2   0.223984 0.463231 0.222986 -0.332303
O98   O     O_3   0.356367 0.438362 0.238049 -0.491425
O99   O     O_2   0.778125 0.538203 0.778859 -0.307913
O100  O     O_2   0.712982 0.608398 0.817732 -0.088360
O101  O     O_R   0.439250 0.000000 0.819430 -0.557575
O102  O     O_3   0.641292 0.555477 0.771080 -0.431913
O103  O     O_2   0.369623 0.670244 0.185898 -0.192734
O104  O     O_2   0.367386 0.802532 0.174938 -0.203739
O105  O     O_3   0.447207 0.755345 0.220098 -0.518175
O106  O     O_2   0.584295 0.175141 0.805392 -0.315854
O107  O     O_2   0.694317 0.190166 0.835373 -0.193159
O108  O     O_3   0.612988 0.303537 0.825130 -0.410477
O109  O     O_3   0.500000 0.000000 0.750000 -0.572939
O110  O     O_R   0.560750 0.000000 0.180570 -0.549214
O111  O     O_R   0.414500 0.146140 0.268270 -0.587156
O112  O     O_R   0.585500 0.853860 0.731730 -0.631696
O113  O     O_R   0.853860 0.414500 0.268270 -0.592090
O114  O     O_R   0.146140 0.585500 0.731730 -0.602456
O115  O     O_R   0.585500 0.853860 0.268270 -0.603603
O116  O     O_R   0.414500 0.146140 0.731730 -0.642439
O117  O     O_R   0.146140 0.585500 0.268270 -0.592869
O118  O     O_R   0.853860 0.414500 0.731730 -0.572439
O119  O     O_R   0.414500 0.853860 0.731730 -0.578362
O120  O     O_3   1.000000 0.500000 0.250000 -0.574317
O121  O     O_R   0.585500 0.146140 0.268270 -0.576511
O122  O     O_R   0.853860 0.585500 0.731730 -0.584531
O123  O     O_R   0.146140 0.414500 0.268270 -0.617415
O124  O     O_R   0.585500 0.146140 0.731730 -0.598156
O125  O     O_R   0.414500 0.853860 0.268270 -0.600118
O126  O     O_R   0.146140 0.414500 0.731730 -0.572331
O127  O     O_R   0.853860 0.585500 0.268270 -0.616804
O128  O     O_R   0.914500 0.646140 0.768270 -0.602091
O129  O     O_R   0.085500 0.353860 0.231730 -0.609923
O130  O     O_R   0.353860 0.914500 0.768270 -0.590213
O131  O     O_3   1.000000 0.500000 0.750000 -0.579200
O132  O     O_R   0.646140 0.085500 0.231730 -0.623588
O133  O     O_R   0.085500 0.353860 0.768270 -0.637828
O134  O     O_R   0.914500 0.646140 0.231730 -0.609854
O135  O     O_R   0.646140 0.085500 0.768270 -0.590376
O136  O     O_R   0.353860 0.914500 0.231730 -0.618697
O137  O     O_R   0.914500 0.353860 0.231730 -0.571444
O138  O     O_R   0.085500 0.646140 0.768270 -0.600906
O139  O     O_R   0.353860 0.085500 0.231730 -0.611763
O140  O     O_R   0.646140 0.914500 0.768270 -0.573986
O141  O     O_R   0.085500 0.646140 0.231730 -0.570446
O142  O     O_R   0.500000 0.939250 0.319430 -0.557390
O143  O     O_R   0.914500 0.353860 0.768270 -0.618289
O144  O     O_R   0.646140 0.914500 0.231730 -0.609111
O145  O     O_R   0.353860 0.085500 0.768270 -0.545443
O146  O     O_2   0.354582 0.101904 0.153916 -0.173514
O147  O     O_2   0.290810 0.056671 0.108422 -0.299139
O148  O     O_3   0.325526 0.962674 0.149747 -0.453334
O149  O     O_2   0.674064 0.929854 0.853022 -0.226351
O150  O     O_2   0.631719 0.829645 0.885766 -0.289573
O151  O     O_3   0.562016 0.854548 0.835455 -0.484298
O152  O     O_2   0.072433 0.322899 0.144111 -0.268815
O153  O     O_R   0.500000 0.060750 0.680570 -0.581048
O154  O     O_2   0.170951 0.374095 0.112896 -0.252954
O155  O     O_3   0.141794 0.437593 0.164503 -0.490546
O156  O     O_2   0.852076 0.547882 0.836225 -0.179733
O157  O     O_2   0.814318 0.622300 0.879884 -0.247352
O158  O     O_3   0.923190 0.666884 0.847803 -0.488286
O159  O     O_2   0.645812 0.898462 0.153496 -0.173354
O160  O     O_2   0.709074 0.944409 0.108098 -0.299481
O161  O     O_3   0.674166 0.037888 0.149809 -0.453561
O162  O     O_2   0.326317 0.071014 0.852757 -0.215907
O163  O     O_2   0.368547 0.170671 0.886065 -0.289688
O164  O     O_R   0.060750 0.500000 0.319430 -0.590350
O165  O     O_3   0.439212 0.145820 0.835953 -0.480233
O166  O     O_2   0.926957 0.676453 0.144940 -0.266578
O167  O     O_2   0.825582 0.625976 0.115103 -0.254280
O168  O     O_3   0.858029 0.562693 0.166197 -0.493549
O169  O     O_2   0.147458 0.463360 0.838802 -0.208683
O170  O     O_2   0.187816 0.392864 0.883012 -0.251802
O171  O     O_3   0.089341 0.335945 0.847793 -0.539163
O172  O     O_2   0.879953 0.622218 0.657975 -0.183413
O173  O     O_2   0.804845 0.604526 0.612414 -0.294801
O174  O     O_3   0.819166 0.495523 0.649123 -0.455019
O175  O     O_R   0.939250 0.500000 0.680570 -0.546469
O176  O     O_2   0.170886 0.417470 0.355269 -0.285828
O177  O     O_2   0.114602 0.317631 0.384410 -0.243218
O178  O     O_3   0.055188 0.354527 0.333041 -0.474701
O179  O     O_2   0.574055 0.823557 0.643992 -0.274361
O180  O     O_2   0.673343 0.876572 0.613788 -0.259721
O181  O     O_3   0.642046 0.937536 0.665642 -0.478577
O182  O     O_2   0.400598 0.150440 0.346970 -0.166964
O183  O     O_2   0.447176 0.211137 0.393060 -0.305212
O184  O     O_3   0.539151 0.174591 0.351348 -0.448076
O185  O     O_2   0.142059 0.393667 0.652475 -0.171288
O186  O     O_R   0.500000 0.060750 0.319430 -0.545298
O187  O     O_2   0.204831 0.438482 0.606722 -0.299119
O188  O     O_3   0.175306 0.532009 0.649242 -0.453593
O189  O     O_2   0.829016 0.582820 0.354737 -0.289676
O190  O     O_2   0.884932 0.680167 0.385668 -0.241242
O191  O     O_3   0.946449 0.645842 0.334323 -0.470854
O192  O     O_2   0.418890 0.172500 0.646114 -0.278600
O193  O     O_2   0.320240 0.117814 0.615949 -0.252274
O194  O     O_3   0.355457 0.055022 0.666956 -0.532485
O195  O     O_2   0.597934 0.848395 0.348185 -0.223081
O196  O     O_2   0.544329 0.787698 0.392903 -0.301380
S1    S     S_3+6 0.350281 0.039707 0.131083 0.082641
S2    S     S_3+6 0.099729 0.383819 0.364731 0.077277
S3    S     S_3+6 0.609546 0.894081 0.634194 0.071703
S4    S     S_3+6 0.462078 0.151621 0.369789 0.081484
S5    S     S_3+6 0.147239 0.456492 0.630155 0.081763
S6    S     S_3+6 0.900068 0.615111 0.365227 0.077755
S7    S     S_3+6 0.385231 0.101348 0.635791 0.054977
S8    S     S_3+6 0.533460 0.847466 0.369488 0.075417
S9    S     S_3+6 0.269419 0.858250 0.310895 0.135740
S10   S     S_3+6 0.734644 0.141738 0.690855 0.156989
S11   S     S_3+6 0.094746 0.209581 0.278969 0.109076
S12   S     S_3+6 0.607761 0.891614 0.865266 0.064794
S13   S     S_3+6 0.889213 0.769556 0.706872 0.171836
S14   S     S_3+6 0.732267 0.140748 0.310402 0.126401
S15   S     S_3+6 0.309040 0.799655 0.685911 0.108480
S16   S     S_3+6 0.904727 0.789785 0.279776 0.109504
S17   S     S_3+6 0.118537 0.236969 0.701973 0.115925
S18   S     S_3+6 0.209358 0.090535 0.722899 0.108818
S19   S     S_3+6 0.756809 0.877301 0.300968 0.135193
S20   S     S_3+6 0.135586 0.754208 0.701059 0.142676
S21   S     S_3+6 0.863482 0.261860 0.309199 0.164058
S22   S     S_3+6 0.786264 0.910865 0.723259 0.087932
S23   S     S_3+6 0.108028 0.392835 0.133633 0.073070
S24   S     S_3+6 0.242267 0.122117 0.300339 0.136466
S25   S     S_3+6 0.855386 0.273656 0.691117 0.112340
S26   S     S_3+6 0.137669 0.737718 0.309539 0.163734
S27   S     S_3+6 0.763721 0.359837 0.809434 0.156283
S28   S     S_3+6 0.200625 0.684729 0.185940 0.125778
S29   S     S_3+6 0.587925 0.713916 0.776496 0.121620
S30   S     S_3+6 0.377606 0.260578 0.199766 0.166433
S31   S     S_3+6 0.232930 0.643474 0.812446 0.153946
S32   S     S_3+6 0.798115 0.315520 0.186007 0.124425
S33   S     S_3+6 0.409703 0.284410 0.778123 0.122440
S34   S     S_3+6 0.879364 0.593967 0.862627 0.084877
S35   S     S_3+6 0.622976 0.739344 0.199565 0.164712
S36   S     S_3+6 0.715832 0.592311 0.219319 0.088650
S37   S     S_3+6 0.277885 0.403447 0.785983 0.135359
S38   S     S_3+6 0.628935 0.255489 0.200842 0.132769
S39   S     S_3+6 0.348970 0.779992 0.813678 0.117454
S40   S     S_3+6 0.283108 0.407252 0.218859 0.088875
S41   S     S_3+6 0.718965 0.593896 0.783516 0.152862
S42   S     S_3+6 0.369719 0.745695 0.200108 0.131947
S43   S     S_3+6 0.647675 0.225074 0.810887 0.112984
S44   S     S_3+6 0.649676 0.960877 0.130890 0.082446
S45   S     S_3+6 0.392563 0.108770 0.865410 0.067111
S46   S     S_3+6 0.889906 0.606795 0.134916 0.072176
S47   S     S_3+6 0.122421 0.412986 0.864067 0.070952
S48   S     S_3+6 0.860083 0.568543 0.632955 0.078583
Zn1   Zn    Zn3+2 0.413200 0.000000 0.224130 1.155072
Zn2   Zn    Zn3+2 0.086800 0.500000 0.275870 1.144896
Zn3   Zn    Zn3+2 0.500000 0.913200 0.724130 1.149444
Zn4   Zn    Zn3+2 0.500000 0.086800 0.275870 1.179981
Zn5   Zn    Zn3+2 0.086800 0.500000 0.724130 1.190694
Zn6   Zn    Zn3+2 0.913200 0.500000 0.275870 1.144341
Zn7   Zn    Zn3+2 0.500000 0.086800 0.724130 1.146452
Zn8   Zn    Zn3+2 0.500000 0.913200 0.275870 1.139611
Zn9   Zn    Zn3+2 0.586800 0.000000 0.775870 1.196138
Zn10  Zn    Zn3+2 1.000000 0.413200 0.224130 1.168641
Zn11  Zn    Zn3+2 1.000000 0.586800 0.775870 1.172915
Zn12  Zn    Zn3+2 0.586800 0.000000 0.224130 1.154034
Zn13  Zn    Zn3+2 0.413200 0.000000 0.775870 1.197826
Zn14  Zn    Zn3+2 0.000000 0.586800 0.224130 1.169419
Zn15  Zn    Zn3+2 1.000000 0.413200 0.775870 1.143884
Zn16  Zn    Zn3+2 0.913200 0.500000 0.724130 1.199027

loop_
_geom_bond_atom_site_label_1
_geom_bond_atom_site_label_2
_ccdc_geom_bond_type
C78   H50   S    
C38   H120  S    
O159  S44   D    
C22   C150  A    
O50   S25   D    
H46   O191  S    
C129  O110  A    
O191  S6    S    
C64   H22   S    
O151  S12   S    
C48   H142  S    
C92   C133  A    
O174  S48   S    
C14   C170  A    
O127  Zn6   S    
C134  O138  A    
C119  N11   A    
C57   C102  A    
C29   C119  S    
O95   S39   S    
C128  O57   A    
C116  N7    A    
C24   C98   A    
C31   C101  A    
C62   H12   S    
H77   O26   S    
C154  C158  A    
O41   S21   D    
O189  S6    D    
C77   H53   S    
C6    C25   A    
C83   H56   S    
O132  Zn12  S    
O49   S24   S    
O183  S4    D    
O152  S23   D    
C147  O127  A    
O109  Zn3   S    
H88   O59   S    
O44   S22   D    
C138  O118  A    
C77   C101  S    
O103  S42   D    
O120  Zn14  S    
O16   S13   S    
C151  C161  A    
C48   C91   S    
C86   H64   S    
C3    C19   A    
C36   H110  S    
C131  O140  A    
C67   H29   S    
C172  C175  A    
O158  S34   S    
C143  O124  A    
C59   C60   S    
C10   C162  A    
C82   H59   S    
O135  Zn9   S    
C137  O141  A    
C23   C143  S    
O97   S40   D    
C118  N1    A    
C66   H18   S    
C27   C117  S    
C111  S34   S    
H76   O22   S    
C15   C173  A    
C51   C52   S    
C149  S10   S    
C4    C169  A    
O160  S44   D    
O171  S47   S    
C106  C127  S    
O10   S11   D    
C8    C137  S    
O110  Zn12  S    
C58   H7    S    
O1    Zn4   S    
O124  Zn7   S    
C135  O115  A    
C75   C76   S    
C169  S30   S    
O116  Zn7   S    
C51   C92   S    
H86   O52   S    
C9    C138  S    
C2    S2    S    
O138  Zn11  S    
H98   O88   S    
C76   H41   S    
O82   S35   S    
C63   H10   S    
C39   H118  S    
H75   O19   S    
C40   H113  S    
O27   S17   D    
C32   C116  S    
N9    N12   A    
C37   H108  S    
C124  O164  A    
C161  S22   S    
N6    N16   A    
C113  N6    A    
O111  Zn4   S    
C73   H32   S    
C115  N8    A    
H90   O65   S    
C104  C129  S    
C87   C89   A    
C8    C164  A    
C1    C79   A    
C147  O134  A    
O19   S14   S    
C16   C157  A    
C121  O142  A    
O86   S37   D    
C95   C166  A    
C127  O90   A    
C135  O144  A    
C105  C133  A    
O92   S38   S    
C108  C166  A    
C130  O111  A    
C12   C132  S    
O67   S30   D    
C90   C111  A    
O131  Zn5   S    
C72   C73   S    
H92   O72   S    
O13   Zn6   S    
C83   H54   S    
C71   H38   S    
C143  O135  A    
C100  C106  A    
C52   H148  S    
O98   S40   S    
C2    C96   A    
C17   C146  S    
O1    Zn8   S    
C123  O2    A    
C80   H47   S    
C167  S28   S    
C76   H39   S    
O53   S26   D    
O59   S27   S    
H70   O6    S    
C131  O112  A    
C85   H66   S    
C24   S4    S    
O120  Zn6   S    
H78   O29   S    
O9    S10   S    
O36   S19   S    
C13   C97   A    
C69   C70   S    
H117  O165  S    
O94   S39   D    
C13   S3    S    
C49   H141  S    
C157  S18   S    
C45   H133  S    
C5    C21   A    
C77   H52   S    
C19   C139  S    
C121  O186  A    
C74   H44   S    
O100  S41   D    
C61   H15   S    
O190  S6    D    
C47   H131  S    
O126  Zn5   S    
C107  C155  A    
C17   C175  A    
C127  O46   A    
C70   H26   S    
C2    C109  A    
O68   Zn1   S    
O188  S5    S    
C174  S36   S    
C24   C112  A    
N4    N7    A    
C156  S17   S    
C150  S11   S    
N10   N15   A    
C85   C86   S    
C60   H3    S    
N1    N13   A    
C53   H146  S    
C74   H45   S    
H103  O105  S    
O125  Zn8   S    
H80   O36   S    
C73   H33   S    
C36   C37   S    
C165  S27   S    
O136  Zn1   S    
C38   C39   S    
C78   C80   S    
H150  O174  S    
C141  O122  A    
C104  C122  A    
O137  Zn10  S    
C122  S44   S    
O129  Zn10  S    
C40   H115  S    
C59   H5    S    
C68   C112  A    
C114  N16   A    
O107  S43   D    
O7    S10   D    
H74   O16   S    
C46   S6    S    
C94   C155  A    
C66   H16   S    
O163  S45   D    
H101  O98   S    
C116  N3    A    
C117  N13   A    
C18   C154  A    
C1    S1    S    
C65   H20   S    
O143  Zn15  S    
O66   S30   D    
C119  N15   A    
N3    N8    A    
O65   S29   S    
O117  Zn2   S    
O93   S39   D    
O26   S16   S    
O115  Zn8   S    
O144  Zn12  S    
O114  Zn5   S    
C126  O35   A    
C153  S15   S    
C168  S29   S    
C46   C101  A    
C142  O123  A    
C4    S40   S    
C141  O128  A    
C148  C164  A    
C56   H154  S    
C64   C96   S    
C15   C158  A    
C18   C147  S    
C28   C120  S    
C39   C40   S    
H57   O194  S    
C120  N14   A    
C63   H9    S    
H128  O168  S    
O55   S26   S    
O101  Zn13  S    
C54   H158  S    
O74   S32   D    
C60   H159  S    
C34   C79   S    
C4    C22   A    
O187  S5    D    
O181  S3    S    
C22   C142  S    
C155  S47   S    
O17   S14   D    
C47   H129  S    
O1    Zn1   S    
C27   C87   A    
C124  O13   A    
C93   C144  A    
C125  O175  A    
C18   C174  A    
O122  Zn16  S    
O46   Zn14  S    
O25   S16   D    
C154  S16   S    
C80   H49   S    
C53   H144  S    
O29   S17   S    
C16   C136  S    
C37   H105  S    
C130  O139  A    
O142  Zn8   S    
C52   C53   S    
H91   O69   S    
C78   H51   S    
C54   C55   S    
H104  O108  S    
O45   S22   S    
C107  C111  A    
C89   S12   S    
O109  Zn7   S    
C26   C118  S    
H24   O184  S    
C41   H126  S    
O147  S1    D    
N2    N5    A    
C171  C176  A    
O131  Zn16  S    
H139  O171  S    
C14   C159  A    
O130  Zn13  S    
H2    O178  S    
C91   C122  A    
C112  C121  S    
O33   S19   D    
N11   N14   A    
O154  S23   D    
C20   C176  A    
C51   H151  S    
C115  N4    A    
C7    C23   A    
C81   H61   S    
C34   C36   S    
O177  S2    D    
C21   C151  A    
C7    C165  A    
C61   C62   S    
O120  Zn10  S    
H68   O3    S    
H79   O32   S    
O167  S46   D    
C69   H28   S    
C49   C50   S    
C89   C105  A    
C171  S32   S    
C25   C148  A    
C31   C113  S    
O38   S20   D    
O24   Zn5   S    
C42   H125  S    
C55   C56   S    
C159  S20   S    
C41   C42   S    
O1    Zn12  S    
H73   O151  S    
O175  Zn16  S    
H100  O95   S    
O90   Zn10  S    
C77   C78   S    
O120  Zn2   S    
O168  S46   S    
C55   H156  S    
C152  S14   S    
H95   O158  S    
O148  S1    S    
C6    S42   S    
O87   S37   D    
O35   Zn15  S    
O170  S47   D    
C11   C161  A    
C100  S23   S    
O32   S18   S    
O172  S48   D    
C5    C168  A    
C9    C163  A    
O79   Zn11  S    
C54   C93   S    
C137  O117  A    
C128  O101  A    
C50   H137  S    
C132  O113  A    
O21   S15   D    
C57   S7    S    
O139  Zn1   S    
C68   C103  A    
C40   H114  S    
C173  S35   S    
O62   S28   S    
C3    S39   S    
C37   H107  S    
O37   S20   D    
O5    S9    D    
O14   S13   D    
O108  S43   S    
C144  S46   S    
C73   H31   S    
O150  S12   D    
C163  S25   S    
C64   H21   S    
H72   O12   S    
C44   H135  S    
C36   H109  S    
C29   C90   A    
H102  O102  S    
C12   C171  A    
O34   S19   D    
C170  S31   S    
C150  C162  A    
C33   C115  S    
H85   O49   S    
O23   S16   D    
H82   O42   S    
H1    O148  S    
C84   C85   S    
H84   O155  S    
O185  S5    D    
O180  S3    D    
C43   H121  S    
C51   H149  S    
C58   C59   S    
C71   H37   S    
C20   C152  A    
C28   C93   A    
C10   C169  A    
C10   C130  S    
C117  N9    A    
C30   C95   A    
C134  O114  A    
C8    C167  A    
H99   O92   S    
C80   H48   S    
C76   H40   S    
C57   C110  A    
O173  S48   D    
O2    Zn3   S    
O128  Zn11  S    
O22   S15   S    
C85   H65   S    
C86   H63   S    
O61   S28   D    
C12   C160  A    
C68   S8    S    
C114  N5    A    
C88   C100  A    
C67   H30   S    
O11   S11   D    
O39   S20   S    
O169  S47   D    
O121  Zn4   S    
O149  S12   D    
C48   C49   S    
C43   H122  S    
O51   S25   D    
O157  S34   D    
C123  O153  A    
O73   S32   D    
C82   H58   S    
C61   H14   S    
O196  S8    D    
C145  O125  A    
C42   C43   S    
O77   S33   D    
C66   H17   S    
C44   C45   S    
O146  S1    D    
C120  N10   A    
C30   C114  S    
O20   S15   D    
O109  Zn9   S    
O15   S13   D    
C41   C88   S    
C59   H4    S    
C63   H8    S    
C39   H116  S    
C33   C103  A    
C86   H62   S    
O48   S24   D    
C56   H152  S    
O141  Zn14  S    
C61   C95   S    
C3    C170  A    
C74   C99   S    
O84   S36   D    
O40   S21   D    
C53   H145  S    
C26   C79   A    
C38   C87   S    
C58   H6    S    
C166  S48   S    
C64   C65   S    
C20   C140  S    
C9    C165  A    
O178  S2    S    
C21   C141  S    
O76   S33   D    
C41   H127  S    
O91   S38   D    
C29   C94   A    
H89   O62   S    
O113  Zn6   S    
O60   S28   D    
C84   H67   S    
O106  S43   D    
O96   S40   D    
C35   S5    S    
O131  Zn11  S    
C140  O132  A    
C67   C97   S    
O12   S11   S    
H93   O75   S    
O164  Zn2   S    
O186  Zn4   S    
C82   C83   S    
O64   S29   D    
C46   C109  A    
O63   S29   D    
O161  S44   S    
O75   S32   S    
O162  S45   D    
O88   S37   S    
C45   H132  S    
O18   S14   D    
C17   C156  A    
H13   O181  S    
O83   S36   D    
C146  O133  A    
C50   H136  S    
C31   C96   A    
C129  O68   A    
C62   H11   S    
C65   H19   S    
C152  C160  A    
C70   H23   S    
O166  S46   D    
C148  S9    S    
H83   O45   S    
C81   C82   S    
C138  O143  A    
C72   H36   S    
C173  C174  A    
C32   C97   A    
C162  S24   S    
O56   S27   D    
C62   C63   S    
C52   H147  S    
C83   H55   S    
C160  S21   S    
C164  S26   S    
C156  C157  A    
C145  O136  A    
C110  C123  S    
C15   C135  S    
C176  S38   S    
O118  Zn16  S    
O70   S31   D    
C175  S37   S    
C142  O129  A    
C33   C98   A    
O81   S35   D    
C45   C47   S    
O4    S9    D    
C60   H160  S    
C125  O24   A    
C56   H153  S    
O30   S18   D    
O85   S36   S    
C72   H34   S    
C28   C88   A    
C149  C163  A    
C75   H43   S    
C108  C125  S    
C26   C91   A    
C133  S45   S    
O47   S24   D    
O99   S41   D    
C70   H25   S    
C172  S33   S    
O140  Zn9   S    
O153  Zn7   S    
C35   C99   A    
C151  S13   S    
H96   O82   S    
C113  N2    A    
O112  Zn3   S    
C81   C102  S    
O155  S23   S    
C71   C98   S    
C74   C75   S    
O193  S7    D    
C44   H134  S    
C140  O121  A    
O28   S17   D    
O3    S8    S    
O52   S25   S    
O54   S26   D    
C23   C149  A    
O78   S33   S    
O104  S42   D    
H35   O188  S    
C14   C134  S    
C75   H42   S    
C30   C99   A    
O131  Zn15  S    
C126  O79   A    
C34   H112  S    
C84   H69   S    
C67   C69   S    
O72   S31   S    
C50   H138  S    
C153  C159  A    
O105  S42   S    
O109  Zn13  S    
C13   C110  A    
O43   S22   D    
C158  S19   S    
C16   C172  A    
O145  Zn13  S    
O182  S4    D    
C34   H111  S    
C81   H60   S    
C27   C92   A    
O102  S41   S    
O195  S8    D    
C49   H140  S    
C1    C104  A    
O179  S3    D    
C136  O145  A    
H87   O55   S    
C69   H27   S    
C139  O130  A    
C38   H119  S    
C32   C102  A    
C5    S41   S    
O156  S34   D    
O134  Zn14  S    
O42   S21   S    
C44   C90   S    
O57   Zn9   S    
C7    S43   S    
C35   C108  A    
O31   S18   D    
C43   H123  S    
C6    C167  A    
O8    S10   D    
C105  C128  S    
C136  O116  A    
H71   O9    S    
O194  S7    S    
C107  C126  S    
C139  O119  A    
C11   C131  S    
O89   S38   D    
O58   S27   D    
C109  C124  S    
C106  C144  A    
O123  Zn2   S    
C132  O137  A    
O133  Zn15  S    
C54   H157  S    
C55   H155  S    
O69   S30   S    
C58   C94   S    
H94   O78   S    
O6    S9    S    
C11   C168  A    
H106  O161  S    
C146  O126  A    
O184  S4    S    
O192  S7    D    
C47   H130  S    
C118  N12   A    
O80   S35   D    
C19   C153  A    
H97   O85   S    
C71   C72   S    
C65   C66   S    
C48   H143  S    
O176  S2    D    
C84   C103  S    
O119  Zn3   S    
C25   C145  S    
H81   O39   S    
C42   H124  S    
O71   S31   D    
O165  S45   S    
