data_mof_unit_50067.cif
_audit_creation_date              2012-12-10T18:55:20-0500
_audit_creation_method            fapswitch 2.2
_symmetry_space_group_name_H-M    P1
_symmetry_Int_Tables_number       1
_space_group_crystal_system       triclinic
_cell_length_a                    10.686414
_cell_length_b                    9.821611
_cell_length_c                    27.775172
_cell_angle_alpha                 90.044047
_cell_angle_beta                  90.34715
_cell_angle_gamma                 89.939759
_cell_volume                      2915.16501583

loop_
_atom_site_label
_atom_site_type_symbol
_atom_type_description
_atom_site_fract_x
_atom_site_fract_y
_atom_site_fract_z
_atom_type_partial_charge
C1    C     C_R   0.259875 0.500051 0.500049 0.858327
C2    C     C_R   0.385652 0.509147 0.872551 0.005482
C3    C     C_R   0.504398 0.499345 0.353416 -0.162807
C4    C     C_R   0.495580 0.500642 0.646583 -0.162793
C5    C     C_R   0.384401 0.502022 0.974283 0.098226
C6    C     C_R   0.615654 0.497609 0.025717 0.098267
C7    C     C_R   0.615518 0.502726 0.974649 -0.027044
C8    C     C_R   0.384538 0.496756 0.025346 -0.027011
C9    C     C_R   0.500072 0.503196 0.949205 0.071645
C10   C     C_R   0.499977 0.496386 0.050793 0.071664
C11   C     C_R   0.271952 0.508838 0.947185 -0.218361
C12   C     C_R   0.740125 0.499949 0.499951 0.858325
C13   C     C_R   0.728100 0.491049 0.052825 -0.218332
C14   C     C_R   0.272921 0.511550 0.897430 -0.144699
C15   C     C_R   0.727113 0.488411 0.102581 -0.144701
C16   C     C_R   0.501212 0.500007 0.406024 0.899280
C17   C     C_R   0.498783 0.499992 0.593975 0.899284
C18   C     C_R   0.272433 0.489885 0.051966 -0.320935
C19   C     C_R   0.727624 0.509343 0.948020 -0.320755
C20   C     C_R   0.064439 0.383298 0.515092 -0.203175
C21   C     C_R   0.935561 0.616703 0.484909 -0.203166
C22   C     C_R   0.936279 0.383161 0.514971 -0.183303
C23   C     C_R   0.499992 0.493288 0.101898 -0.122520
C24   C     C_R   0.063721 0.616839 0.485030 -0.183296
C25   C     C_R   0.872500 0.499888 0.499908 -0.006273
C26   C     C_R   0.127500 0.500112 0.500093 -0.006278
C27   C     C_R   0.575481 0.072006 0.530966 -0.039161
C28   C     C_R   0.424519 0.927994 0.469034 -0.039169
C29   C     C_R   0.424505 0.072034 0.469039 -0.076680
C30   C     C_R   0.575495 0.927966 0.530961 -0.076682
C31   C     C_R   0.390541 0.491940 0.178238 0.544430
C32   C     C_R   0.609468 0.507767 0.821754 0.544288
C33   C     C_R   0.613729 0.489478 0.177703 0.513931
C34   C     C_R   0.500042 0.506365 0.898099 -0.122457
C35   C     C_R   0.386281 0.510459 0.822302 0.513916
C36   C     C_R   0.543384 0.610923 0.277204 -0.199741
C37   C     C_R   0.456551 0.389037 0.722785 -0.199855
C38   C     C_R   0.545583 0.614331 0.327379 0.497441
C39   C     C_R   0.454351 0.385662 0.672612 0.497476
C40   C     C_R   0.467114 0.381272 0.328671 -0.283551
C41   C     C_R   0.532900 0.618686 0.671337 -0.283593
C42   C     C_R   0.467561 0.378311 0.278733 -0.092348
C43   C     C_R   0.532457 0.621614 0.721275 -0.092310
C44   C     C_R   0.504942 0.493241 0.253057 0.238652
C45   C     C_R   0.386126 0.492425 0.127578 -0.147803
C46   C     C_R   0.495038 0.506683 0.746942 0.238691
C47   C     C_3   0.096958 0.610206 0.122987 -0.227573
C48   C     C_3   0.902657 0.388663 0.876833 -0.227544
C49   C     C_3   0.285800 0.272790 0.643182 -0.262886
C50   C     C_3   0.714100 0.727280 0.356802 -0.262837
C51   C     C_R   0.613899 0.507132 0.872414 -0.147843
C52   C     C_R   0.271942 0.492452 0.102107 0.565121
C53   C     C_R   0.728090 0.506848 0.897881 0.564956
C54   C     C_R   0.614373 0.490696 0.127454 0.005568
H1    H     H_    0.436094 0.291649 0.347906 0.184917
H2    H     H_    0.571894 0.699715 0.256939 0.158336
H3    H     H_    0.184117 0.516280 0.878484 0.193329
H4    H     H_    0.815912 0.483856 0.121533 0.193102
H5    H     H_    0.180460 0.514227 0.962970 0.139777
H6    H     H_    0.819618 0.485886 0.037056 0.139635
H7    H     H_    0.181910 0.480190 0.035260 0.154782
H8    H     H_    0.818190 0.518714 0.964712 0.154782
H9    H     H_    0.113881 0.293125 0.527251 0.152674
H10   H     H_    0.886119 0.706875 0.472750 0.152673
H11   H     H_    0.887409 0.292888 0.527040 0.151804
H12   H     H_    0.563953 0.708303 0.652107 0.184900
H13   H     H_    0.112591 0.707112 0.472961 0.151808
H14   H     H_    0.061918 0.629636 0.085844 0.126606
H15   H     H_    0.158102 0.695418 0.135292 0.162310
H16   H     H_    0.014718 0.607777 0.147134 0.207866
H17   H     H_    0.841399 0.303984 0.864169 0.162796
H18   H     H_    0.937065 0.368314 0.913998 0.126579
H19   H     H_    0.985291 0.391248 0.852886 0.207657
H20   H     H_    0.256993 0.362006 0.620982 0.147893
H21   H     H_    0.236850 0.274305 0.678443 0.170157
H22   H     H_    0.255657 0.179732 0.623669 0.189044
H23   H     H_    0.635775 0.126724 0.555689 0.135928
H24   H     H_    0.763058 0.725766 0.321543 0.170168
H25   H     H_    0.742930 0.638084 0.379008 0.147891
H26   H     H_    0.744213 0.820357 0.376311 0.189045
H27   H     H_    0.364225 0.873276 0.444311 0.135947
H28   H     H_    0.364204 0.126774 0.444317 0.130428
H29   H     H_    0.635796 0.873226 0.555683 0.130424
H30   H     H_    0.438099 0.287148 0.259882 0.157799
H31   H     H_    0.561957 0.712749 0.740135 0.157774
H32   H     H_    0.428012 0.300245 0.743044 0.158296
N1    N     N_R   0.503030 0.491011 0.201768 -0.350841
N2    N     N_R   0.496972 0.508861 0.798231 -0.350814
N3    N     N_R   0.500000 0.857200 0.500000 -0.084290
N4    N     N_R   0.500000 0.142800 0.500000 -0.084285
O1    O     O_R   0.316770 0.614620 0.500000 -0.629220
O2    O     O_2   0.715975 0.505845 0.795907 -0.495221
O3    O     O_2   0.277219 0.513670 0.797504 -0.560574
O4    O     O_2   0.722786 0.486423 0.202507 -0.560621
O5    O     O_3   0.158833 0.483448 0.125959 -0.559013
O6    O     O_3   0.841219 0.515695 0.874037 -0.559119
O7    O     O_3   0.416753 0.267827 0.649483 -0.596839
O8    O     O_3   0.583146 0.732195 0.350498 -0.596846
O9    O     O_R   0.683230 0.385380 0.500000 -0.629220
O10   O     O_R   0.683230 0.614620 0.500000 -0.629334
O11   O     O_R   0.316770 0.385380 0.500000 -0.629322
O12   O     O_R   0.500030 0.614650 0.428760 -0.569771
O13   O     O_R   0.499970 0.385350 0.571240 -0.569758
O14   O     O_R   0.499970 0.614650 0.571240 -0.628499
O15   O     O_R   0.500030 0.385350 0.428760 -0.628503
O16   O     O_2   0.284024 0.493852 0.204080 -0.495088
Zn1   Zn    Zn3+2 0.500000 0.653120 0.500000 0.966276
Zn2   Zn    Zn3+2 0.500000 0.346880 0.500000 0.966287

loop_
_geom_bond_atom_site_label_1
_geom_bond_atom_site_label_2
_ccdc_geom_bond_type
C2    C35   A    
C23   C45   A    
C38   O8    S    
C50   H25   S    
C18   C52   A    
C32   C51   A    
C13   H6    S    
C32   O2    S    
O9    Zn2   S    
C34   C51   A    
C52   O5    S    
C28   C29   A    
C17   O14   A    
C24   C26   A    
C5    C11   A    
C11   C14   A    
C39   O7    S    
C4    C41   A    
C19   H8    S    
C32   N2    A    
C27   N4    A    
C30   H29   S    
C47   H15   S    
C12   O9    A    
C24   H13   S    
C3    C38   A    
C21   H10   S    
C22   C25   A    
C49   H21   S    
O13   Zn2   S    
C44   N1    S    
C2    C34   A    
O11   Zn2   S    
C40   C42   A    
C1    O1    A    
C33   O4    S    
C53   O6    S    
C41   C43   A    
C42   C44   A    
C48   H18   S    
C30   N3    A    
C11   H5    S    
C50   H24   S    
C29   N4    A    
C6    C7    A    
C46   N2    S    
C35   O3    S    
O15   Zn2   S    
C50   O8    S    
C31   N1    A    
C43   H31   S    
C15   C54   A    
O1    Zn1   S    
C37   H32   S    
C42   H30   S    
C45   C52   A    
C47   H16   S    
C8    C18   A    
C51   C53   A    
C22   H11   S    
C5    C9    A    
C36   H2    S    
C35   N2    A    
C4    C39   A    
C40   H1    S    
N3    Zn1   S    
C49   H22   S    
O12   Zn1   S    
C28   N3    A    
C16   O15   A    
C4    C17   S    
C16   O12   A    
C20   C22   A    
C3    C40   A    
C7    C19   A    
C13   C15   A    
C9    C34   A    
C15   H4    S    
C36   C44   A    
C48   H17   S    
C1    O11   A    
C47   H14   S    
C23   C54   A    
C33   C54   A    
C7    C9    A    
C14   H3    S    
C21   C25   A    
O10   Zn1   S    
C48   O6    S    
C28   H27   S    
C48   H19   S    
C27   H23   S    
C50   H26   S    
C6    C10   A    
C5    C8    A    
C18   H7    S    
C41   H12   S    
C10   C23   A    
C12   C25   S    
C20   H9    S    
C36   C38   A    
C17   O13   A    
N4    Zn2   S    
C29   H28   S    
C37   C39   A    
C6    C13   A    
C19   C53   A    
C1    C26   S    
C20   C26   A    
C31   O16   S    
C33   N1    A    
C2    C14   A    
C43   C46   A    
C12   O10   A    
C49   O7    S    
C8    C10   A    
C31   C45   A    
C21   C24   A    
C47   O5    S    
C49   H20   S    
C37   C46   A    
O14   Zn1   S    
C3    C16   S    
C27   C30   A    
