data_mof_unit_31095.cif
_audit_creation_date              2012-12-11T17:17:11-0500
_audit_creation_method            fapswitch 2.2
_symmetry_space_group_name_H-M    P1
_symmetry_Int_Tables_number       1
_space_group_crystal_system       triclinic
_cell_length_a                    6.945048
_cell_length_b                    13.390483
_cell_length_c                    14.706748
_cell_angle_alpha                 99.077279
_cell_angle_beta                  89.975149
_cell_angle_gamma                 90.14509
_cell_volume                      1350.55880395

loop_
_atom_site_label
_atom_site_type_symbol
_atom_type_description
_atom_site_fract_x
_atom_site_fract_y
_atom_site_fract_z
_atom_type_partial_charge
O1    O     O_R   0.354890 0.151580 0.148210 -0.541193
O2    O     O_R   0.645110 0.848420 0.851790 -0.541193
O3    O     O_R   0.682370 0.152980 0.336770 -0.537679
O4    O     O_R   0.317630 0.847020 0.663230 -0.537679
O5    O     O_R   0.854980 0.348430 0.351800 -0.537385
O6    O     O_R   0.145020 0.651570 0.648200 -0.537385
C1    C     C_R   0.513743 0.131593 0.366053 0.794065
C2    C     C_R   0.486257 0.868407 0.633947 0.794064
O7    O     O_R   0.684450 0.139580 0.148000 -0.546009
O8    O     O_R   0.315550 0.860420 0.852000 -0.546009
O9    O     O_R   0.857080 0.334940 0.161680 -0.528764
O10   O     O_R   0.142920 0.665060 0.838320 -0.528764
C3    C     C_R   0.515490 0.112676 0.114046 0.738753
C4    C     C_R   0.484510 0.887324 0.885954 0.738754
O11   O     O_R   0.352790 0.165070 0.338330 -0.524467
O12   O     O_R   0.647210 0.834930 0.661670 -0.524467
O13   O     O_3   0.522170 0.314120 0.254710 -0.365958
O14   O     O_3   0.477830 0.685880 0.745290 -0.365958
V1    V     V_3+5 0.796120 0.238110 0.249130 1.516191
V2    V     V_3+5 0.203880 0.761890 0.750870 1.516191
O15   O     O_R   0.186930 0.347040 0.163240 -0.525274
O16   O     O_R   0.813070 0.652960 0.836760 -0.525274
C5    C     C_R   0.018240 0.367993 0.133306 0.770275
C6    C     C_R   0.981760 0.632007 0.866694 0.770275
O17   O     O_R   0.184850 0.360440 0.352010 -0.542420
O18   O     O_R   0.815150 0.639560 0.647990 -0.542420
C7    C     C_R   0.015884 0.387317 0.385972 0.736967
C8    C     C_R   0.984116 0.612683 0.614028 0.736967
V3    V     V_3+5 0.296410 0.261900 0.250880 1.540199
V4    V     V_3+5 0.703590 0.738100 0.749120 1.540200
O19   O     O_3   0.020490 0.185890 0.245290 -0.371989
O20   O     O_3   0.979510 0.814110 0.754710 -0.371988
C9    C     C_1   0.005211 0.466905 0.466338 -0.164247
C10   C     C_1   0.994789 0.533095 0.533662 -0.164248
C11   C     C_3   0.122599 0.579358 0.024775 -0.326286
C12   C     C_3   0.877401 0.420642 0.975225 -0.326286
C13   C     C_3   0.950105 0.548936 0.081183 0.065280
C14   C     C_3   0.049895 0.451064 0.918817 0.065280
H1    H     H_    0.221901 0.643857 0.046221 0.189148
H2    H     H_    0.778099 0.356143 0.953779 0.189148
C15   C     C_3   0.008223 0.437000 0.062271 -0.257593
C16   C     C_3   0.991777 0.563000 0.937729 -0.257594
C17   C     C_3   0.179287 0.465803 0.004399 0.762013
C18   C     C_3   0.820713 0.534197 0.995601 0.762012
C19   C     C_3   0.319406 0.025180 0.479204 0.617481
C20   C     C_3   0.680594 0.974820 0.520796 0.617481
C21   C     C_3   0.402117 0.916957 0.467017 0.067600
C22   C     C_3   0.597882 0.083043 0.532983 0.067600
C23   C     C_3   0.494669 0.937787 0.563830 -0.280501
C24   C     C_3   0.505330 0.062213 0.436170 -0.280500
C25   C     C_3   0.413582 0.046498 0.575426 0.061333
C26   C     C_3   0.586418 0.953502 0.424574 0.061333
C27   C     C_1   0.504890 0.033101 0.033672 -0.171383
C28   C     C_1   0.495110 0.966899 0.966328 -0.171383
N1    N     N_3   0.890922 0.602256 0.170786 -0.609313
H3    H     H_    0.865560 0.677465 0.163451 0.246913
H4    H     H_    0.008428 0.602593 0.215199 0.222419
N2    N     N_3   0.109078 0.397744 0.829214 -0.609313
H5    H     H_    0.134440 0.322535 0.836549 0.246914
H6    H     H_    0.991572 0.397406 0.784801 0.222419
F1    F     F_    0.363493 0.427480 0.006722 -0.632987
F2    F     F_    0.636507 0.572520 0.993278 -0.632987
N3    N     N_3   0.296850 0.825500 0.429634 -0.630337
H7    H     H_    0.246027 0.835045 0.364696 0.255993
H8    H     H_    0.175921 0.821538 0.471222 0.275019
N4    N     N_3   0.703150 0.174500 0.570366 -0.630337
H9    H     H_    0.753973 0.164955 0.635304 0.255993
H10   H     H_    0.824079 0.178462 0.528778 0.275019
F3    F     F_    0.133816 0.050674 0.458165 -0.658164
F4    F     F_    0.866184 0.949326 0.541835 -0.658164
N5    N     N_3   0.320869 0.098731 0.658227 -0.632990
H11   H     H_    0.278557 0.169754 0.644649 0.257657
H12   H     H_    0.194766 0.058981 0.667913 0.267633
N6    N     N_3   0.679131 0.901269 0.341773 -0.632990
H13   H     H_    0.721442 0.830246 0.355351 0.257657
H14   H     H_    0.805235 0.941019 0.332087 0.267633

loop_
_geom_bond_atom_site_label_1
_geom_bond_atom_site_label_2
_ccdc_geom_bond_type
N4    H10   S    
N1    H3    S    
N3    H8    S    
C6    C16   S    
O4    C2    A    
V1    O19   S    
C21   C23   S    
C27   C28   T    
C7    C9    S    
C20   C23   S    
O9    V1    S    
C25   N5    S    
C11   C13   S    
C14   C16   S    
O3    C1    A    
C26   N6    S    
C21   N3    S    
C19   C25   S    
O12   V4    S    
C20   C26   S    
O13   V3    S    
O9    C5    A    
C11   C16   S    
O7    C3    A    
C14   N2    S    
O7    V1    S    
C22   C25   S    
O6    C8    A    
O8    V2    S    
C23   C25   S    
C24   C26   S    
O3    V1    S    
O14   V4    S    
C11   C17   S    
C22   C24   S    
N4    H9    S    
C8    C10   S    
C2    O12   A    
O5    C7    A    
C15   C17   S    
C12   C15   S    
C16   C18   S    
O11   V3    S    
C3    C27   S    
C19   C21   S    
O17   V3    S    
C20   C22   S    
N6    H13   S    
C19   F3    S    
C12   H2    S    
O8    C4    A    
N5    H12   S    
C18   F2    S    
N2    H5    S    
O15   V3    S    
O4    V2    S    
C11   H1    S    
O10   V2    S    
O1    V3    S    
C9    C10   T    
N6    H14   S    
C4    C28   S    
O18   V4    S    
N1    H4    S    
O16   C6    A    
C12   C18   S    
O1    C3    A    
C12   C14   S    
C17   F1    S    
V2    O20   S    
O16   V4    S    
C1    C24   S    
C21   C26   S    
O5    V1    S    
O17   C7    A    
O6    V2    S    
O10   C6    A    
O18   C8    A    
C5    C15   S    
O2    V4    S    
C13   C18   S    
O15   C5    A    
N5    H11   S    
V3    O19   S    
V4    O20   S    
C19   C24   S    
C1    O11   A    
O13   V1    S    
O14   V2    S    
C13   C15   S    
O2    C4    A    
C20   F4    S    
N3    H7    S    
C13   N1    S    
C14   C17   S    
C22   N4    S    
N2    H6    S    
C2    C23   S    
