data_mof_unit_31786.cif
_audit_creation_date              2012-12-11T15:49:42-0500
_audit_creation_method            fapswitch 2.2
_symmetry_space_group_name_H-M    P1
_symmetry_Int_Tables_number       1
_space_group_crystal_system       triclinic
_cell_length_a                    8.431591
_cell_length_b                    19.073614
_cell_length_c                    26.902712
_cell_angle_alpha                 95.097925
_cell_angle_beta                  92.246535
_cell_angle_gamma                 85.553683
_cell_volume                      4294.15984439

loop_
_atom_site_label
_atom_site_type_symbol
_atom_type_description
_atom_site_fract_x
_atom_site_fract_y
_atom_site_fract_z
_atom_type_partial_charge
Ba1   Ba    Ba6+2 0.854000 0.466860 0.523710 1.718376
Ba2   Ba    Ba6+2 0.335820 0.533080 0.476290 1.710317
C1    C     C_3   0.753216 0.212373 0.680898 -0.313499
C2    C     C_3   0.659320 0.278053 0.664487 0.332629
C3    C     C_3   0.469742 0.673381 0.629465 0.208820
C4    C     C_3   0.438638 0.725480 0.675704 -0.212015
C5    C     C_3   0.094425 0.685901 0.338837 0.316933
C6    C     C_3   0.131634 0.706108 0.287072 -0.244021
C7    C     C_3   0.591596 0.708400 0.336682 0.353525
C8    C     C_3   0.618898 0.756949 0.294680 -0.115487
C9    C     C_R   0.962272 0.412694 0.172460 0.587552
C10   C     C_R   0.802748 0.519876 0.165317 0.633815
C11   C     C_2   0.711943 0.498532 0.269181 -0.127487
C12   C     C_3   0.218979 0.241520 0.649710 0.301853
C13   C     C_3   0.687731 0.506609 0.324620 -0.055730
C14   C     C_1   0.975020 0.478403 0.338297 -0.029793
C15   C     C_2   0.998001 0.468204 0.288303 -0.036214
C16   C     C_2   0.857648 0.478664 0.250551 0.216847
C17   C     C_R   0.940902 0.464590 0.092888 -0.082886
C18   C     C_R   0.015841 0.415108 0.123547 -0.020498
C19   C     C_R   0.139498 0.368509 0.104400 -0.045010
C20   C     C_R   0.816318 0.510856 0.112447 -0.032097
C21   C     C_2   0.842589 0.514150 0.354056 -0.276980
C22   C     C_2   0.323016 0.465226 0.634822 -0.188266
C23   C     C_3   0.189969 0.216187 0.701088 -0.105102
C24   C     C_R   0.177233 0.429970 0.976505 0.022582
C25   C     C_R   0.940799 0.509954 0.958520 0.027188
C26   C     C_R   0.081198 0.468914 0.942408 0.043934
C27   C     C_R   0.328078 0.400136 0.961068 -0.099653
C28   C     C_R   0.379638 0.405826 0.913071 -0.053150
C29   C     C_R   0.279775 0.438223 0.877539 -0.034772
C30   C     C_R   0.128993 0.468084 0.891873 -0.081558
C31   C     C_R   0.027095 0.498124 0.855834 -0.021334
C32   C     C_R   0.069677 0.491110 0.805043 0.648323
C33   C     C_R   0.330071 0.443576 0.828464 0.610546
C34   C     C_3   0.269678 0.316915 0.386725 0.331912
C35   C     C_2   0.377171 0.416083 0.718475 -0.109647
C36   C     C_3   0.418728 0.412261 0.664135 -0.126923
C37   C     C_1   0.214166 0.511219 0.655870 -0.042569
C38   C     C_2   0.206650 0.523341 0.705813 -0.068294
C39   C     C_2   0.271079 0.466645 0.738951 0.249983
C40   C     C_R   0.122471 0.423727 0.025204 0.025134
C41   C     C_R   0.986549 0.466004 0.042369 0.045575
C42   C     C_R   0.893495 0.508005 0.009354 0.041853
C43   C     C_R   0.195155 0.374107 0.056814 -0.081794
C44   C     C_R   0.712077 0.545715 0.078327 -0.044582
C45   C     C_3   0.333687 0.301297 0.334083 -0.393947
C46   C     C_R   0.857814 0.551947 0.922614 -0.058843
C47   C     C_R   0.889938 0.538750 0.871666 -0.072299
C48   C     C_R   0.748253 0.540721 0.027520 -0.082208
C49   C     C_R   0.393347 0.298416 0.520463 -0.255852
C50   C     C_R   0.533285 0.275882 0.495762 0.016584
C51   C     C_R   0.582799 0.203390 0.491165 -0.129145
C52   C     C_R   0.487756 0.153339 0.508116 0.007373
C53   C     C_R   0.342578 0.176952 0.530338 -0.106450
C54   C     C_R   0.296906 0.249516 0.537318 0.019274
C55   C     C_R   0.593331 0.040452 0.545398 0.062193
C56   C     C_3   0.944995 0.688896 0.613885 0.351148
C57   C     C_R   0.644515 0.968267 0.539692 -0.085815
C58   C     C_R   0.647723 0.930926 0.492541 0.016921
C59   C     C_R   0.594518 0.965551 0.450697 -0.071624
C60   C     C_R   0.540157 0.037394 0.455283 0.044274
C61   C     C_R   0.540945 0.076292 0.502897 0.060937
C62   C     C_R   0.853752 0.830916 0.465699 0.043047
C63   C     C_R   0.898411 0.757352 0.460932 0.058085
C64   C     C_R   0.657066 0.734002 0.501038 0.034194
C65   C     C_R   0.608259 0.805967 0.504491 -0.150197
C66   C     C_R   0.704647 0.855023 0.486953 -0.003104
C67   C     C_3   0.975684 0.752641 0.586074 -0.365684
C68   C     C_R   0.800910 0.710808 0.479634 -0.287778
C69   C     C_3   0.764788 0.306647 0.374522 0.329172
C70   C     C_3   0.749031 0.319205 0.319078 -0.379307
H1    H     H_    0.622547 0.268465 0.624383 -0.030313
H2    H     H_    0.379851 0.349180 0.321424 0.114519
H3    H     H_    0.433357 0.259665 0.333200 0.086769
H4    H     H_    0.238518 0.282463 0.307626 0.112762
H5    H     H_    0.856190 0.658243 0.592012 0.072185
H6    H     H_    0.056623 0.787361 0.608287 0.161428
H7    H     H_    0.862652 0.784109 0.578376 0.065652
H8    H     H_    0.034994 0.734490 0.550748 0.102574
H9    H     H_    0.855731 0.339946 0.391282 0.127822
H10   H     H_    0.847598 0.194569 0.654125 0.136319
H11   H     H_    0.681461 0.278162 0.297640 0.119155
H12   H     H_    0.868748 0.318489 0.303084 0.116173
H13   H     H_    0.684261 0.370770 0.314200 0.106023
H14   H     H_    0.553074 0.286246 0.687746 -0.011016
H15   H     H_    0.672871 0.169319 0.682176 0.066812
H16   H     H_    0.355320 0.666837 0.609338 0.110166
H17   H     H_    0.346030 0.706541 0.698241 0.099944
H18   H     H_    0.548090 0.728626 0.699831 0.072150
H19   H     H_    0.806058 0.223078 0.718968 0.133634
H20   H     H_    0.173958 0.639789 0.347851 0.086770
H21   H     H_    0.969584 0.672087 0.337568 -0.044428
H22   H     H_    0.038120 0.745529 0.274598 0.072858
H23   H     H_    0.246736 0.730806 0.288600 0.143833
H24   H     H_    0.707867 0.686361 0.350579 0.005001
H25   H     H_    0.502585 0.784281 0.284256 0.057226
H26   H     H_    0.296450 0.286057 0.654110 -0.053245
H27   H     H_    0.197721 0.329103 0.126943 0.111768
H28   H     H_    0.426159 0.373171 0.739360 0.127776
H29   H     H_    0.497615 0.383258 0.903567 0.125586
H30   H     H_    0.412117 0.374701 0.986257 0.072958
H31   H     H_    0.291322 0.336604 0.044756 0.072134
H32   H     H_    0.607572 0.503218 0.244435 0.149061
H33   H     H_    0.279748 0.196435 0.627231 -0.083470
H34   H     H_    0.818589 0.567816 0.844788 0.121996
H35   H     H_    0.655856 0.559824 0.002286 0.058979
H36   H     H_    0.350452 0.464895 0.595762 0.068702
H37   H     H_    0.498334 0.824167 0.522673 0.085616
H38   H     H_    0.684770 0.941198 0.572193 0.077747
H39   H     H_    0.692853 0.185290 0.473559 0.072799
H40   H     H_    0.594799 0.936009 0.414353 0.089638
H41   H     H_    0.266377 0.139073 0.542528 0.066343
H42   H     H_    0.845692 0.656973 0.482434 0.110045
H43   H     H_    0.354650 0.353993 0.524053 0.056431
H44   H     H_    0.103911 0.174707 0.695633 0.059325
H45   H     H_    0.347203 0.349260 0.411465 0.036576
N1    N     N_R   0.876065 0.470518 0.195724 -0.424512
N2    N     N_R   0.223247 0.466700 0.791380 -0.417668
O1    O     O_2   0.913240 0.537010 0.617740 -0.468517
O2    O     O_3   0.619908 0.328498 0.397050 -0.662510
O3    O     O_3   0.073190 0.262747 0.626341 -0.579738
O4    O     O_2   0.276450 0.462960 0.382230 -0.480832
O5    O     O_3   0.044470 0.462980 0.442430 -0.419972
O6    O     O_3   0.519740 0.589470 0.411120 -0.447029
O7    O     O_3   0.115970 0.349497 0.384091 -0.644010
O8    O     O_3   0.632420 0.583650 0.524140 -0.421146
O9    O     O_3   0.111040 0.625070 0.435230 -0.488097
O10   O     O_2   0.228863 0.748753 0.465635 -0.499953
O11   O     O_3   0.116575 0.743047 0.374399 -0.582482
O12   O     O_3   0.145240 0.536960 0.557560 -0.456325
O13   O     O_3   0.557280 0.416300 0.475860 -0.446418
O14   O     O_2   0.376710 0.670070 0.522470 -0.454776
O15   O     O_3   0.580123 0.700588 0.600140 -0.682237
O16   O     O_2   0.368040 0.545426 0.329670 -0.482565
O17   O     O_3   0.497038 0.654749 0.316074 -0.591444
O18   O     O_2   0.989355 0.358857 0.193597 -0.605993
O19   O     O_2   0.470153 0.429058 0.819383 -0.581343
O20   O     O_2   0.730655 0.572832 0.184111 -0.587112
O21   O     O_2   0.969533 0.507165 0.773157 -0.569504
O22   O     O_3   0.669960 0.410470 0.588880 -0.464093
O23   O     O_2   0.718965 0.474796 0.678486 -0.433187
O24   O     O_3   0.090623 0.649754 0.618905 -0.668250
O25   O     O_3   0.752220 0.336500 0.672277 -0.552618
O26   O     O_2   0.812980 0.329910 0.477500 -0.442630
O27   O     O_3   0.078660 0.374870 0.564770 -0.453243
O28   O     O_2   0.965982 0.251724 0.534408 -0.445332
P1    P     P_3+3 0.082480 0.557670 0.610090 0.987058
P2    P     P_3+3 0.635220 0.340300 0.462910 0.998694
P3    P     P_3+3 0.106120 0.282940 0.565391 1.025990
P4    P     P_3+3 0.107220 0.442270 0.389900 1.005308
P5    P     P_3+3 0.088641 0.717959 0.434515 0.971752
P6    P     P_3+3 0.638540 0.410298 0.652586 1.016255
P7    P     P_3+3 0.559566 0.672445 0.536483 0.955997
P8    P     P_3+3 0.526520 0.575815 0.345548 0.983582
C71   C     C_3   0.886899 0.715516 0.665909 -0.328235
H46   H     H_    0.980060 0.744576 0.687460 0.149563
H47   H     H_    0.779604 0.752491 0.663125 0.105287
H48   H     H_    0.860159 0.670836 0.687015 0.090188
C72   C     C_3   0.810873 0.228105 0.379138 -0.314688
H49   H     H_    0.708796 0.196380 0.367469 0.068999
H50   H     H_    0.912767 0.209686 0.355136 0.117433
H51   H     H_    0.848299 0.218741 0.417879 0.153130
C73   C     C_3   0.538265 0.602429 0.645558 -0.269774
H52   H     H_    0.536594 0.561938 0.613386 0.097885
H53   H     H_    0.662429 0.606005 0.659484 0.148852
H54   H     H_    0.470155 0.585837 0.676181 0.028582
C74   C     C_2   0.386378 0.798299 0.661531 0.511813
H55   H     H_    0.459820 0.825058 0.638091 0.012901
O29   O     O_2   0.262694 0.828450 0.676964 -0.588795
C75   C     C_2   0.342367 0.181759 0.722202 0.461383
H56   H     H_    0.396982 0.134537 0.702354 -0.015815
O30   O     O_2   0.405628 0.205489 0.761088 -0.558814
C76   C     C_2   0.137796 0.642423 0.249965 0.491016
H57   H     H_    0.035050 0.611582 0.243524 -0.013766
O31   O     O_2   0.258244 0.624727 0.226888 -0.508206
C77   C     C_3   0.504200 0.751610 0.379510 -0.325384
H58   H     H_    0.472920 0.717328 0.408062 0.144630
H59   H     H_    0.579870 0.791737 0.397891 0.097196
H60   H     H_    0.393800 0.779548 0.365342 0.128287
C78   C     C_2   0.730748 0.813743 0.309729 0.415553
H61   H     H_    0.737614 0.856534 0.286058 0.018547
O32   O     O_2   0.814847 0.812472 0.347545 -0.606441
C79   C     C_3   0.679430 0.713873 0.247576 -0.315655
H62   H     H_    0.785498 0.678808 0.256846 0.106991
H63   H     H_    0.584682 0.681252 0.230587 0.232767
H64   H     H_    0.711013 0.749040 0.219267 0.095591
C80   C     C_3   0.157633 0.440162 0.268592 -0.322088
H65   H     H_    0.256263 0.449117 0.294804 0.146070
H66   H     H_    0.161276 0.382220 0.261372 0.143551
H67   H     H_    0.183723 0.465476 0.234564 0.136458
C81   C     C_2   0.554588 0.580857 0.092050 0.574512
H68   H     H_    0.502268 0.623278 0.070937 -0.002875
O33   O     O_2   0.477374 0.560180 0.124578 -0.522530
C82   C     C_2   0.758984 0.618191 0.935503 0.487608
H69   H     H_    0.658528 0.633569 0.911321 0.013117
O34   O     O_2   0.795318 0.658499 0.971249 -0.552580
C83   C     C_2   0.185049 0.596940 0.728818 0.507117
H70   H     H_    0.132213 0.638377 0.707699 -0.004987
O35   O     O_2   0.230399 0.612475 0.771760 -0.564993
C84   C     C_2   0.842620 0.563966 0.398343 0.644888
H71   H     H_    0.862225 0.617985 0.394952 -0.218050
O36   O     O_2   0.800904 0.546198 0.437815 -0.528624
C85   C     C_3   0.599732 0.076748 0.597403 -0.416455
H72   H     H_    0.722589 0.069471 0.613505 0.124207
H73   H     H_    0.567054 0.134164 0.598651 0.103643
H74   H     H_    0.517207 0.053046 0.621175 0.118595
C86   C     C_3   0.117477 0.276036 0.737267 -0.311196
H75   H     H_    0.205706 0.314288 0.749706 0.122064
H76   H     H_    0.014895 0.305053 0.719427 0.178152
H77   H     H_    0.075563 0.253819 0.770786 0.127094
C87   C     C_3   0.477972 0.070736 0.409127 -0.402148
H78   H     H_    0.480851 0.032272 0.375595 0.112650
H79   H     H_    0.352457 0.091384 0.414227 0.143886
H80   H     H_    0.552335 0.113860 0.401902 0.107366
C88   C     C_3   0.969505 0.882182 0.451888 -0.334710
H81   H     H_    0.922548 0.938058 0.457429 0.101622
H82   H     H_    0.079603 0.876632 0.475627 0.107430
H83   H     H_    0.000974 0.871376 0.412224 0.182868
C89   C     C_2   0.264197 0.248356 0.409536 0.455810
H84   H     H_    0.370097 0.212845 0.409964 -0.077782
O37   O     O_2   0.144341 0.232474 0.428427 -0.591874

loop_
_geom_bond_atom_site_label_1
_geom_bond_atom_site_label_2
_ccdc_geom_bond_type
C25   C46   A    
C53   C54   A    
C12   O3    S    
C8    C79   S    
C84   H71   S    
C33   N2    Am   
C17   C18   A    
C88   H83   S    
C75   H56   S    
Ba1   O13   S    
O22   P6    S    
C22   C37   D    
C89   O37   D    
C70   H13   S    
Ba1   O27   S    
C5    C6    S    
O15   P7    S    
C78   H61   S    
C68   H42   S    
C69   C72   S    
C75   O30   D    
C35   C36   S    
C11   C16   D    
C21   C84   S    
C80   H67   S    
C67   H8    S    
C3    C4    S    
O3    P3    S    
C80   H66   S    
C71   H46   S    
C88   H82   S    
C45   H4    S    
C49   C54   A    
C33   O19   D    
C28   C29   A    
C19   H27   S    
C6    C76   S    
C55   C57   A    
C2    H14   S    
C52   C61   S    
C15   C80   S    
C31   C47   A    
C63   C68   A    
C10   C20   A    
Ba2   P4    S    
C57   H38   S    
O16   P8    D    
C79   H62   S    
C28   H29   S    
C34   C45   S    
C1    H19   S    
Ba1   Ba2   S    
C32   O21   D    
O25   P6    S    
C76   H57   S    
C5    O11   S    
C43   H31   S    
C56   H5    S    
O27   P3    S    
C3    H16   S    
Ba1   O26   S    
C56   O24   S    
C65   H37   S    
C12   H33   S    
C79   H63   S    
C50   P2    S    
C77   H59   S    
C62   C63   A    
C37   P1    S    
Ba2   O13   S    
C85   H74   S    
Ba1   P2    S    
C83   H70   S    
C22   H36   S    
C23   C86   S    
O9    P5    S    
C7    C8    S    
C16   N1    S    
C13   P8    S    
Ba2   O8    S    
C51   H39   S    
C74   O29   D    
C64   C65   A    
C57   C58   A    
O23   P6    D    
O13   P2    S    
C84   O36   D    
C34   C89   S    
C67   H6    S    
C3    O15   S    
C6    H23   S    
C25   C42   A    
O8    P7    S    
C89   H84   S    
C17   C41   A    
C12   H26   S    
C19   C43   A    
C73   H54   S    
O24   P1    S    
C5    H21   S    
O4    P4    D    
C9    C18   A    
Ba2   O14   S    
Ba2   O12   S    
C1    H15   S    
C65   C66   A    
C3    C73   S    
C26   C30   A    
O28   P3    D    
C31   C32   A    
C88   H81   S    
O10   P5    D    
C23   H44   S    
C37   C38   D    
C64   P7    S    
O17   P8    S    
C86   H75   S    
C53   H41   S    
C4    H18   S    
C49   H43   S    
C49   C50   A    
C58   C59   A    
C40   C43   A    
C81   O33   D    
C8    H25   S    
C71   H47   S    
C41   C42   A    
C72   H51   S    
C60   C61   A    
C73   H52   S    
O7    P4    S    
C22   C36   S    
C29   C30   A    
C87   H80   S    
C7    O17   S    
C77   H60   S    
C17   C20   A    
C1    H10   S    
C15   C16   S    
C10   O20   D    
C6    H22   S    
O12   P1    S    
C39   N2    S    
C11   H32   S    
C34   H45   S    
C7    H24   S    
C2    H1    S    
C70   H12   S    
C56   C71   S    
C10   N1    Am   
C38   C39   S    
C20   C44   A    
O5    P4    S    
C87   H79   S    
O1    P1    D    
C14   C21   D    
C11   C13   S    
C46   C82   S    
O11   P5    S    
C48   H35   S    
C29   C33   A    
C67   H7    S    
C40   C41   A    
C54   P3    S    
C1    C2    S    
C62   C66   A    
C72   H50   S    
C7    C77   S    
C50   C51   A    
C24   C40   A    
C42   C48   A    
C32   N2    Am   
C4    C74   S    
C52   C53   A    
C74   H55   S    
C18   C19   A    
C62   C88   S    
C71   H48   S    
C34   O7    S    
Ba1   O8    S    
C45   H2    S    
C44   C81   S    
Ba1   O12   S    
C2    O25   S    
C56   C67   S    
C51   C52   A    
C47   H34   S    
Ba2   O5    S    
C4    H17   S    
C44   C48   A    
C24   C26   A    
C79   H64   S    
C81   H68   S    
C63   P5    S    
C73   H53   S    
C9    O18   D    
Ba1   O5    S    
C45   H3    S    
C69   C70   S    
C30   C31   A    
C85   H73   S    
C9    N1    Am   
C23   C75   S    
C64   C68   A    
C38   C83   S    
C86   H77   S    
C46   C47   A    
C5    H20   S    
C55   C85   S    
C13   C21   S    
O2    P2    S    
C27   H30   S    
C14   P4    S    
C12   C23   S    
C35   C39   D    
C59   C60   A    
C72   H49   S    
C76   O31   D    
C70   H11   S    
Ba1   O22   S    
C27   C28   A    
C82   H69   S    
C55   C61   A    
Ba2   O6    S    
C69   O2    S    
C78   O32   D    
O26   P2    D    
C85   H72   S    
C58   C66   S    
C24   C27   A    
C86   H76   S    
C77   H58   S    
C25   C26   A    
C8    C78   S    
C60   C87   S    
C80   H65   S    
Ba1   P1    S    
C83   O35   D    
C36   P6    S    
C69   H9    S    
C59   H40   S    
O14   P7    D    
Ba1   O1    S    
C35   H28   S    
Ba2   O4    S    
O6    P8    S    
C14   C15   D    
C87   H78   S    
C82   O34   D    
Ba2   O9    S    
