data_mof_unit_18555.cif
_audit_creation_date              2012-12-10T18:32:48-0500
_audit_creation_method            fapswitch 2.2
_symmetry_space_group_name_H-M    P1
_symmetry_Int_Tables_number       1
_space_group_crystal_system       triclinic
_cell_length_a                    14.998036
_cell_length_b                    15.499654
_cell_length_c                    15.714256
_cell_angle_alpha                 90.792041
_cell_angle_beta                  104.310287
_cell_angle_gamma                 81.388596
_cell_volume                      3498.72779704

loop_
_atom_site_label
_atom_site_type_symbol
_atom_type_description
_atom_site_fract_x
_atom_site_fract_y
_atom_site_fract_z
_atom_type_partial_charge
C1    C     C_R   0.441507 0.661949 0.486063 0.857734
C2    C     C_3   0.400948 0.534871 0.024804 -0.389500
C3    C     C_3   0.498611 0.497735 0.082266 0.318217
C4    C     C_3   0.527221 0.403445 0.054296 -0.423607
C5    C     C_3   0.526533 0.403653 0.955224 -0.124482
C6    C     C_1   0.496999 0.497725 0.173455 -0.097531
C7    C     C_1   0.502484 0.501946 0.826147 -0.101072
C8    C     C_1   0.502427 0.502032 0.750763 -0.181783
C9    C     C_R   0.406863 0.753851 0.464324 -0.050933
C10   C     C_R   0.594784 0.245171 0.512952 -0.059577
C11   C     C_R   0.299178 0.867647 0.373238 -0.207711
C12   C     C_R   0.500801 0.500723 0.661461 0.896756
C13   C     C_R   0.321876 0.781126 0.403783 -0.188506
C14   C     C_R   0.468603 0.812778 0.493355 -0.257276
C15   C     C_R   0.452556 0.896155 0.455397 0.095646
C16   C     C_R   0.364374 0.925319 0.398168 0.168766
C17   C     C_R   0.521818 0.951178 0.473859 0.065942
C18   C     C_R   0.496463 0.040197 0.447935 0.066900
C19   C     C_R   0.407688 0.068087 0.390946 -0.218754
C20   C     C_R   0.343431 0.010882 0.365423 -0.216423
C21   C     C_R   0.616053 0.919518 0.515206 -0.223303
C22   C     C_R   0.681372 0.975849 0.538562 -0.225093
C23   C     C_R   0.558568 0.337986 0.511244 0.864450
C24   C     C_R   0.653961 0.065387 0.524885 0.168105
C25   C     C_R   0.560860 0.098215 0.480414 0.096679
C26   C     C_R   0.717693 0.122849 0.557488 -0.188773
C27   C     C_R   0.688170 0.212661 0.551522 -0.186004
C28   C     C_R   0.532908 0.188307 0.475959 -0.257598
C29   C     C_R   0.848817 0.616527 0.648007 -0.215606
C30   C     C_R   0.756249 0.607085 0.615850 -0.013110
C31   C     C_R   0.793729 0.508713 0.508535 -0.013309
C32   C     C_R   0.889096 0.515425 0.537535 -0.026161
C33   C     C_R   0.916999 0.568962 0.611189 0.007249
C34   C     C_R   0.499035 0.499596 0.338434 0.902543
C35   C     C_R   0.957178 0.470837 0.496594 0.009148
C36   C     C_R   0.050116 0.486069 0.526045 -0.000382
C37   C     C_R   0.076959 0.526051 0.607039 -0.275255
C38   C     C_R   0.012420 0.570400 0.648191 0.464119
C39   C     C_R   0.936773 0.410143 0.429273 -0.305648
C40   C     C_R   0.005938 0.366086 0.391926 0.475422
C41   C     C_R   0.096556 0.388912 0.415576 0.013323
C42   C     C_R   0.116281 0.454912 0.477763 -0.061422
C43   C     C_R   0.167781 0.349197 0.377880 -0.213181
C44   C     C_R   0.254155 0.377273 0.399327 -0.027359
C45   C     C_3   0.403083 0.536986 0.927113 -0.419148
C46   C     C_R   0.200350 0.490248 0.486502 0.086250
C47   C     C_3   0.570468 0.558147 0.970247 -0.394125
C48   C     C_3   0.569932 0.555390 0.068225 -0.394894
C49   C     C_1   0.497106 0.498384 0.248933 -0.167738
C50   C     C_3   0.501987 0.499680 0.917607 0.296406
H1    H     H_    0.378649 0.602091 0.045206 0.179793
H2    H     H_    0.350785 0.498246 0.888474 0.199062
H3    H     H_    0.348820 0.493835 0.033575 0.185429
H4    H     H_    0.596292 0.375459 0.096516 0.184707
H5    H     H_    0.276745 0.034033 0.320685 0.158175
H6    H     H_    0.461279 0.215462 0.448185 0.155257
H7    H     H_    0.737285 0.256233 0.579550 0.165696
H8    H     H_    0.752745 0.949469 0.570672 0.160032
H9    H     H_    0.232525 0.888470 0.327527 0.143829
H10   H     H_    0.274786 0.735221 0.378030 0.168377
H11   H     H_    0.530544 0.791304 0.544498 0.148996
H12   H     H_    0.382855 0.605366 0.900783 0.183251
H13   H     H_    0.387339 0.133005 0.362066 0.145276
H14   H     H_    0.641838 0.850911 0.527917 0.155108
H15   H     H_    0.789352 0.098266 0.590246 0.147886
H16   H     H_    0.309648 0.344844 0.372260 0.139226
H17   H     H_    0.865792 0.659242 0.702600 0.216499
H18   H     H_    0.703993 0.640230 0.646564 0.134497
H19   H     H_    0.766503 0.467746 0.455639 0.133227
H20   H     H_    0.641970 0.537713 0.962094 0.178618
H21   H     H_    0.149328 0.519410 0.640623 0.194263
H22   H     H_    0.868169 0.392875 0.407058 0.185334
H23   H     H_    0.158472 0.296301 0.332657 0.217119
H24   H     H_    0.549167 0.626723 0.944661 0.174998
H25   H     H_    0.551743 0.622944 0.090109 0.177809
H26   H     H_    0.640805 0.529358 0.108399 0.176573
H27   H     H_    0.467468 0.369480 0.921766 0.128967
H28   H     H_    0.477243 0.361094 0.065600 0.165697
N1    N     N_R   0.731690 0.552720 0.548990 -0.102466
N2    N     N_R   0.268300 0.447240 0.450950 -0.111781
O1    O     O_R   0.383120 0.605620 0.475300 -0.609017
O2    O     O_R   0.531890 0.639510 0.506740 -0.619089
O3    O     O_R   0.425580 0.483050 0.607130 -0.625681
O4    O     O_R   0.574360 0.516930 0.638570 -0.606934
O5    O     O_R   0.468110 0.360490 0.493260 -0.622290
O6    O     O_R   0.616880 0.394380 0.524700 -0.613632
O7    O     O_R   0.425640 0.483070 0.361430 -0.615389
O8    O     O_R   0.574420 0.516950 0.392870 -0.610915
Zn1   Zn    Zn3+2 0.400660 0.477370 0.479010 0.944777
Zn2   Zn    Zn3+2 0.599340 0.522630 0.520990 0.951491
S1    S     S_3+6 0.054880 0.624928 0.746644 -0.007537
O9    O     O_2   0.023381 0.721446 0.731704 -0.316176
O10   O     O_2   0.016768 0.593299 0.818485 -0.304378
O11   O     O_3   0.171918 0.605764 0.777536 -0.601043
H29   H     H_    0.189033 0.640671 0.830759 0.380093
C51   C     C_R   0.203430 0.583302 0.510115 0.128974
C52   C     C_R   0.146787 0.648457 0.451332 -0.169556
C53   C     C_R   0.141885 0.736351 0.473754 -0.147451
C54   C     C_R   0.194470 0.760249 0.554533 -0.069669
C55   C     C_R   0.250755 0.696163 0.613634 -0.103448
C56   C     C_R   0.254659 0.608133 0.592009 -0.077480
H30   H     H_    0.105375 0.630966 0.388521 0.137460
H31   H     H_    0.097861 0.786015 0.428147 0.143231
H32   H     H_    0.191028 0.828346 0.571576 0.140981
H33   H     H_    0.289816 0.714500 0.677087 0.135014
H34   H     H_    0.292567 0.559715 0.641566 0.150766
S2    S     S_3+6 0.974971 0.285897 0.312676 -0.008152
O12   O     O_2   0.874899 0.274191 0.300522 -0.302505
O13   O     O_2   0.989369 0.313794 0.226408 -0.330069
O14   O     O_3   0.043442 0.190287 0.346469 -0.574524
H35   H     H_    0.028657 0.150918 0.296416 0.381542
C57   C     C_R   0.614543 0.352673 0.935738 0.133493
C58   C     C_R   0.605889 0.293736 0.866097 -0.157776
C59   C     C_R   0.684832 0.248087 0.844756 -0.126263
C60   C     C_R   0.773485 0.260141 0.892851 -0.108323
C61   C     C_R   0.783350 0.317914 0.962335 -0.094122
C62   C     C_R   0.704633 0.364062 0.983704 -0.131421
H36   H     H_    0.537849 0.283882 0.827306 0.124770
H37   H     H_    0.677208 0.203501 0.790681 0.139079
H38   H     H_    0.834547 0.224725 0.876265 0.137826
H39   H     H_    0.852148 0.327091 0.999693 0.167306
H40   H     H_    0.714752 0.408110 0.037945 0.138193

loop_
_geom_bond_atom_site_label_1
_geom_bond_atom_site_label_2
_ccdc_geom_bond_type
C10   C27   A    
C43   H23   S    
C41   C43   A    
C41   C42   A    
C48   H26   S    
C44   H16   S    
C19   C20   A    
C43   C44   A    
C3    C6    S    
C59   C60   A    
C28   H6    S    
C7    C8    T    
C13   H10   S    
C25   C28   A    
C55   H33   S    
C29   C30   A    
C36   C37   A    
C24   C26   A    
C57   C62   A    
C1    O1    A    
C53   H31   S    
C29   C33   A    
C45   H12   S    
C61   C62   A    
C12   O4    A    
C18   C19   A    
C42   C46   A    
N2    Zn1   S    
C9    C13   A    
O14   H35   S    
N1    Zn2   S    
C29   H17   S    
C36   C42   A    
C35   C36   A    
C19   H13   S    
C21   H14   S    
C23   O6    A    
C39   H22   S    
C52   H30   S    
C16   C20   A    
O1    Zn1   S    
C54   H32   S    
C51   C56   A    
S2    O13   D    
C48   H25   S    
C18   C25   A    
O4    Zn2   S    
C20   H5    S    
C11   H9    S    
C57   C58   A    
C52   C53   A    
C47   C50   S    
C2    C45   S    
O3    Zn1   S    
C61   H39   S    
C32   C35   A    
C44   N2    A    
C1    C9    S    
C24   C25   A    
C7    C50   S    
O6    Zn2   S    
C39   C40   A    
C9    C14   A    
O5    Zn1   S    
C45   H2    S    
C1    O2    A    
C14   H11   S    
C38   S1    S    
C17   C21   A    
C12   O3    A    
C35   C39   A    
C62   H40   S    
C47   H20   S    
C4    H28   S    
C37   C38   A    
S1    O10   D    
C11   C16   A    
C47   C48   S    
C3    C48   S    
C8    C12   S    
C51   C52   A    
C17   C18   A    
C26   C27   A    
C34   O8    A    
C40   S2    S    
C30   N1    A    
C40   C41   A    
O8    Zn2   S    
C53   C54   A    
O7    Zn1   S    
C27   H7    S    
S2    O14   S    
C22   C24   A    
C5    C50   S    
S2    O12   D    
C5    H27   S    
C3    C4    S    
S1    O9    D    
C58   C59   A    
C10   C28   A    
C56   H34   S    
C15   C17   A    
C34   C49   S    
C4    H4    S    
C26   H15   S    
C31   C32   A    
C59   H37   S    
C47   H24   S    
C4    C5    S    
C2    H3    S    
C22   H8    S    
C31   N1    A    
C5    C57   S    
C10   C23   S    
C33   C38   A    
O2    Zn2   S    
C54   C55   A    
C32   C33   A    
C37   H21   S    
C2    C3    S    
S1    O11   S    
C46   N2    A    
C11   C13   A    
C60   C61   A    
C45   C50   S    
C55   C56   A    
C34   O7    A    
C6    C49   T    
O11   H29   S    
C2    H1    S    
C58   H36   S    
C31   H19   S    
C46   C51   S    
C60   H38   S    
C23   O5    A    
C14   C15   A    
C21   C22   A    
C30   H18   S    
C15   C16   A    
