data_mof_unit_57687.cif
_audit_creation_date              2012-12-11T16:44:17-0500
_audit_creation_method            fapswitch 2.2
_symmetry_space_group_name_H-M    P1
_symmetry_Int_Tables_number       1
_space_group_crystal_system       triclinic
_cell_length_a                    27.236575
_cell_length_b                    7.200324
_cell_length_c                    22.811494
_cell_angle_alpha                 90.007714
_cell_angle_beta                  101.468887
_cell_angle_gamma                 89.99109
_cell_volume                      4384.28599218

loop_
_atom_site_label
_atom_site_type_symbol
_atom_type_description
_atom_site_fract_x
_atom_site_fract_y
_atom_site_fract_z
_atom_type_partial_charge
O1    O     O_R   0.707300 0.594030 0.176840 -0.532317
O2    O     O_R   0.292700 0.405970 0.823160 -0.532317
O3    O     O_R   0.792700 0.094030 0.323160 -0.532350
O4    O     O_R   0.207300 0.905970 0.676840 -0.532350
O5    O     O_R   0.697330 0.262360 0.295660 -0.540742
O6    O     O_R   0.302670 0.737640 0.704340 -0.540742
O7    O     O_R   0.802670 0.762360 0.204340 -0.540645
O8    O     O_R   0.197330 0.237640 0.795660 -0.540646
C1    C     C_R   0.684821 0.432506 0.311809 0.674941
C2    C     C_R   0.315178 0.567493 0.688191 0.674942
C3    C     C_R   0.815245 0.932479 0.188286 0.674881
C4    C     C_R   0.184755 0.067521 0.811713 0.674880
O9    O     O_R   0.701410 0.264250 0.175600 -0.534213
O10   O     O_R   0.298590 0.735750 0.824400 -0.534213
O11   O     O_R   0.798590 0.764250 0.324400 -0.534351
O12   O     O_R   0.201410 0.235750 0.675600 -0.534352
O13   O     O_R   0.796800 0.094950 0.202240 -0.539109
O14   O     O_R   0.203200 0.905050 0.797760 -0.539108
O15   O     O_R   0.703200 0.594950 0.297760 -0.539118
O16   O     O_R   0.296800 0.405050 0.702240 -0.539118
C5    C     C_R   0.689772 0.432501 0.153458 0.685505
C6    C     C_R   0.310228 0.567499 0.846541 0.685506
C7    C     C_R   0.810228 0.932500 0.346542 0.685051
C8    C     C_R   0.189771 0.067500 0.653458 0.685051
O17   O     O_3   0.781290 0.427390 0.258880 -0.372894
O18   O     O_3   0.218710 0.572610 0.741120 -0.372894
O19   O     O_3   0.718710 0.927390 0.241120 -0.372675
O20   O     O_3   0.281290 0.072610 0.758880 -0.372675
V1    V     V_3+5 0.744190 0.152150 0.248350 1.414367
V2    V     V_3+5 0.255810 0.847850 0.751650 1.414367
V3    V     V_3+5 0.755810 0.652150 0.251650 1.414379
V4    V     V_3+5 0.244190 0.347850 0.748350 1.414379
C9    C     C_R   0.154902 0.062719 0.595012 -0.039594
C10   C     C_R   0.845098 0.937281 0.404988 -0.039594
C11   C     C_R   0.345096 0.562691 0.904987 -0.039687
C12   C     C_R   0.654903 0.437309 0.095013 -0.039688
C13   C     C_R   0.139385 0.126745 0.489101 -0.149341
C14   C     C_R   0.860615 0.873255 0.510899 -0.149341
C15   C     C_R   0.360581 0.626262 0.010928 -0.149419
C16   C     C_R   0.639419 0.373738 0.989072 -0.149419
C17   C     C_R   0.172118 0.117064 0.544142 -0.163139
C18   C     C_R   0.827882 0.882936 0.455858 -0.163138
C19   C     C_R   0.327856 0.616720 0.955878 -0.163341
C20   C     C_R   0.672143 0.383281 0.044122 -0.163340
C21   C     C_R   0.104053 0.018372 0.590527 -0.199573
C22   C     C_R   0.895947 0.981628 0.409472 -0.199573
C23   C     C_R   0.395957 0.518513 0.909459 -0.199600
C24   C     C_R   0.604043 0.481487 0.090540 -0.199600
C25   C     C_R   0.069175 0.030166 0.534834 0.087275
C26   C     C_R   0.930825 0.969834 0.465166 0.087275
C27   C     C_R   0.430824 0.530144 0.965166 0.087274
C28   C     C_R   0.569176 0.469856 0.034834 0.087274
C29   C     C_R   0.087964 0.085441 0.483517 0.082084
C30   C     C_R   0.912036 0.914559 0.516483 0.082084
C31   C     C_R   0.412013 0.585104 0.016504 0.082170
C32   C     C_R   0.587987 0.414896 0.983496 0.082170
C33   C     C_R   0.016484 0.991478 0.528586 0.046356
C34   C     C_R   0.983516 0.008522 0.471414 0.046356
C35   C     C_R   0.483523 0.491575 0.971407 0.046350
C36   C     C_R   0.516477 0.508425 0.028593 0.046350
C37   C     C_R   0.004252 0.063187 0.422160 -0.216778
C38   C     C_R   0.995748 0.936813 0.577839 -0.216778
C39   C     C_R   0.495720 0.562787 0.077868 -0.216863
C40   C     C_R   0.504280 0.437213 0.922131 -0.216863
C41   C     C_R   0.055122 0.100543 0.427640 -0.061131
C42   C     C_R   0.944878 0.899457 0.572360 -0.061131
C43   C     C_R   0.444842 0.600027 0.072395 -0.061034
C44   C     C_R   0.555158 0.399973 0.927605 -0.061034
H1    H     H_    0.906854 0.020064 0.368305 0.095994
H2    H     H_    0.093145 0.979936 0.631695 0.095994
H3    H     H_    0.593120 0.519699 0.131722 0.096039
H4    H     H_    0.406880 0.480301 0.868278 0.096039
H5    H     H_    0.788853 0.846491 0.452858 0.109969
H6    H     H_    0.211147 0.153508 0.547142 0.109969
H7    H     H_    0.711183 0.346991 0.047111 0.110180
H8    H     H_    0.288817 0.653010 0.952889 0.110180
H9    H     H_    0.154734 0.169637 0.450969 0.134472
H10   H     H_    0.845266 0.830363 0.549031 0.134472
H11   H     H_    0.345214 0.668909 0.049078 0.134407
H12   H     H_    0.654786 0.331091 0.950922 0.134407
H13   H     H_    0.981658 0.079017 0.378040 0.128198
H14   H     H_    0.018342 0.920983 0.621960 0.128198
H15   H     H_    0.518303 0.578458 0.122002 0.128165
H16   H     H_    0.481697 0.421542 0.877998 0.128165
C45   C     C_R   0.872240 0.117612 0.136025 -0.157198
C46   C     C_R   0.127760 0.882388 0.863975 -0.157198
C47   C     C_R   0.632452 0.617350 0.370335 -0.155318
C48   C     C_R   0.367548 0.382650 0.629665 -0.155317
H17   H     H_    0.859036 0.245100 0.152779 0.125665
H18   H     H_    0.140964 0.754900 0.847221 0.125665
H19   H     H_    0.649581 0.744513 0.358910 0.124569
H20   H     H_    0.350419 0.255487 0.641090 0.124569
C49   C     C_R   0.907872 0.130287 0.099705 -0.138205
C50   C     C_R   0.092128 0.869713 0.900295 -0.138205
C51   C     C_R   0.596730 0.629921 0.406526 -0.139846
C52   C     C_R   0.403270 0.370078 0.593474 -0.139847
H21   H     H_    0.921298 0.266468 0.090302 0.102920
H22   H     H_    0.078702 0.733532 0.909698 0.102920
H23   H     H_    0.587999 0.765579 0.422224 0.101787
H24   H     H_    0.412001 0.234421 0.577776 0.101787
C53   C     C_R   0.926431 0.969747 0.076549 0.096534
C54   C     C_R   0.073569 0.030253 0.923451 0.096534
C55   C     C_R   0.573428 0.469741 0.423290 0.096953
C56   C     C_R   0.426572 0.530259 0.576710 0.096953
C57   C     C_R   0.908645 0.795659 0.091301 -0.136641
C58   C     C_R   0.091355 0.204341 0.908699 -0.136641
C59   C     C_R   0.586920 0.296195 0.402747 -0.135553
C60   C     C_R   0.413080 0.703805 0.597253 -0.135553
H25   H     H_    0.921625 0.669070 0.073739 0.101484
H26   H     H_    0.078375 0.330930 0.926260 0.101484
H27   H     H_    0.569317 0.170001 0.414120 0.102293
H28   H     H_    0.430682 0.829999 0.585880 0.102293
C61   C     C_R   0.872981 0.782798 0.127827 -0.154793
C62   C     C_R   0.127019 0.217202 0.872173 -0.154792
C63   C     C_R   0.622793 0.283426 0.366493 -0.156771
C64   C     C_R   0.377207 0.716574 0.633507 -0.156771
H29   H     H_    0.859884 0.646526 0.137682 0.120695
H30   H     H_    0.140116 0.353474 0.862318 0.120695
H31   H     H_    0.632130 0.147495 0.351582 0.122345
H32   H     H_    0.367870 0.852505 0.648418 0.122345
C65   C     C_R   0.854080 0.943792 0.150527 -0.050708
C66   C     C_R   0.145920 0.056208 0.849473 -0.050708
C67   C     C_R   0.646133 0.443979 0.349776 -0.050741
C68   C     C_R   0.353867 0.556021 0.650224 -0.050741
C69   C     C_R   0.003315 0.855337 0.041461 -0.141661
C70   C     C_R   0.996685 0.144663 0.958539 -0.141661
C71   C     C_R   0.533707 0.351458 0.507028 -0.145682
C72   C     C_R   0.466293 0.648542 0.492972 -0.145682
H33   H     H_    0.007224 0.743930 0.073928 0.116167
H34   H     H_    0.992776 0.256070 0.926072 0.116167
H35   H     H_    0.559991 0.236958 0.514097 0.113556
H36   H     H_    0.440009 0.763042 0.485903 0.113556
C73   C     C_R   0.038771 0.870537 0.004860 -0.145830
C74   C     C_R   0.961229 0.129463 0.995140 -0.145830
C75   C     C_R   0.498675 0.366893 0.544172 -0.142155
C76   C     C_R   0.501324 0.633107 0.455828 -0.142155
H37   H     H_    0.068934 0.770167 0.010205 0.112338
H38   H     H_    0.931066 0.229833 0.989795 0.112338
H39   H     H_    0.498952 0.263491 0.578688 0.115363
H40   H     H_    0.501047 0.736509 0.421312 0.115363
C77   C     C_R   0.035952 0.015343 0.962835 0.079820
C78   C     C_R   0.964048 0.984657 0.037165 0.079820
C79   C     C_R   0.464436 0.515590 0.537654 0.079611
C80   C     C_R   0.535564 0.484410 0.462346 0.079611
C81   C     C_1   0.072454 0.155989 0.374199 0.298808
N1    N     N_1   0.086242 0.200295 0.331452 -0.339020
C82   C     C_1   0.927546 0.844011 0.625801 0.298808
N2    N     N_1   0.913758 0.799705 0.668548 -0.339020
C83   C     C_1   0.427488 0.655155 0.125858 0.298805
N3    N     N_1   0.413683 0.699207 0.168624 -0.339736
C84   C     C_1   0.572512 0.344845 0.874142 0.298805
N4    N     N_1   0.586317 0.300793 0.831376 -0.339736

loop_
_geom_bond_atom_site_label_1
_geom_bond_atom_site_label_2
_ccdc_geom_bond_type
O17   V3    S    
C48   C52   A    
O1    C5    A    
C47   H19   S    
O19   V1    S    
C9    C21   A    
O3    C7    A    
C82   N2    T    
C10   C18   A    
C48   C68   A    
C11   C23   A    
C55   C80   S    
C81   N1    T    
C25   C33   A    
C33   C38   A    
C5    C12   S    
C73   H37   S    
C6    C11   S    
C35   C40   A    
C26   C30   A    
C58   C62   A    
C36   C39   A    
C40   C44   A    
C57   C61   A    
C71   C75   A    
C14   C18   A    
C2    C68   S    
C72   C76   A    
C58   H26   S    
O4    C8    A    
C51   H23   S    
C43   C83   S    
C70   H34   S    
O1    V3    S    
O13   V1    S    
O2    V4    S    
O3    V1    S    
C40   H16   S    
C22   H1    S    
C46   C50   A    
C17   H6    S    
C45   C49   A    
C1    O15   A    
C15   C31   A    
C48   H20   S    
C2    O16   A    
C16   C32   A    
C47   C51   A    
O2    C6    A    
C84   N4    T    
C16   H12   S    
C45   C65   A    
C10   C22   A    
C54   C77   S    
C11   C19   A    
C16   C20   A    
C76   H40   S    
C13   C29   A    
C34   C37   A    
O11   C7    A    
C38   H14   S    
O15   V3    S    
C35   C36   A    
O12   C8    A    
C3    C65   S    
O10   V2    S    
C72   H36   S    
C51   C55   A    
O7    C3    A    
O5    V1    S    
C53   C57   A    
C39   C43   A    
O7    V3    S    
C38   C42   A    
C26   C34   A    
C63   C67   A    
C4    C66   S    
C46   H18   S    
C49   C53   A    
C45   H17   S    
O18   V4    S    
C15   C19   A    
C14   H10   S    
C32   C44   A    
C13   H9    S    
C64   H32   S    
C39   H15   S    
O8    V4    S    
C20   H7    S    
C75   H39   S    
O5    C1    A    
C37   C41   A    
C74   C78   A    
C53   C78   S    
C31   C43   A    
C14   C30   A    
C21   C25   A    
C69   C78   A    
O8    C4    A    
C7    C10   S    
C56   C79   S    
O9    C5    A    
C59   C63   A    
C42   C82   S    
C62   H30   S    
C61   H29   S    
O6    V2    S    
C63   H31   S    
C52   C56   A    
C69   H33   S    
O14   V2    S    
C12   C20   A    
C27   C35   A    
O9    V1    S    
C24   H3    S    
C41   C81   S    
C49   H21   S    
C56   C60   A    
C29   C41   A    
O16   V4    S    
C69   C73   A    
C19   H8    S    
C57   H25   S    
C3    O13   A    
C18   H5    S    
C64   C68   A    
C21   H2    S    
C59   H27   S    
C74   H38   S    
C23   C27   A    
O11   V3    S    
C30   C42   A    
O12   V4    S    
C22   C26   A    
C70   C77   A    
C73   C77   A    
C8    C9    S    
C9    C17   A    
O10   C6    A    
O20   V2    S    
C76   C80   A    
C44   C84   S    
C37   H13   S    
C83   N3    T    
C47   C67   A    
C60   C64   A    
C33   C34   A    
C25   C29   A    
C52   H24   S    
C75   C79   A    
C1    C67   S    
C12   C24   A    
C27   C31   A    
C71   C80   A    
C13   C17   A    
C46   C66   A    
C72   C79   A    
C71   H35   S    
C23   H4    S    
O6    C2    A    
C62   C66   A    
C60   H28   S    
C24   C28   A    
C61   C65   A    
C70   C74   A    
C28   C36   A    
C54   C58   A    
C4    O14   A    
C50   H22   S    
C55   C59   A    
O4    V2    S    
C28   C32   A    
C50   C54   A    
C15   H11   S    
