data_mof_unit_27375.cif
_audit_creation_date              2012-12-10T17:52:17-0500
_audit_creation_method            fapswitch 2.2
_symmetry_space_group_name_H-M    P1
_symmetry_Int_Tables_number       1
_space_group_crystal_system       triclinic
_cell_length_a                    19.032286
_cell_length_b                    10.634293
_cell_length_c                    9.913493
_cell_angle_alpha                 89.991041
_cell_angle_beta                  89.875789
_cell_angle_gamma                 91.894396
_cell_volume                      2005.33910523

loop_
_atom_site_label
_atom_site_type_symbol
_atom_type_description
_atom_site_fract_x
_atom_site_fract_y
_atom_site_fract_z
_atom_type_partial_charge
C1    C     C_R   0.502195 0.260749 0.500047 0.870511
C2    C     C_R   0.851439 0.413879 0.496250 0.090323
C3    C     C_R   0.618587 0.138126 0.629748 -0.168705
C4    C     C_R   0.365223 0.497268 0.500123 0.870409
C5    C     C_R   0.672851 0.075740 0.692675 -0.125281
C6    C     C_R   0.672868 0.944888 0.692714 -0.134770
C7    C     C_R   0.618671 0.875952 0.629658 -0.187676
C8    C     C_R   0.562745 0.937766 0.566684 0.101080
C9    C     C_R   0.562699 0.069667 0.566771 0.101930
C10   C     C_R   0.507413 0.128750 0.499696 -0.117352
C11   C     C_R   0.455613 0.061513 0.429049 -0.182555
C12   C     C_R   0.289072 0.477699 0.499884 -0.037639
C13   C     C_R   0.455540 0.933127 0.429048 -0.169708
C14   C     C_R   0.507479 0.872089 0.499555 -0.120136
C15   C     C_R   0.406466 0.336551 0.140269 -0.279326
C16   C     C_R   0.502410 0.739483 0.499954 0.876732
C17   C     C_R   0.359366 0.257359 0.070185 0.482449
C18   C     C_R   0.360176 0.257169 0.930232 -0.277121
C19   C     C_R   0.406967 0.336334 0.860244 -0.250878
C20   C     C_R   0.454075 0.419363 0.927878 0.184675
C21   C     C_R   0.453980 0.419411 0.072406 0.108152
C22   C     C_R   0.544036 0.577012 0.071294 -0.095922
C23   C     C_R   0.927066 0.394017 0.495304 0.287201
C24   C     C_R   0.544003 0.577018 0.928178 -0.106827
C25   C     C_R   0.634689 0.497265 0.499818 0.825445
C26   C     C_R   0.253409 0.449186 0.620521 -0.190930
C27   C     C_R   0.181984 0.418580 0.618580 -0.144296
C28   C     C_R   0.145241 0.416555 0.496028 0.059541
C29   C     C_R   0.181027 0.445190 0.375416 -0.106486
C30   C     C_R   0.252366 0.476156 0.377429 -0.100362
C31   C     C_R   0.068973 0.395557 0.495160 0.301215
C32   C     C_R   0.815060 0.421067 0.619111 -0.162978
C33   C     C_R   0.744832 0.452211 0.620619 -0.216641
C34   C     C_R   0.709965 0.475988 0.499257 -0.029620
C35   C     C_R   0.746132 0.467961 0.376407 -0.184095
C36   C     C_R   0.816319 0.436876 0.374878 -0.158464
H1    H     H_    0.280728 0.448648 0.716214 0.167909
H2    H     H_    0.404515 0.329715 0.753294 0.228468
H3    H     H_    0.155598 0.397481 0.713191 0.165763
H4    H     H_    0.579933 0.640015 0.874219 0.140967
H5    H     H_    0.153936 0.445184 0.279480 0.163124
H6    H     H_    0.278886 0.496834 0.282805 0.165250
H7    H     H_    0.840919 0.404185 0.714289 0.151663
H8    H     H_    0.717747 0.456066 0.716665 0.156594
H9    H     H_    0.720166 0.484694 0.281261 0.155973
H10   H     H_    0.843159 0.432654 0.278641 0.151998
H11   H     H_    0.414328 0.108785 0.376364 0.215580
H12   H     H_    0.621645 0.239727 0.629199 0.152847
H13   H     H_    0.256470 0.141839 0.358707 0.391139
H14   H     H_    0.715389 0.129159 0.740276 0.141829
H15   H     H_    0.715409 0.896624 0.740430 0.140761
H16   H     H_    0.621830 0.774633 0.628907 0.142304
H17   H     H_    0.413995 0.881002 0.376481 0.185804
H18   H     H_    0.580008 0.639964 0.124858 0.142500
H19   H     H_    0.404601 0.330585 0.247171 0.239174
H20   H     H_    0.324449 0.195136 0.874631 0.200320
N1    N     N_R   0.033028 0.398116 0.377392 -0.164112
N2    N     N_R   0.963320 0.397359 0.377467 -0.171091
N3    N     N_R   0.962930 0.386542 0.612862 -0.172590
N4    N     N_R   0.032666 0.387267 0.612788 -0.167731
N5    N     N_R   0.499340 0.498800 0.142780 -0.106172
N6    N     N_R   0.499320 0.498720 0.857170 -0.111152
O1    O     O_R   0.500000 0.316780 0.614690 -0.636668
O2    O     O_2   0.326071 0.024888 0.152312 -0.307235
O3    O     O_3   0.291755 0.201585 0.318907 -0.615539
O4    O     O_R   0.499990 0.316750 0.385360 -0.625171
O5    O     O_R   0.398140 0.500000 0.614700 -0.632279
O6    O     O_R   0.398130 0.499970 0.385370 -0.628798
O7    O     O_R   0.500010 0.683250 0.614640 -0.607700
O8    O     O_R   0.500000 0.683220 0.385310 -0.607435
O9    O     O_R   0.601870 0.500030 0.614630 -0.635206
O10   O     O_R   0.601860 0.500000 0.385300 -0.615827
O11   O     O_2   0.229015 0.158715 0.089733 -0.288878
S1    S     S_3+6 0.299616 0.156401 0.157196 -0.012651
Zn1   Zn    Zn3+2 0.500000 0.500020 0.653130 0.940576
Zn2   Zn    Zn3+2 0.500000 0.499980 0.346870 0.953798

loop_
_geom_bond_atom_site_label_1
_geom_bond_atom_site_label_2
_ccdc_geom_bond_type
C23   N2    A    
O11   S1    D    
C11   H11   S    
C35   C36   A    
O10   Zn2   S    
C7    C8    A    
C22   H18   S    
C23   N3    A    
C26   C27   A    
H13   O3    S    
C28   C29   A    
C7    H16   S    
C18   C19   A    
C5    C6    A    
C3    H12   S    
C2    C32   A    
C34   C35   A    
C19   C20   A    
C27   H3    S    
C8    C9    A    
C24   N6    A    
C36   H10   S    
C25   O9    A    
C6    H15   S    
C4    C12   S    
C9    C10   A    
C21   N5    A    
C18   H20   S    
C25   C34   S    
C29   H5    S    
N3    N4    A    
C13   C14   A    
C1    O1    A    
C33   C34   A    
C13   H17   S    
N5    Zn2   S    
C1    C10   S    
C16   O8    A    
C4    O6    A    
O3    S1    S    
C12   C26   A    
C1    O4    A    
C31   N4    A    
C29   C30   A    
C3    C9    A    
C19   H2    S    
O4    Zn2   S    
C17   C18   A    
C25   O10   A    
O8    Zn2   S    
C17   S1    S    
C22   C24   A    
C5    H14   S    
O5    Zn1   S    
C35   H9    S    
C2    C23   S    
C2    C36   A    
C15   C17   A    
C8    C14   A    
C12   C30   A    
C33   H8    S    
C28   C31   S    
C16   O7    A    
C3    C5    A    
C4    O5    A    
C26   H1    S    
C6    C7    A    
O6    Zn2   S    
C32   C33   A    
C31   N1    A    
C22   N5    A    
O9    Zn1   S    
C11   C13   A    
N1    N2    A    
O1    Zn1   S    
C24   H4    S    
C32   H7    S    
O7    Zn1   S    
C14   C16   S    
C20   N6    A    
N6    Zn1   S    
C10   C11   A    
C15   C21   A    
C20   C21   A    
C27   C28   A    
O2    S1    D    
C30   H6    S    
C15   H19   S    
