data_mof_unit_30810.cif
_audit_creation_date              2012-12-10T17:47:46-0500
_audit_creation_method            fapswitch 2.2
_symmetry_space_group_name_H-M    P1
_symmetry_Int_Tables_number       1
_space_group_crystal_system       triclinic
_cell_length_a                    10.648275
_cell_length_b                    10.662713
_cell_length_c                    9.986912
_cell_angle_alpha                 90.776532
_cell_angle_beta                  90.637876
_cell_angle_gamma                 93.798838
_cell_volume                      1131.2314249

loop_
_atom_site_label
_atom_site_type_symbol
_atom_type_description
_atom_site_fract_x
_atom_site_fract_y
_atom_site_fract_z
_atom_type_partial_charge
C1    C     C_R   0.505477 0.261001 0.499733 0.863821
C2    C     C_R   0.607300 0.073286 0.580218 0.086256
C3    C     C_R   0.516426 0.128926 0.499753 -0.117345
C4    C     C_R   0.257819 0.499194 0.499802 0.854233
C5    C     C_R   0.431259 0.057310 0.418943 -0.199712
C6    C     C_R   0.430011 0.929450 0.420674 -0.210693
C7    C     C_R   0.515470 0.872122 0.501786 -0.089524
C8    C     C_R   0.321541 0.329213 0.124431 0.497862
C9    C     C_R   0.237356 0.253902 0.042867 -0.279808
C10   C     C_R   0.243204 0.258095 0.906474 -0.280766
C11   C     C_R   0.332055 0.337970 0.847937 -0.125255
C12   C     C_3   0.878225 0.498203 0.501575 0.123057
C13   C     C_R   0.416020 0.419312 0.923151 0.090027
C14   C     C_R   0.413944 0.417635 0.067401 0.012231
C15   C     C_R   0.581229 0.577655 0.074378 0.488947
C16   C     C_R   0.505600 0.739302 0.500801 0.857603
C17   C     C_R   0.580588 0.577091 0.930769 -0.242161
C18   C     C_R   0.741866 0.499949 0.500704 0.804808
C19   C     C_3   0.071068 0.476740 0.644767 -0.384820
C20   C     C_3   0.928499 0.477992 0.645731 -0.356582
C21   C     C_3   0.079643 0.626546 0.450415 -0.437149
C22   C     C_3   0.063535 0.391852 0.407781 -0.367509
C23   C     C_3   0.935251 0.626357 0.451017 -0.478553
C24   C     C_3   0.120911 0.498684 0.500496 0.101830
C25   C     C_3   0.919347 0.391302 0.406970 0.276307
C26   C     C_R   0.699138 0.144696 0.657714 -0.125502
C27   C     C_R   0.790123 0.086083 0.731141 -0.096062
C28   C     C_R   0.792196 0.955846 0.728059 -0.153664
C29   C     C_R   0.702634 0.883729 0.652454 -0.192433
C30   C     C_R   0.608009 0.941573 0.579397 0.109770
H1    H     H_    0.111470 0.551407 0.714823 0.189750
H2    H     H_    0.099075 0.384600 0.682087 0.174248
H3    H     H_    0.167184 0.188639 0.085988 0.142959
H4    H     H_    0.179102 0.197838 0.845296 0.163886
H5    H     H_    0.331319 0.332421 0.742278 0.217119
H6    H     H_    0.646204 0.639935 0.877928 0.139714
H7    H     H_    0.887903 0.387784 0.686419 0.194180
H8    H     H_    0.120787 0.704253 0.516118 0.177064
H9    H     H_    0.906258 0.704189 0.516830 0.181227
H10   H     H_    0.096633 0.406135 0.303508 0.156377
H11   H     H_    0.094524 0.299824 0.442291 0.185647
H12   H     H_    0.888117 0.409198 0.302057 0.101207
H13   H     H_    0.710160 0.783147 0.650171 0.140889
H14   H     H_    0.717530 0.707762 0.084161 0.303222
H15   H     H_    0.243896 0.248444 0.279875 0.284693
H16   H     H_    0.901349 0.554931 0.713974 0.165796
H17   H     H_    0.785648 0.257790 0.401235 0.326277
H18   H     H_    0.114218 0.644152 0.347116 0.181625
H19   H     H_    0.900301 0.644122 0.347959 0.205331
H20   H     H_    0.362447 0.099744 0.357428 0.168815
H21   H     H_    0.704073 0.245996 0.660089 0.166443
H22   H     H_    0.860403 0.142088 0.788992 0.124451
H23   H     H_    0.864087 0.910547 0.783450 0.127872
H24   H     H_    0.360262 0.874736 0.360386 0.152031
N1    N     N_R   0.498810 0.498800 0.142780 -0.114692
N2    N     N_R   0.498760 0.498720 0.857170 -0.120975
O1    O     O_R   0.500000 0.316780 0.614690 -0.654316
O2    O     O_3   0.312766 0.311866 0.258481 -0.740456
O3    O     O_3   0.868294 0.273078 0.447605 -0.788540
O4    O     O_R   0.499990 0.316750 0.385360 -0.546193
O5    O     O_R   0.314800 0.499990 0.614670 -0.652962
O6    O     O_R   0.314790 0.499970 0.385330 -0.561551
O7    O     O_R   0.500010 0.683250 0.614640 -0.621201
O8    O     O_R   0.500000 0.683220 0.385310 -0.568025
O9    O     O_R   0.685210 0.500030 0.614670 -0.641953
O10   O     O_R   0.685200 0.500010 0.385330 -0.593782
O11   O     O_3   0.664331 0.657207 0.147092 -0.745121
Zn1   Zn    Zn3+2 0.500010 0.500020 0.653130 0.924596
Zn2   Zn    Zn3+2 0.499990 0.499980 0.346870 1.025133

loop_
_geom_bond_atom_site_label_1
_geom_bond_atom_site_label_2
_ccdc_geom_bond_type
C25   H12   S    
C28   H23   S    
C6    C7    A    
C16   O7    A    
C1    O1    A    
C2    C3    A    
C18   O10   A    
C29   C30   A    
O8    Zn2   S    
C9    C10   A    
C19   C20   S    
C12   C23   S    
C22   H10   S    
C12   C25   S    
C2    C30   A    
O9    Zn1   S    
C15   O11   S    
C25   O3    S    
C13   N2    A    
C11   H5    S    
C14   N1    A    
C3    C5    A    
C19   H1    S    
C2    C26   A    
C7    C30   A    
N2    Zn1   S    
C13   C14   A    
C29   H13   S    
C18   O9    A    
C9    H3    S    
C20   H7    S    
C11   C13   A    
O5    Zn1   S    
C12   C20   S    
C26   C27   A    
N1    Zn2   S    
O4    Zn2   S    
C6    H24   S    
C23   H9    S    
C19   H2    S    
C7    C16   S    
C17   H6    S    
C19   C24   S    
C17   N2    A    
C21   C23   S    
C5    C6    A    
C4    C24   S    
C22   C24   S    
C5    H20   S    
C23   H19   S    
O10   Zn2   S    
C10   C11   A    
C21   C24   S    
O1    Zn1   S    
H17   O3    S    
H15   O2    S    
C22   H11   S    
C21   H18   S    
C4    O6    A    
C27   H22   S    
C10   H4    S    
C1    O4    A    
C12   C18   S    
C27   C28   A    
C15   C17   A    
O7    Zn1   S    
C28   C29   A    
H14   O11   S    
C8    C14   A    
C16   O8    A    
C8    O2    S    
C26   H21   S    
C4    O5    A    
C20   H16   S    
C21   H8    S    
O6    Zn2   S    
C8    C9    A    
C1    C3    S    
C22   C25   S    
C15   N1    A    
