data_mof_unit_27768.cif
_audit_creation_date              2012-12-11T15:09:45-0500
_audit_creation_method            fapswitch 2.2
_symmetry_space_group_name_H-M    P1
_symmetry_Int_Tables_number       1
_space_group_crystal_system       triclinic
_cell_length_a                    20.982651
_cell_length_b                    7.131708
_cell_length_c                    14.013374
_cell_angle_alpha                 90.000384
_cell_angle_beta                  98.466053
_cell_angle_gamma                 89.99944
_cell_volume                      2074.14091542

loop_
_atom_site_label
_atom_site_type_symbol
_atom_type_description
_atom_site_fract_x
_atom_site_fract_y
_atom_site_fract_z
_atom_type_partial_charge
O1    O     O_R   0.447130 0.507140 0.597350 -0.529021
O2    O     O_R   0.552870 0.007140 0.402650 -0.529017
O3    O     O_R   0.578910 0.181280 0.586990 -0.535549
O4    O     O_R   0.421090 0.681280 0.413010 -0.535552
C1    C     C_R   0.604536 0.344429 0.607212 0.746758
C2    C     C_R   0.395464 0.844430 0.392788 0.746768
O5    O     O_R   0.449230 0.177860 0.608640 -0.545880
O6    O     O_R   0.550770 0.677860 0.391360 -0.545905
O7    O     O_R   0.422260 0.000770 0.424450 -0.538012
O8    O     O_R   0.577740 0.500770 0.575550 -0.538009
C3    C     C_R   0.432451 0.346451 0.633995 0.748889
C4    C     C_R   0.567550 0.846449 0.366006 0.748950
O9    O     O_3   0.491310 0.336980 0.439550 -0.374015
O10   O     O_3   0.508690 0.836980 0.560450 -0.374005
V1    V     V_3+5 0.501610 0.064760 0.511210 1.514615
V2    V     V_3+5 0.498390 0.564760 0.488790 1.514586
C5    C     C_R   0.615365 0.957860 0.124765 0.378013
C6    C     C_R   0.384632 0.457854 0.875235 0.378010
H1    H     H_    0.696641 0.941394 0.994843 0.166142
H2    H     H_    0.303357 0.441382 0.005156 0.166141
C7    C     C_R   0.606743 0.859497 0.288153 -0.287293
C8    C     C_R   0.393255 0.359506 0.711844 -0.287262
C9    C     C_R   0.917371 0.857642 0.302117 0.002216
C10   C     C_R   0.082628 0.357603 0.697879 0.002157
C11   C     C_R   0.881138 0.898793 0.376573 0.292347
C12   C     C_R   0.118863 0.398739 0.623421 0.292410
C13   C     C_R   0.814169 0.927690 0.353994 0.409663
C14   C     C_R   0.185829 0.427690 0.646008 0.409697
C15   C     C_R   0.782137 0.894252 0.258992 0.005449
C16   C     C_R   0.217861 0.394249 0.741008 0.005436
C17   C     C_R   0.819333 0.882677 0.181715 -0.082156
C18   C     C_R   0.180665 0.382669 0.818284 -0.082162
C19   C     C_R   0.713317 0.888444 0.238271 0.057857
C20   C     C_R   0.286681 0.388443 0.761728 0.057862
C21   C     C_R   0.682938 0.929855 0.143760 -0.125819
C22   C     C_R   0.317060 0.429849 0.856240 -0.125811
C23   C     C_R   0.719842 0.929044 0.068802 -0.143374
C24   C     C_R   0.280156 0.429035 0.931197 -0.143366
C25   C     C_R   0.785828 0.894471 0.085203 0.120158
C26   C     C_R   0.214170 0.394463 0.914796 0.120153
C27   C     C_R   0.674191 0.830582 0.307258 0.352693
C28   C     C_R   0.325807 0.330594 0.692738 0.352696
C29   C     C_R   0.577920 0.924774 0.197487 0.133622
C30   C     C_R   0.422077 0.424774 0.802512 0.133627
C31   C     C_R   0.887608 0.863199 0.205171 -0.165590
C32   C     C_R   0.112390 0.363187 0.794827 -0.165551
C33   C     C_1   0.166513 0.857224 0.168441 -0.097661
C34   C     C_1   0.833486 0.357226 0.831559 -0.097651
C35   C     C_1   0.218916 0.854909 0.219603 0.065483
C36   C     C_1   0.781084 0.354910 0.780397 0.065486
C37   C     C_1   0.280662 0.853376 0.279627 0.050736
C38   C     C_1   0.719338 0.353375 0.720373 0.050738
C39   C     C_1   0.333046 0.851002 0.330857 -0.138917
C40   C     C_1   0.666953 0.351000 0.669143 -0.138909
O11   O     O_R   0.922300 0.202240 0.924350 -0.523922
O12   O     O_R   0.077700 0.702240 0.075650 -0.523925
O13   O     O_R   0.050780 0.535130 0.891350 -0.538031
O14   O     O_R   0.949220 0.035130 0.108650 -0.538043
C41   C     C_R   0.069891 0.368672 0.868612 0.810578
C42   C     C_R   0.930109 0.868675 0.131388 0.810558
O15   O     O_R   0.921100 0.531560 0.912990 -0.526736
O16   O     O_R   0.078900 0.031560 0.087010 -0.526739
O17   O     O_R   0.947120 0.708470 0.097370 -0.529504
O18   O     O_R   0.052880 0.208470 0.902630 -0.529501
C43   C     C_R   0.895909 0.363597 0.893449 0.751963
C44   C     C_R   0.104091 0.863596 0.106551 0.751950
O19   O     O_3   0.008710 0.375800 0.060400 -0.365494
O20   O     O_3   0.991290 0.875800 0.939600 -0.365484
V3    V     V_3+5 0.998380 0.648080 0.988790 1.565305
V4    V     V_3+5 0.001620 0.148080 0.011210 1.565284
I1    I     I_    0.476395 0.970771 0.166384 -0.270837
I2    I     I_    0.523603 0.470766 0.833619 -0.270831
O21   O     O_3   0.584369 0.019082 0.036505 -0.591038
H3    H     H_    0.612925 0.108722 0.009281 0.309422
O22   O     O_3   0.415628 0.519068 0.963497 -0.591037
H4    H     H_    0.387072 0.608708 0.990722 0.309421
O23   O     O_3   0.702743 0.733805 0.388220 -0.610869
H5    H     H_    0.670005 0.685241 0.425741 0.294820
O24   O     O_3   0.297254 0.233824 0.611773 -0.610869
H6    H     H_    0.329986 0.185437 0.574193 0.294823
I3    I     I_    0.018362 0.792501 0.334317 -0.340019
I4    I     I_    0.981631 0.292493 0.665702 -0.340099
O25   O     O_3   0.779631 0.006609 0.420941 -0.613800
H7    H     H_    0.808384 0.037253 0.481395 0.349609
O26   O     O_3   0.220364 0.506634 0.579065 -0.613810
H8    H     H_    0.191606 0.537327 0.518622 0.349616
O27   O     O_3   0.909065 0.913188 0.472036 -0.620138
H9    H     H_    0.956027 0.930906 0.476277 0.346910
O28   O     O_3   0.090948 0.413081 0.527949 -0.620174
H10   H     H_    0.043965 0.430340 0.523663 0.346939
I5    I     I_    0.821819 0.861679 0.951709 -0.379584
I6    I     I_    0.178180 0.361669 0.048291 -0.379587

loop_
_geom_bond_atom_site_label_1
_geom_bond_atom_site_label_2
_ccdc_geom_bond_type
C16   C18   A    
O27   H9    S    
C31   C42   S    
C6    O22   S    
C9    C31   A    
C32   C41   S    
C13   C15   A    
O21   H3    S    
C20   C28   A    
O2    C4    A    
C2    O7    A    
C33   C35   T    
O23   H5    S    
C12   O28   S    
O5    C3    A    
C41   O18   A    
C42   O17   A    
C21   C23   A    
C10   C12   A    
C27   O23   S    
O13   C41   A    
O14   C42   A    
C15   C19   A    
C11   O27   S    
O16   V4    S    
C10   I4    S    
H1    C23   S    
C7    C29   A    
C8    C30   A    
O17   V3    S    
O20   V3    S    
C35   C37   S    
O1    C3    A    
C36   C38   S    
O18   V4    S    
C34   C43   S    
C33   C44   S    
C34   C36   T    
C28   O24   S    
O6    V2    S    
C5    O21   S    
C25   I5    S    
O11   C43   A    
C38   C40   T    
C16   C20   A    
C1    C40   S    
O4    C2    A    
O16   C44   A    
O14   V4    S    
O26   H8    S    
C4    C7    S    
O19   V3    S    
O4    V2    S    
O22   H4    S    
C5    C29   A    
C6    C30   A    
H2    C24   S    
O25   H7    S    
O6    C4    A    
O1    V2    S    
C26   I6    S    
O2    V1    S    
C7    C27   A    
O20   V4    S    
C2    C39   S    
C22   C24   A    
O3    V1    S    
O15   V3    S    
C29   I1    S    
C9    I3    S    
C18   C32   A    
O3    C1    A    
C11   C13   A    
C3    C8    S    
C12   C14   A    
O19   V4    S    
C19   C27   A    
C13   O25   S    
O7    V1    S    
C10   C32   A    
C14   C16   A    
C23   C25   A    
O8    V2    S    
C24   C26   A    
C8    C28   A    
O12   C44   A    
O5    V1    S    
C19   C21   A    
C17   C25   A    
C30   I2    S    
C20   C22   A    
C18   C26   A    
O11   V4    S    
C37   C39   T    
O24   H6    S    
O15   C43   A    
C1    O8    A    
C9    C11   A    
C15   C17   A    
O12   V3    S    
C17   C31   A    
O9    V2    S    
C14   O26   S    
O10   V1    S    
C5    C21   A    
O13   V3    S    
O28   H10   S    
C6    C22   A    
