data_mof_unit_59877.cif
_audit_creation_date              2012-12-11T14:21:21-0500
_audit_creation_method            fapswitch 2.2
_symmetry_space_group_name_H-M    P1
_symmetry_Int_Tables_number       1
_space_group_crystal_system       triclinic
_cell_length_a                    21.965672
_cell_length_b                    7.22163
_cell_length_c                    14.861291
_cell_angle_alpha                 90.000185
_cell_angle_beta                  107.212482
_cell_angle_gamma                 89.99998
_cell_volume                      2251.83677934

loop_
_atom_site_label
_atom_site_type_symbol
_atom_type_description
_atom_site_fract_x
_atom_site_fract_y
_atom_site_fract_z
_atom_type_partial_charge
O1    O     O_R   0.584770 0.505770 0.002090 -0.540767
O2    O     O_R   0.415230 0.005770 0.997910 -0.540767
O3    O     O_R   0.467060 0.173340 0.861950 -0.534212
O4    O     O_R   0.532940 0.673340 0.138050 -0.534213
C1    C     C_R   0.453906 0.343844 0.825715 0.744246
C2    C     C_R   0.546094 0.843844 0.174285 0.744251
O5    O     O_R   0.587510 0.175890 0.993210 -0.531292
O6    O     O_R   0.412490 0.675890 0.006790 -0.531292
O7    O     O_R   0.536540 0.008150 0.130100 -0.521426
O8    O     O_R   0.463460 0.508150 0.869900 -0.521425
C3    C     C_R   0.613154 0.344727 0.999267 0.746326
C4    C     C_R   0.386846 0.844728 0.000733 0.746330
O9    O     O_3   0.483140 0.340040 0.044760 -0.372345
O10   O     O_3   0.516860 0.840040 0.955240 -0.372342
V1    V     V_3+5 0.503130 0.064190 0.991700 1.560209
V2    V     V_3+5 0.496870 0.564190 0.008300 1.560207
C5    C     C_2   0.211632 0.736764 0.989952 -0.094506
C6    C     C_2   0.788366 0.236760 0.010039 -0.094506
C7    C     C_2   0.183765 0.888362 0.014326 0.226832
C8    C     C_2   0.816235 0.388363 0.985673 0.226834
H1    H     H_    0.182612 0.615850 0.962738 0.120387
H2    H     H_    0.817384 0.115838 0.037245 0.120386
C9    C     C_2   0.281259 0.717835 0.001616 -0.050441
C10   C     C_2   0.718739 0.217834 0.998375 -0.050438
C11   C     C_2   0.318534 0.861125 0.993730 -0.199318
C12   C     C_2   0.681466 0.361123 0.006272 -0.199318
H3    H     H_    0.301078 0.578947 0.011213 0.153704
H4    H     H_    0.698918 0.078948 0.988769 0.153707
H5    H     H_    0.297922 0.997775 0.976796 0.185542
H6    H     H_    0.702079 0.497769 0.023213 0.185541
C13   C     C_R   0.929119 0.883092 0.722025 -0.161748
C14   C     C_R   0.070881 0.383096 0.277975 -0.161749
C15   C     C_R   0.574309 0.846394 0.277155 -0.108235
C16   C     C_R   0.425692 0.346393 0.722845 -0.108234
C17   C     C_R   0.940284 0.825501 0.565988 0.221071
C18   C     C_R   0.059717 0.325506 0.434012 0.221069
C19   C     C_R   0.967942 0.842626 0.664302 0.073145
C20   C     C_R   0.032058 0.342625 0.335698 0.073147
C21   C     C_R   0.863360 0.906548 0.682575 0.266410
C22   C     C_R   0.136640 0.406560 0.317425 0.266401
C23   C     C_R   0.833733 0.852209 0.587730 -0.041810
C24   C     C_R   0.166268 0.352221 0.412270 -0.041811
C25   C     C_R   0.872967 0.826641 0.527869 0.012248
C26   C     C_R   0.127034 0.326653 0.472131 0.012253
C27   C     C_R   0.766379 0.823504 0.550315 -0.087049
C28   C     C_R   0.233622 0.323518 0.449684 -0.087053
C29   C     C_R   0.738059 0.831542 0.451331 0.050542
C30   C     C_R   0.261942 0.331559 0.548668 0.050546
C31   C     C_R   0.777868 0.804574 0.393829 -0.093962
C32   C     C_R   0.222134 0.304598 0.606171 -0.093962
C33   C     C_R   0.843729 0.798696 0.431312 -0.067819
C34   C     C_R   0.156272 0.298716 0.568689 -0.067820
C35   C     C_R   0.727317 0.769346 0.607100 0.324636
C36   C     C_R   0.272683 0.269359 0.392897 0.324645
C37   C     C_R   0.661060 0.760389 0.568538 0.190486
C38   C     C_R   0.338941 0.260400 0.431459 0.190488
C39   C     C_R   0.632369 0.790670 0.471528 -0.065650
C40   C     C_R   0.367631 0.290673 0.528471 -0.065651
C41   C     C_R   0.670512 0.838966 0.412795 0.020248
C42   C     C_R   0.329489 0.338979 0.587203 0.020249
C43   C     C_R   0.566545 0.763416 0.431008 -0.107249
C44   C     C_R   0.433454 0.263399 0.568992 -0.107248
C45   C     C_R   0.538595 0.779450 0.334341 0.135204
C46   C     C_R   0.461404 0.279432 0.665659 0.135207
C47   C     C_R   0.639280 0.890400 0.317564 0.068528
C48   C     C_R   0.360722 0.390414 0.682434 0.068530
H7    H     H_    0.870936 0.772057 0.382947 0.176878
H8    H     H_    0.129066 0.272081 0.617055 0.176877
H9    H     H_    0.758291 0.773018 0.319838 0.154297
H10   H     H_    0.241711 0.273050 0.680163 0.154294
H11   H     H_    0.536440 0.718862 0.472609 0.177835
H12   H     H_    0.463557 0.218828 0.527392 0.177833
O11   O     O_R   0.036450 0.233070 0.130130 -0.543207
O12   O     O_R   0.963550 0.733070 0.869870 -0.543206
O13   O     O_R   0.912470 0.560570 0.006790 -0.544459
O14   O     O_R   0.087530 0.060570 0.993210 -0.544456
C49   C     C_R   0.886318 0.392496 0.998737 0.640923
C50   C     C_R   0.113681 0.892496 0.001262 0.640921
O15   O     O_R   0.032920 0.562940 0.138050 -0.523945
O16   O     O_R   0.967080 0.062940 0.861950 -0.523947
O17   O     O_R   0.084790 0.730500 0.002090 -0.539533
O18   O     O_R   0.915210 0.230500 0.997910 -0.539535
C51   C     C_R   0.044025 0.394185 0.174975 0.814398
C52   C     C_R   0.955974 0.894185 0.825025 0.814398
O19   O     O_3   0.016820 0.396170 0.955260 -0.377839
O20   O     O_3   0.983180 0.896170 0.044740 -0.377839
V3    V     V_3+5 0.996880 0.672090 0.008300 1.526685
V4    V     V_3+5 0.003120 0.172090 0.991700 1.526683
I1    I     I_    0.068671 0.816890 0.727194 -0.341690
I2    I     I_    0.931329 0.316877 0.272805 -0.341685
O21   O     O_3   0.830082 0.988113 0.737837 -0.622515
H13   H     H_    0.792350 0.051923 0.695892 0.323890
O22   O     O_3   0.169917 0.488127 0.262163 -0.622515
H14   H     H_    0.207650 0.551937 0.304108 0.323891
O23   O     O_3   0.752462 0.702404 0.697534 -0.591920
H15   H     H_    0.792326 0.634874 0.700760 0.307458
O24   O     O_3   0.247539 0.202416 0.302462 -0.591919
H16   H     H_    0.207670 0.134900 0.299233 0.307454
O25   O     O_3   0.221573 0.035410 0.057811 -0.623094
H17   H     H_    0.195351 0.125431 0.080352 0.322428
O26   O     O_3   0.778427 0.535421 0.942197 -0.623095
H18   H     H_    0.804651 0.625456 0.919666 0.322425
I3    I     I_    0.682766 0.073710 0.240209 -0.416465
I4    I     I_    0.317240 0.573747 0.759784 -0.416464
I5    I     I_    0.441279 0.701920 0.278839 -0.289415
I6    I     I_    0.558718 0.201881 0.721162 -0.289419
I7    I     I_    0.607092 0.693029 0.662424 -0.251899
I8    I     I_    0.392910 0.193062 0.337571 -0.251895
I9    I     I_    0.000722 0.799893 0.475913 -0.300753
I10   I     I_    0.999279 0.299893 0.524087 -0.300754

loop_
_geom_bond_atom_site_label_1
_geom_bond_atom_site_label_2
_ccdc_geom_bond_type
C40   C44   A    
O26   H18   S    
C35   O23   S    
O23   H15   S    
O1    C3    A    
C22   O22   S    
O16   C52   A    
O2    C4    A    
C16   C48   A    
C2    O7    A    
O15   V3    S    
O24   H16   S    
C15   C47   A    
C29   C31   A    
O5    C3    A    
O22   H14   S    
C8    C49   S    
C6    C10   S    
C17   C19   A    
O14   C50   A    
C39   C41   A    
C40   C42   A    
C50   O17   A    
C24   C28   A    
C27   C29   A    
C43   C45   A    
C38   I8    S    
C44   C46   A    
C13   C21   A    
C31   C33   A    
C32   C34   A    
C36   O24   S    
C9    H3    S    
O12   V3    S    
C45   I5    S    
C17   C25   A    
O14   V4    S    
C34   H8    S    
C15   C45   A    
C26   C34   A    
C30   C32   A    
C42   C48   A    
O6    V2    S    
C31   H9    S    
C23   C25   A    
C24   C26   A    
C21   O21   S    
C30   C42   A    
C36   C38   A    
C35   C37   A    
C11   H5    S    
C28   C30   A    
C48   I4    S    
C21   C23   A    
O21   H13   S    
C7    O25   S    
O20   V3    S    
C33   H7    S    
C8    O26   S    
C3    C12   S    
C27   C35   A    
C5    H1    S    
C13   C52   S    
C13   C19   A    
C37   I7    S    
O4    V2    S    
C7    C50   S    
O11   V4    S    
O25   H17   S    
O6    C4    A    
C1    C16   S    
C28   C36   A    
C16   C46   A    
C44   H12   S    
O1    V2    S    
C5    C9    S    
C46   I6    S    
O2    V1    S    
O13   C49   A    
O17   V3    S    
O13   V3    S    
C12   H6    S    
C14   C20   A    
C37   C39   A    
C18   I10   S    
C18   C26   A    
O4    C2    A    
C47   I3    S    
O3    V1    S    
O19   V4    S    
C14   C51   S    
C6    H2    S    
C10   H4    S    
O12   C52   A    
C22   C24   A    
O3    C1    A    
C17   I9    S    
C39   C43   A    
C20   I2    S    
C2    C15   S    
C19   I1    S    
C4    C11   S    
C18   C20   A    
C32   H10   S    
C1    O8    A    
O16   V4    S    
O8    V2    S    
C41   C47   A    
O15   C51   A    
C10   C12   D    
C43   H11   S    
C49   O18   A    
C25   C33   A    
O18   V4    S    
O5    V1    S    
C5    C7    D    
C38   C40   A    
C6    C8    D    
C14   C22   A    
O7    V1    S    
C29   C41   A    
C9    C11   D    
O9    V2    S    
C23   C27   A    
O10   V1    S    
O11   C51   A    
