data_mof_unit_57545.cif
_audit_creation_date              2012-12-11T17:12:49-0500
_audit_creation_method            fapswitch 2.2
_symmetry_space_group_name_H-M    P1
_symmetry_Int_Tables_number       1
_space_group_crystal_system       triclinic
_cell_length_a                    17.217511
_cell_length_b                    6.887373
_cell_length_c                    14.345873
_cell_angle_alpha                 89.860835
_cell_angle_beta                  110.085286
_cell_angle_gamma                 90.149937
_cell_volume                      1597.71337777

loop_
_atom_site_label
_atom_site_type_symbol
_atom_type_description
_atom_site_fract_x
_atom_site_fract_y
_atom_site_fract_z
_atom_type_partial_charge
O1    O     O_R   0.314130 0.635770 0.168990 -0.533857
O2    O     O_R   0.685870 0.364230 0.831010 -0.541319
O3    O     O_R   0.185870 0.135770 0.331010 -0.537377
O4    O     O_R   0.814130 0.864230 0.668990 -0.540401
O5    O     O_R   0.146800 0.302460 0.139760 -0.528127
O6    O     O_R   0.853200 0.697540 0.860240 -0.528917
O7    O     O_R   0.353200 0.802460 0.360240 -0.526715
O8    O     O_R   0.646800 0.197540 0.639760 -0.528147
C1    C     C_R   0.113967 0.475775 0.112902 0.794047
C2    C     C_R   0.886014 0.524221 0.887132 0.794893
C3    C     C_R   0.386044 0.975834 0.387082 0.788255
C4    C     C_R   0.613908 0.024182 0.613006 0.789766
O9    O     O_R   0.311100 0.305780 0.157130 -0.538573
O10   O     O_R   0.688900 0.694220 0.842870 -0.534880
O11   O     O_R   0.188900 0.805780 0.342870 -0.536347
O12   O     O_R   0.811100 0.194220 0.657130 -0.528408
O13   O     O_R   0.351340 0.139640 0.348510 -0.537025
O14   O     O_R   0.648660 0.860360 0.651490 -0.537383
O15   O     O_R   0.148660 0.639640 0.151490 -0.536149
O16   O     O_R   0.851340 0.360360 0.848510 -0.534071
C5    C     C_R   0.332855 0.475176 0.136086 0.846523
C6    C     C_R   0.667140 0.524822 0.863899 0.847132
C7    C     C_R   0.167147 0.974447 0.363964 0.847073
C8    C     C_R   0.832849 0.025550 0.636018 0.845484
C9    C     C_1   0.533515 0.008923 0.533183 -0.030293
C10   C     C_1   0.466415 0.991101 0.466937 -0.032361
C11   C     C_1   0.966420 0.508970 0.966936 -0.029712
C12   C     C_1   0.033555 0.491020 0.033106 -0.027799
O17   O     O_3   0.263010 0.470920 0.312770 -0.371717
O18   O     O_3   0.736990 0.529080 0.687230 -0.371183
O19   O     O_3   0.236990 0.970920 0.187230 -0.369015
O20   O     O_3   0.763010 0.029080 0.812770 -0.372820
V1    V     V_3+5 0.247590 0.194450 0.238360 1.639329
V2    V     V_3+5 0.752410 0.805550 0.761640 1.631111
V3    V     V_3+5 0.252410 0.694450 0.261640 1.651733
V4    V     V_3+5 0.747590 0.305550 0.738360 1.650020
C13   C     C_R   0.116851 0.982250 0.428906 -0.241184
C14   C     C_R   0.883220 0.017870 0.571138 -0.246677
C15   C     C_R   0.383192 0.486194 0.071274 -0.243113
C16   C     C_R   0.616829 0.513874 0.928731 -0.243138
C17   C     C_R   0.895977 0.052144 0.408447 -0.101131
C18   C     C_R   0.104161 0.948331 0.591646 -0.119013
C19   C     C_R   0.605784 0.466006 0.091494 -0.111761
C20   C     C_R   0.394271 0.534444 0.908548 -0.104886
C21   C     C_R   0.846696 0.051664 0.468275 0.309675
C22   C     C_R   0.153413 0.948434 0.531767 0.305128
C23   C     C_R   0.654682 0.481043 0.031455 0.304409
C24   C     C_R   0.345366 0.519297 0.968567 0.307993
C25   C     C_R   0.968991 0.982306 0.612941 0.192878
C26   C     C_R   0.031132 0.018382 0.387170 0.190537
C27   C     C_R   0.530092 0.532712 0.887082 0.189661
C28   C     C_R   0.469945 0.467623 0.112955 0.189126
C29   C     C_R   0.018499 0.982416 0.551709 -0.011688
C30   C     C_R   0.981646 0.018312 0.448415 -0.014483
C31   C     C_R   0.480904 0.517229 0.948375 -0.013594
C32   C     C_R   0.519144 0.483211 0.051673 -0.013312
H1    H     H_    0.866329 0.078998 0.330051 0.239912
H2    H     H_    0.133792 0.921140 0.670014 0.241150
H3    H     H_    0.636424 0.440490 0.169845 0.244135
H4    H     H_    0.363631 0.559872 0.830188 0.240472
Br1   Br    Br    0.982905 0.062799 0.245425 -0.450519
Br2   Br    Br    0.017242 0.938538 0.754729 -0.453447
Br3   Br    Br    0.519557 0.422857 0.254475 -0.447406
Br4   Br    Br    0.480491 0.577764 0.745586 -0.442849
S1    S     S_3+6 0.261324 0.908988 0.588017 0.054600
O21   O     O_2   0.307362 0.071763 0.560054 -0.322548
O22   O     O_2   0.286349 0.901259 0.699215 -0.283277
O23   O     O_3   0.287067 0.698646 0.547082 -0.467604
H5    H     H_    0.254599 0.598114 0.567075 0.358089
S2    S     S_3+6 0.738654 0.088590 0.411827 0.055214
O24   O     O_2   0.715384 0.276234 0.448458 -0.294900
O25   O     O_2   0.713780 0.097546 0.300668 -0.286880
O26   O     O_3   0.687380 0.905806 0.442967 -0.504024
H6    H     H_    0.707627 0.786506 0.420439 0.360791
S3    S     S_3+6 0.236431 0.540464 0.913019 0.047177
O27   O     O_2   0.207847 0.714581 0.955205 -0.302916
O28   O     O_2   0.211007 0.563844 0.802327 -0.290270
O29   O     O_3   0.190783 0.341107 0.938553 -0.493808
H7    H     H_    0.213841 0.231605 0.911802 0.364444
S4    S     S_3+6 0.763595 0.458793 0.086889 0.051611
O30   O     O_2   0.804071 0.638195 0.064807 -0.314958
O31   O     O_2   0.789032 0.434650 0.197540 -0.279259
O32   O     O_3   0.796030 0.265605 0.038983 -0.480253
H8    H     H_    0.766217 0.153414 0.054113 0.359124

loop_
_geom_bond_atom_site_label_1
_geom_bond_atom_site_label_2
_ccdc_geom_bond_type
C2    C11   S    
C16   C23   A    
C31   C32   A    
O1    C5    A    
O26   H6    S    
O3    C7    A    
C18   H2    S    
C14   C25   A    
C29   C30   A    
O7    C3    A    
C26   C30   A    
O20   V4    S    
C18   C29   A    
O8    V4    S    
O4    C8    A    
O3    V1    S    
O17   V1    S    
C18   C22   A    
C14   C21   A    
C1    O15   A    
C2    O16   A    
O23   H5    S    
S1    O22   D    
O5    V1    S    
O2    C6    A    
C8    C14   S    
O19   V1    S    
S2    O24   D    
C19   H3    S    
O11   C7    A    
C15   C28   A    
O12   C8    A    
C24   S3    S    
O13   V1    S    
C23   S4    S    
S4    O32   S    
O11   V3    S    
O4    V2    S    
O18   V2    S    
C22   S1    S    
S4    O31   D    
O29   H7    S    
C3    C10   S    
C9    C10   T    
C7    C13   S    
O6    V2    S    
O20   V2    S    
S3    O27   D    
O5    C1    A    
O14   V2    S    
O32   H8    S    
C5    C15   S    
O8    C4    A    
S1    O23   S    
C6    C16   S    
S2    O26   S    
O9    C5    A    
S3    O28   D    
S1    O21   D    
O19   V3    S    
O1    V3    S    
O2    V4    S    
C3    O13   A    
C25   Br2   S    
C21   S2    S    
O7    V3    S    
C27   Br4   S    
S4    O30   D    
C28   Br3   S    
O10   V2    S    
C16   C27   A    
O17   V3    S    
O18   V4    S    
C4    C9    S    
O10   C6    A    
C17   H1    S    
O15   V3    S    
O12   V4    S    
C13   C26   A    
C20   C31   A    
C20   H4    S    
C25   C29   A    
C27   C31   A    
S3    O29   S    
C17   C30   A    
O6    C2    A    
O16   V4    S    
C28   C32   A    
C19   C32   A    
O9    V1    S    
C4    O14   A    
C11   C12   T    
C26   Br1   S    
C17   C21   A    
S2    O25   D    
C13   C22   A    
C19   C23   A    
C20   C24   A    
C1    C12   S    
C15   C24   A    
