data_mof_unit_17986.cif
_audit_creation_date              2013-03-05T15:45:14-0500
_audit_creation_method            fapswitch 2.2
_symmetry_space_group_name_H-M    P1
_symmetry_Int_Tables_number       1
_space_group_crystal_system       triclinic
_cell_length_a                    16.927331
_cell_length_b                    7.044948
_cell_length_c                    16.842345
_cell_angle_alpha                 89.922619
_cell_angle_beta                  100.531104
_cell_angle_gamma                 89.8847
_cell_volume                      1974.6478429

loop_
_atom_site_label
_atom_site_type_symbol
_atom_site_description
_atom_site_fract_x
_atom_site_fract_y
_atom_site_fract_z
_atom_type_partial_charge
O1    O     O_R   0.579510 0.506290 0.439030 -0.568238
O2    O     O_R   0.420490 0.006290 0.560970 -0.571062
O3    O     O_R   0.412540 0.170090 0.405290 -0.568677
O4    O     O_R   0.587460 0.670090 0.594710 -0.574864
C1    C     C_R   0.387061 0.346484 0.380536 0.891129
C2    C     C_R   0.614010 0.845566 0.618619 0.894171
O5    O     O_R   0.578390 0.176230 0.429330 -0.579199
O6    O     O_R   0.421610 0.676230 0.570670 -0.572308
O7    O     O_R   0.587530 0.011250 0.585190 -0.584698
O8    O     O_R   0.412470 0.511250 0.414810 -0.578539
C3    C     C_R   0.601981 0.345381 0.410881 1.022522
C4    C     C_R   0.396709 0.844989 0.587919 1.034997
O9    O     O_3   0.502800 0.340940 0.551110 -0.275179
O10   O     O_3   0.497200 0.840940 0.448890 -0.277188
V1    V     V_3+5 0.499480 0.064020 0.490520 1.255409
V2    V     V_3+5 0.500520 0.564020 0.509480 1.257914
C5    C     C_R   0.169436 0.913618 0.864174 -0.198577
C6    C     C_R   0.830315 0.412762 0.135559 -0.231779
C7    C     C_R   0.331780 0.852395 0.636795 -0.299719
C8    C     C_R   0.667073 0.354880 0.362737 -0.298668
C9    C     C_R   0.191624 0.895512 0.648028 -0.210894
C10   C     C_R   0.806907 0.402345 0.352309 -0.194310
C11   C     C_R   0.249435 0.855281 0.600110 0.400754
C12   C     C_R   0.748809 0.367078 0.400336 0.399900
C13   C     C_R   0.352175 0.855028 0.721718 -0.213157
C14   C     C_R   0.647186 0.354890 0.277816 -0.220482
C15   C     C_R   0.292262 0.869882 0.770369 0.025150
C16   C     C_R   0.706900 0.376029 0.229270 0.000948
C17   C     C_R   0.212070 0.906459 0.732671 0.051561
C18   C     C_R   0.787434 0.407069 0.267338 0.074921
C19   C     C_R   0.152676 0.947623 0.779669 0.012601
C20   C     C_R   0.848069 0.436995 0.220558 0.000052
C21   C     C_R   0.248494 0.865719 0.901545 -0.152456
C22   C     C_R   0.750107 0.375716 0.097833 -0.099510
C23   C     C_R   0.310598 0.851584 0.855495 0.331389
C24   C     C_R   0.688303 0.363868 0.143898 0.352314
H1    H     H_    0.129231 0.907869 0.619137 0.209398
H2    H     H_    0.868604 0.420211 0.382229 0.190766
H3    H     H_    0.415028 0.844223 0.749290 0.161270
H4    H     H_    0.584770 0.335610 0.250356 0.161343
C25   C     C_3   0.769240 0.699174 0.811657 -0.099621
C26   C     C_3   0.245021 0.229695 0.175043 -0.093997
H5    H     H_    0.745516 0.693451 0.869171 0.128358
H6    H     H_    0.268759 0.265707 0.119265 0.131634
C27   C     C_3   0.695036 0.682824 0.742701 -0.322932
C28   C     C_3   0.319252 0.214101 0.244334 -0.329483
H7    H     H_    0.639950 0.665066 0.769392 0.154505
H8    H     H_    0.374913 0.236684 0.219097 0.149997
H9    H     H_    0.698351 0.552670 0.706334 0.208610
H10   H     H_    0.325498 0.068651 0.270090 0.205198
C29   C     C_3   0.840158 0.938991 0.725078 0.158951
C30   C     C_3   0.157627 0.378289 0.275840 0.137124
C31   C     C_3   0.744909 0.043902 0.818772 -0.482434
C32   C     C_3   0.242551 0.575672 0.195043 -0.472816
C33   C     C_3   0.813426 0.900089 0.810089 -0.060388
C34   C     C_3   0.186471 0.398632 0.190203 -0.070840
H11   H     H_    0.767381 0.191140 0.826490 0.177699
H12   H     H_    0.208365 0.706535 0.199966 0.193210
H13   H     H_    0.721304 0.013260 0.874935 0.187862
H14   H     H_    0.266552 0.591214 0.138119 0.176925
C35   C     C_3   0.685733 0.862229 0.688817 -0.123922
C36   C     C_3   0.315478 0.364600 0.310336 -0.120416
C37   C     C_3   0.764693 0.898798 0.655131 0.120040
C38   C     C_3   0.235732 0.347445 0.343648 0.136445
C39   C     C_3   0.674446 0.032241 0.745138 -0.370370
C40   C     C_3   0.313857 0.561646 0.267493 -0.372925
H15   H     H_    0.616645 0.017241 0.767136 0.183459
H16   H     H_    0.371318 0.584873 0.245696 0.182895
H17   H     H_    0.670987 0.168096 0.710911 0.189664
H18   H     H_    0.308348 0.677996 0.310737 0.227452
H19   H     H_    0.753306 0.028772 0.617687 0.137044
H20   H     H_    0.237233 0.464223 0.387814 0.131160
O11   O     O_R   0.087500 0.266000 0.085220 -0.570489
O12   O     O_R   0.912500 0.766000 0.914780 -0.587518
O13   O     O_R   0.921600 0.589950 0.070670 -0.599703
O14   O     O_R   0.078400 0.089950 0.929330 -0.616124
C41   C     C_R   0.894691 0.421872 0.085686 0.955749
C42   C     C_R   0.105118 0.922001 0.914070 1.003753
O15   O     O_R   0.087460 0.596020 0.094710 -0.604739
O16   O     O_R   0.912540 0.096020 0.905290 -0.614043
O17   O     O_R   0.079520 0.760970 0.939020 -0.559912
O18   O     O_R   0.920480 0.260970 0.060980 -0.563364
C43   C     C_R   0.116001 0.424385 0.118235 0.949149
C44   C     C_R   0.883277 0.924942 0.882555 0.957220
O19   O     O_3   0.997180 0.425140 0.948910 -0.281019
O20   O     O_3   0.002820 0.925140 0.051090 -0.256259
V3    V     V_3+5 0.000520 0.702080 0.009480 1.195505
V4    V     V_3+5 0.999480 0.202080 0.990520 1.184054
N1    N     N_3   0.076901 0.026056 0.740124 -0.145978
H21   H     H_    0.040881 0.066501 0.781148 0.146301
H22   H     H_    0.089114 0.152611 0.712212 0.141462
N2    N     N_3   0.926986 0.491479 0.261086 -0.189694
H23   H     H_    0.963029 0.538448 0.221126 0.137909
H24   H     H_    0.953947 0.371267 0.290482 0.191789
N3    N     N_R   0.910866 0.825047 0.712549 0.241019
O21   O     O_R   0.961633 0.755231 0.772863 -0.450809
O22   O     O_R   0.934533 0.835472 0.643262 -0.313235
N4    N     N_R   0.098428 0.223662 0.279039 0.231140
O23   O     O_R   0.045442 0.179942 0.215823 -0.435859
O24   O     O_R   0.079957 0.179372 0.348540 -0.320150
N5    N     N_R   0.778615 0.746401 0.599861 0.273229
O25   O     O_R   0.769972 0.780243 0.522761 -0.348721
O26   O     O_R   0.803608 0.580161 0.627143 -0.341604
N6    N     N_R   0.235247 0.172097 0.390423 0.280360
O27   O     O_R   0.241599 0.182483 0.468445 -0.359351
O28   O     O_R   0.229921 0.006728 0.355648 -0.371320
N7    N     N_3   0.863838 0.140354 0.722042 -0.221983
H25   H     H_    0.892412 0.162959 0.672825 0.206868
H26   H     H_    0.813530 0.228976 0.711458 0.134810
N8    N     N_3   0.117320 0.556562 0.292402 -0.223951
H27   H     H_    0.090867 0.538388 0.343365 0.182261
H28   H     H_    0.158247 0.666844 0.308002 0.175900
N9    N     N_3   0.265074 0.830889 0.986949 -0.225927
H29   H     H_    0.305271 0.933742 0.014618 0.164421
H30   H     H_    0.292044 0.697294 0.997333 0.150491
N10   N     N_3   0.729613 0.357399 0.011670 -0.154214
H31   H     H_    0.747224 0.481064 0.985385 0.092097
H32   H     H_    0.761793 0.243174 0.993898 0.112735
N11   N     N_R   0.390812 0.805740 0.895139 0.228349
O29   O     O_R   0.424132 0.647351 0.878875 -0.372738
O30   O     O_R   0.429563 0.918498 0.949794 -0.339909
N12   N     N_R   0.606852 0.337095 0.103166 0.240319
O31   O     O_R   0.552440 0.463943 0.109705 -0.371664
O32   O     O_R   0.588884 0.197716 0.052516 -0.328970
N13   N     N_R   0.222805 0.810230 0.515878 0.263255
O33   O     O_R   0.271827 0.736842 0.473303 -0.411759
O34   O     O_R   0.147196 0.824753 0.482979 -0.317288
N14   N     N_R   0.774971 0.336158 0.485975 0.260867
O35   O     O_R   0.723757 0.311717 0.533930 -0.412900
O36   O     O_R   0.851115 0.316720 0.515866 -0.331916
N15   N     N_3   0.818665 0.528131 0.811046 -0.216017
H33   H     H_    0.860151 0.537435 0.773114 0.228543
H34   H     H_    0.845715 0.485950 0.869123 0.143537
N16   N     N_3   0.208349 0.041832 0.161060 -0.211017
H35   H     H_    0.164931 0.017500 0.196015 0.211376
H36   H     H_    0.184478 0.020726 0.100010 0.128583

loop_
_geom_bond_atom_site_label_1
_geom_bond_atom_site_label_2
_geom_bond_distance
_ccdc_geom_bond_type
C40   H16   1.112940 S    
N5    O25   1.301551 A    
C15   C17   1.412551 A    
C25   H5    1.115068 S    
C24   N12   1.436229 S    
N3    O21   1.300055 A    
O1    C3    1.311533 A    
O16   C44   1.333749 A    
O2    C4    1.314006 A    
N14   O35   1.299879 A    
C2    O7    1.335753 A    
O15   V3    2.001280 S    
C31   H13   1.113092 S    
C32   H14   1.112876 S    
C39   H17   1.112527 S    
O5    C3    1.312382 A    
C5    C21   1.410904 A    
C28   C36   1.546869 S    
C2    C35   1.536827 S    
O14   C42   1.308322 A    
O20   V4    2.196245 S    
C39   H15   1.112910 S    
C22   N10   1.435126 S    
C10   H2    1.081115 S    
N10   H31   1.045037 S    
C26   C28   1.554338 S    
C27   H7    1.113899 S    
C27   C35   1.545864 S    
C35   C37   1.566163 S    
N8    H27   1.045973 S    
C25   C33   1.604670 S    
C36   C38   1.558490 S    
N15   H34   1.043879 S    
C26   C34   1.597660 S    
C23   N11   1.435275 S    
C8    C12   1.415290 A    
C19   N1    1.441538 S    
N7    H25   1.045443 S    
C27   H9    1.110379 S    
O12   V3    2.023198 S    
N1    H22   1.045830 S    
C31   C39   1.558007 S    
O14   V4    1.992981 S    
C22   C24   1.414316 A    
C37   N5    1.468548 S    
C11   N13   1.443811 S    
C31   C33   1.565462 S    
O6    V2    1.993075 S    
C17   C19   1.418376 A    
N7    H26   1.043476 S    
C26   H6    1.116299 S    
C29   N7    1.478265 S    
N6    O28   1.300536 A    
N6    O27   1.300911 A    
C28   H8    1.113795 S    
N11   O30   1.300772 A    
C32   C34   1.562097 S    
C3    C8    1.484162 S    
C36   C40   1.561534 S    
O19   V3    2.198893 S    
C29   C37   1.597538 S    
O4    C2    1.352703 A    
C30   C38   1.595524 S    
C25   N15   1.466683 S    
C31   H11   1.105181 S    
O20   V3    1.719110 S    
N16   H36   1.044703 S    
O5    V1    1.994103 S    
C15   C23   1.416034 A    
C9    C17   1.406441 A    
O4    V2    2.004963 S    
C7    C11   1.417777 A    
O11   V4    2.025491 S    
O13   C41   1.310347 A    
C30   N8    1.479106 S    
O6    C4    1.311194 A    
N2    H24   1.041804 S    
O1    V2    1.984983 S    
O2    V1    1.985426 S    
C6    C22   1.414820 A    
O17   V3    1.987378 S    
O13   V3    1.994008 S    
C37   H19   1.107516 S    
N4    O24   1.303257 A    
C9    C11   1.406235 A    
N13   O33   1.298775 A    
C5    C19   1.419412 A    
C10   C12   1.405137 A    
C6    C20   1.418615 A    
N12   O32   1.301159 A    
N15   H33   1.034258 S    
N1    H21   1.041253 S    
O3    V1    2.001307 S    
C34   C43   1.547601 S    
C12   N14   1.445419 S    
N9    H29   1.045068 S    
C32   H12   1.098765 S    
O19   V4    1.717236 S    
C38   N6    1.465085 S    
C10   C18   1.408989 A    
C21   N9    1.434976 S    
O12   C44   1.300410 A    
O3    C1    1.354557 A    
N14   O36   1.302092 A    
N11   O29   1.301167 A    
N3    O22   1.303242 A    
N16   H35   1.036599 S    
C32   C40   1.554478 S    
C13   C15   1.419325 A    
C28   H10   1.109477 S    
C14   C16   1.419437 A    
C26   N16   1.463947 S    
C5    C42   1.493105 S    
C16   C18   1.413985 A    
C33   C44   1.546684 S    
C1    O8    1.333670 A    
O16   V4    2.004938 S    
O8    V2    2.009257 S    
C13   H3    1.082765 S    
C18   C20   1.419406 A    
C42   O17   1.310944 A    
C14   H4    1.082013 S    
C40   H18   1.112286 S    
C8    C14   1.408179 A    
C41   O18   1.309317 A    
C6    C41   1.493959 S    
O18   V4    1.986921 S    
C4    C7    1.489601 S    
C30   N4    1.489186 S    
N2    H23   1.041626 S    
C21   C23   1.419309 A    
N10   H32   1.045167 S    
C1    C36   1.535478 S    
C29   C33   1.601919 S    
C38   H20   1.107087 S    
O7    V1    2.007349 S    
C7    C13   1.408853 A    
N8    H28   1.043453 S    
C20   N2    1.437783 S    
O15   C43   1.333734 A    
C35   C39   1.561811 S    
C9    H1    1.082341 S    
C16   C24   1.417352 A    
N5    O26   1.298924 A    
N4    O23   1.298407 A    
O9    V2    1.717519 S    
N13   O34   1.302160 A    
C25   C27   1.551620 S    
O10   V1    1.719393 S    
N12   O31   1.301190 A    
O11   C43   1.301063 A    
C30   C34   1.611333 S    
C29   N3    1.486735 S    
N9    H30   1.045679 S    
