data_mof_unit_21587.cif
_audit_creation_date              2013-03-05T15:54:45-0500
_audit_creation_method            fapswitch 2.2
_symmetry_space_group_name_H-M    P1
_symmetry_Int_Tables_number       1
_space_group_crystal_system       triclinic
_cell_length_a                    12.364121
_cell_length_b                    13.14131
_cell_length_c                    14.995818
_cell_angle_alpha                 76.626985
_cell_angle_beta                  100.89081
_cell_angle_gamma                 116.991054
_cell_volume                      2102.33652902

loop_
_atom_site_label
_atom_site_type_symbol
_atom_site_description
_atom_site_fract_x
_atom_site_fract_y
_atom_site_fract_z
_atom_type_partial_charge
O1    O     O_R   0.972510 0.318130 0.526570 -0.523223
O2    O     O_R   0.806530 0.359650 0.490890 -0.628322
C1    C     C_R   0.854748 0.285946 0.515348 0.808604
O3    O     O_R   0.082980 0.479210 0.647590 -0.572321
O4    O     O_R   0.917000 0.520730 0.611900 -0.589750
C2    C     C_R   0.998463 0.498225 0.670612 0.744894
Cu1   Cu    Cu3+1 0.098270 0.475420 0.521130 1.050562
Cu2   Cu    Cu3+1 0.901730 0.524580 0.478870 1.028916
O5    O     O_R   0.193470 0.640350 0.509110 -0.520666
O6    O     O_R   0.027490 0.681870 0.473430 -0.493076
O7    O     O_R   0.083000 0.479270 0.388100 -0.538574
O8    O     O_R   0.917020 0.520790 0.352410 -0.536848
C3    C     C_R   0.144827 0.714356 0.491188 0.838804
C4    C     C_R   0.000987 0.501150 0.329378 0.789698
C5    C     C_R   0.086087 0.603569 0.179111 0.445229
C6    C     C_R   0.003219 0.505579 0.232537 -0.163935
C7    C     C_R   0.917613 0.410601 0.193777 -0.168055
C8    C     C_R   0.912087 0.408330 0.100554 -0.000802
C9    C     C_R   0.996803 0.503763 0.045628 -0.057462
C10   C     C_R   0.084355 0.602660 0.084599 -0.091101
C11   C     C_R   0.825460 0.310491 0.062524 0.227925
C12   C     C_R   0.823917 0.305584 0.969970 0.253452
C13   C     C_R   0.907211 0.400637 0.913174 -0.044041
C14   C     C_R   0.994315 0.499852 0.952001 -0.057070
C15   C     C_R   0.079711 0.595006 0.897258 -0.016981
C16   C     C_R   0.162897 0.694996 0.934597 0.333328
C17   C     C_R   0.166737 0.698059 0.027554 0.314362
C18   C     C_R   0.905623 0.399793 0.818649 0.412468
C19   C     C_R   0.994914 0.493963 0.767131 -0.130285
C20   C     C_R   0.081890 0.587883 0.806425 -0.204204
H1    H     H_    0.856243 0.337567 0.238175 0.180641
H2    H     H_    0.150553 0.655906 0.764156 0.161922
C21   C     C_R   0.280636 0.036693 0.405945 0.394784
C22   C     C_R   0.226296 0.839505 0.487409 -0.355799
C23   C     C_R   0.801556 0.104065 0.628655 0.257474
C24   C     C_R   0.707527 0.012430 0.678676 0.306197
C25   C     C_R   0.585102 0.987275 0.646435 0.331811
C26   C     C_R   0.555389 0.030211 0.553412 -0.045529
C27   C     C_R   0.649219 0.122221 0.504047 -0.114398
C28   C     C_R   0.434509 0.988869 0.508894 0.052143
C29   C     C_R   0.404714 0.061101 0.432197 -0.224971
C30   C     C_R   0.499239 0.151697 0.382590 0.322169
C31   C     C_R   0.619580 0.175550 0.416253 -0.110013
C32   C     C_R   0.345735 0.874477 0.532676 0.416822
C33   C     C_R   0.191094 0.925108 0.432793 0.278597
C34   C     C_R   0.770779 0.164025 0.544552 -0.137912
H3    H     H_    0.690605 0.238477 0.373530 0.175292
C35   C     C_R   0.333676 0.312001 0.641820 0.223738
H4    H     H_    0.156114 0.297130 0.653903 0.217211
H5    H     H_    0.539215 0.277113 0.670586 0.225487
N1    N     N_R   0.246280 0.438190 0.553160 -0.265329
C36   C     C_R   0.755137 0.638216 0.368750 0.473354
C37   C     C_R   0.646193 0.648191 0.329405 0.280987
C38   C     C_R   0.538348 0.576082 0.370324 0.444808
C39   C     C_R   0.542659 0.514665 0.461192 -0.180902
C40   C     C_R   0.650520 0.498908 0.494085 0.158742
C41   C     C_R   0.441839 0.462350 0.517480 -0.118336
C42   C     C_R   0.437919 0.372563 0.592061 -0.001996
C43   C     C_R   0.538849 0.346562 0.615522 -0.154324
C44   C     C_R   0.644704 0.412728 0.571223 -0.096024
C45   C     C_R   0.348948 0.501470 0.506083 0.440543
C46   C     C_R   0.237142 0.344224 0.617736 -0.016331
N2    N     N_R   0.754320 0.561190 0.447410 -0.225812
H6    H     H_    0.718752 0.390569 0.597987 0.193306
O9    O     O_3   0.169080 0.699725 0.217467 -0.618063
H7    H     H_    0.143108 0.700035 0.275836 0.338666
N3    N     N_R   0.475787 0.210955 0.293072 0.144690
O10   O     O_R   0.544886 0.320497 0.268670 -0.331197
O11   O     O_R   0.397341 0.152700 0.231499 -0.190043
O12   O     O_3   0.243570 0.120476 0.357839 -0.612599
H8    H     H_    0.306830 0.197101 0.370946 0.330277
O13   O     O_3   0.380527 0.795040 0.592190 -0.637304
H9    H     H_    0.313260 0.743949 0.631431 0.338449
O14   O     O_3   0.921882 0.146131 0.665649 -0.699588
H10   H     H_    0.925039 0.131566 0.733681 0.359493
N4    N     N_R   0.494946 0.934035 0.711816 0.182052
O15   O     O_R   0.414646 0.973598 0.708262 -0.321195
O16   O     O_R   0.497304 0.851606 0.778650 -0.191908
O17   O     O_3   0.732616 0.953261 0.762646 -0.607799
H11   H     H_    0.810523 0.949157 0.762029 0.354916
N5    N     N_R   0.324085 0.218817 0.716909 0.141931
O18   O     O_R   0.406187 0.236251 0.787300 -0.249389
O19   O     O_R   0.222324 0.125143 0.723667 -0.283927
N6    N     N_R   0.373752 0.616929 0.458887 0.167713
O20   O     O_R   0.308221 0.635177 0.383848 -0.275284
O21   O     O_R   0.473296 0.703239 0.483602 -0.296955
O22   O     O_3   0.860415 0.695977 0.324994 -0.634370
H12   H     H_    0.839035 0.709933 0.257684 0.336086
O23   O     O_3   0.430684 0.558535 0.315259 -0.577660
H13   H     H_    0.367443 0.481280 0.338571 0.322095
O24   O     O_3   0.639972 0.721773 0.248423 -0.589997
H14   H     H_    0.719575 0.790689 0.244124 0.361918
N7    N     N_R   0.738956 0.213990 0.118125 0.144679
O25   O     O_R   0.737401 0.112032 0.130591 -0.230892
O26   O     O_R   0.655195 0.225965 0.149841 -0.253102
N8    N     N_R   0.737488 0.202137 0.935399 0.211372
O27   O     O_R   0.773365 0.127180 0.924420 -0.224169
O28   O     O_R   0.621426 0.175013 0.928015 -0.182800
O29   O     O_3   0.816289 0.307702 0.778498 -0.691351
H15   H     H_    0.837727 0.307737 0.718263 0.301197
O30   O     O_3   0.241429 0.792920 0.881910 -0.589385
H16   H     H_    0.195932 0.807021 0.822164 0.351374
N9    N     N_R   0.252353 0.802218 0.061330 0.228075
O31   O     O_R   0.216132 0.878764 0.067880 -0.220204
O32   O     O_R   0.368556 0.830208 0.068118 -0.157041
N10   N     N_R   0.065462 0.900828 0.404499 0.192037
O33   O     O_R   0.990834 0.869803 0.466635 -0.306062
O34   O     O_R   0.032035 0.932820 0.319171 -0.234614

loop_
_geom_bond_atom_site_label_1
_geom_bond_atom_site_label_2
_geom_bond_distance
_ccdc_geom_bond_type
C20   H2    1.083497 S    
C39   C40   1.421107 A    
C23   O14   1.382080 S    
N7    O25   1.301025 A    
C8    C11   1.408509 A    
C21   C33   1.399927 A    
C29   C30   1.411580 A    
C23   C24   1.416085 A    
N1    C45   1.382091 A    
O22   H12   0.989890 S    
N5    O18   1.301158 A    
Cu1   Cu2   2.716202 S    
C37   C38   1.394894 A    
C33   N10   1.434693 S    
Cu1   O7    1.958944 S    
C16   C17   1.395072 A    
O30   H16   0.990377 S    
C11   N7    1.436667 S    
H5    C43   1.080976 S    
C18   C19   1.409621 A    
N6    O21   1.301373 A    
C16   O30   1.381461 S    
O4    C2    1.300749 A    
O7    C4    1.302486 A    
N10   O33   1.301350 A    
C5    C6    1.408974 A    
C5    O9    1.384458 S    
C35   N5    1.436083 S    
C8    C9    1.415675 A    
O5    C3    1.314804 A    
N6    O20   1.298937 A    
C9    C10   1.427473 A    
C6    C7    1.385622 A    
N8    O28   1.300952 A    
C37   O24   1.380102 S    
C13   C14   1.427745 A    
O6    C3    1.304732 A    
C32   O13   1.379438 S    
O12   H8    0.991411 S    
C19   C20   1.385348 A    
C43   C44   1.392365 A    
N7    O26   1.300826 A    
C11   C12   1.400407 A    
N1    C46   1.355314 A    
O3    Cu1   1.955032 S    
N5    O19   1.301260 A    
C5    C10   1.416132 A    
O14   H10   0.990136 S    
N3    O10   1.301598 A    
C22   C32   1.415019 A    
C14   C15   1.416542 A    
C38   O23   1.378819 S    
O3    C2    1.298797 A    
O24   H14   0.990423 S    
C27   C31   1.408103 A    
C42   C43   1.401191 A    
C36   N2    1.363446 A    
C40   C44   1.406178 A    
O1    C1    1.307116 A    
C25   C26   1.424651 A    
C35   C46   1.399807 A    
O29   H15   0.988115 S    
Cu2   O8    1.955032 S    
N8    O27   1.301300 A    
C7    C8    1.393265 A    
C40   N2    1.388477 A    
N9    O32   1.300863 A    
C22   C33   1.417476 A    
C13   C18   1.416439 A    
N4    O15   1.301774 A    
C35   C42   1.417391 A    
C21   O12   1.381430 S    
C27   C34   1.410526 A    
C18   O29   1.385464 S    
C28   C29   1.418392 A    
C25   N4    1.442595 S    
O8    C4    1.297557 A    
C39   C41   1.445785 A    
C30   N3    1.437641 S    
C7    H1    1.083724 S    
C4    C6    1.444870 S    
C30   C31   1.390329 A    
C36   C37   1.415585 A    
C15   C20   1.392831 A    
Cu1   O5    1.923364 S    
C38   C39   1.419121 A    
C24   C25   1.406223 A    
H4    C46   1.080787 S    
O1    Cu1   1.936353 S    
C12   N8    1.434150 S    
C36   O22   1.377155 S    
O2    Cu2   1.923365 S    
N4    O16   1.301583 A    
O13   H9    0.992007 S    
C24   O17   1.380155 S    
O4    Cu2   1.958946 S    
C45   N6    1.435278 S    
C41   C45   1.426076 A    
C10   C17   1.419518 A    
C1    C34   1.474467 S    
C44   H6    1.064511 S    
C21   C29   1.412414 A    
O2    C1    1.305852 A    
C15   C16   1.412078 A    
Cu1   N1    2.047160 S    
C3    C22   1.482351 S    
C26   C28   1.424181 A    
C41   C42   1.415462 A    
C26   C27   1.411764 A    
N10   O34   1.301491 A    
C17   N9    1.433018 S    
C9    C14   1.410841 A    
Cu2   N2    2.035165 S    
O17   H11   0.990760 S    
C28   C32   1.412073 A    
C2    C19   1.443696 S    
Cu2   O6    1.936352 S    
O9    H7    0.989098 S    
N9    O31   1.301273 A    
C12   C13   1.420547 A    
N3    O11   1.301517 A    
O23   H13   0.991391 S    
C23   C34   1.409756 A    
C31   H3    1.083415 S    
