data_mof_unit_9807.cif
_audit_creation_date              2013-03-05T15:49:17-0500
_audit_creation_method            fapswitch 2.2
_symmetry_space_group_name_H-M    P1
_symmetry_Int_Tables_number       1
_space_group_crystal_system       triclinic
_cell_length_a                    20.654517
_cell_length_b                    22.767234
_cell_length_c                    6.936033
_cell_angle_alpha                 89.99997
_cell_angle_beta                  86.893311
_cell_angle_gamma                 90.000052
_cell_volume                      3256.849838

loop_
_atom_site_label
_atom_site_type_symbol
_atom_site_description
_atom_site_fract_x
_atom_site_fract_y
_atom_site_fract_z
_atom_type_partial_charge
O1    O     O_R   0.387100 0.552640 0.378490 -0.585869
O2    O     O_R   0.612900 0.052640 0.621510 -0.585846
O3    O     O_R   0.249610 0.559600 0.072250 -0.604617
O4    O     O_R   0.750390 0.059600 0.927750 -0.604653
O5    O     O_R   0.249120 0.447360 0.902040 -0.601973
O6    O     O_R   0.750880 0.947360 0.097960 -0.601969
C1    C     C_R   0.227773 0.574146 0.244488 0.931443
C2    C     C_R   0.772227 0.074146 0.755512 0.931402
O7    O     O_R   0.386610 0.559560 0.048860 -0.586123
O8    O     O_R   0.613390 0.059560 0.951140 -0.586152
O9    O     O_R   0.387100 0.447320 0.878470 -0.588605
O10   O     O_R   0.612900 0.947320 0.121530 -0.588600
C3    C     C_R   0.407829 0.574818 0.214230 0.927557
C4    C     C_R   0.592171 0.074819 0.785768 0.927546
O11   O     O_R   0.249120 0.552680 0.402050 -0.597921
O12   O     O_R   0.750880 0.052680 0.597950 -0.597915
O13   O     O_3   0.318110 0.463180 0.223790 -0.274606
O14   O     O_3   0.681890 0.963180 0.776210 -0.274597
V1    V     V_3+5 0.318110 0.506830 0.948930 1.172264
V2    V     V_3+5 0.681890 0.006830 0.051070 1.172203
O15   O     O_R   0.386610 0.440400 0.548840 -0.592870
O16   O     O_R   0.613390 0.940400 0.451160 -0.592866
C5    C     C_R   0.407868 0.425121 0.714213 0.918390
C6    C     C_R   0.592132 0.925122 0.285789 0.918392
O17   O     O_R   0.249610 0.440440 0.572240 -0.592841
O18   O     O_R   0.750390 0.940440 0.427760 -0.592840
C7    C     C_R   0.227790 0.425723 0.744393 0.923027
C8    C     C_R   0.772209 0.925722 0.255607 0.923034
V3    V     V_3+5 0.318110 0.493170 0.448930 1.171047
V4    V     V_3+5 0.681890 0.993170 0.551070 1.171035
O19   O     O_3   0.318110 0.536820 0.723940 -0.267016
O20   O     O_3   0.681890 0.036820 0.276060 -0.267048
C9    C     C_R   0.174726 0.381893 0.762560 -0.153861
C10   C     C_R   0.825271 0.881891 0.237440 -0.153858
C11   C     C_R   0.159770 0.344537 0.607391 0.036163
C12   C     C_R   0.840225 0.844534 0.392607 0.036160
C13   C     C_R   0.107355 0.305474 0.630608 -0.188759
C14   C     C_R   0.892637 0.805468 0.369387 -0.188754
C15   C     C_R   0.070036 0.302567 0.805619 0.227744
C16   C     C_R   0.929956 0.802560 0.194376 0.227729
C17   C     C_R   0.086629 0.337845 0.960334 -0.169437
C18   C     C_R   0.913366 0.837840 0.039663 -0.169436
C19   C     C_R   0.137987 0.377364 0.938801 -0.193401
C20   C     C_R   0.862010 0.877362 0.061198 -0.193412
C21   C     C_R   0.893027 0.189831 0.889871 -0.097829
C22   C     C_R   0.106957 0.689815 0.110115 -0.097942
C23   C     C_R   0.843792 0.147980 0.904197 -0.149402
C24   C     C_R   0.156194 0.647967 0.095793 -0.149564
C25   C     C_R   0.853790 0.133204 0.557979 -0.109872
C26   C     C_R   0.146219 0.633213 0.442022 -0.109883
C27   C     C_R   0.903251 0.174974 0.543772 -0.132658
C28   C     C_R   0.096754 0.674980 0.456226 -0.132625
C29   C     C_R   0.924123 0.202971 0.709568 0.227187
C30   C     C_R   0.075870 0.702965 0.290424 0.227088
C31   C     C_2   0.014924 0.261517 0.833065 -0.222919
C32   C     C_2   0.985066 0.761508 0.166929 -0.222902
C33   C     C_2   0.978101 0.245635 0.687563 -0.205711
C34   C     C_2   0.021890 0.745627 0.312428 -0.205678
C35   C     C_R   0.824015 0.118822 0.738779 -0.126272
C36   C     C_R   0.175983 0.618821 0.261219 -0.126602
H1    H     H_    0.821059 0.138734 0.045320 0.141086
H2    H     H_    0.178919 0.638712 0.954665 0.141208
H3    H     H_    0.839332 0.111894 0.427498 0.126021
H4    H     H_    0.160686 0.611913 0.572509 0.126097
H5    H     H_    0.988776 0.263431 0.544088 0.131936
H6    H     H_    0.011217 0.763425 0.455900 0.131936
H7    H     H_    0.059043 0.335513 0.097554 0.116651
H8    H     H_    0.940952 0.835507 0.902444 0.116651
H9    H     H_    0.905666 0.212001 0.020351 0.106952
H10   H     H_    0.094308 0.711975 0.979627 0.107017
H11   H     H_    0.148421 0.404974 0.060451 0.150269
H12   H     H_    0.851577 0.904973 0.939550 0.150265
H13   H     H_    0.004644 0.244816 0.977837 0.123205
H14   H     H_    0.995345 0.744807 0.022158 0.123213
H15   H     H_    0.097015 0.276255 0.513095 0.104474
H16   H     H_    0.902976 0.776248 0.486898 0.104479
H17   H     H_    0.925949 0.184826 0.402963 0.094060
H18   H     H_    0.074064 0.684840 0.597038 0.094101
C37   C     C_R   0.576417 0.361963 0.660618 -0.072725
C38   C     C_R   0.423596 0.861947 0.339675 -0.072939
H19   H     H_    0.533998 0.447236 0.633215 0.114082
H20   H     H_    0.466006 0.947231 0.366868 0.114063
H21   H     H_    0.623962 0.379232 0.620054 0.166724
H22   H     H_    0.376047 0.879209 0.380250 0.166636
C39   C     C_R   0.461832 0.382186 0.712905 -0.095528
C40   C     C_R   0.538168 0.882185 0.287113 -0.095537
C41   C     C_R   0.475267 0.095763 0.823820 -0.162891
C42   C     C_R   0.524721 0.595777 0.175701 -0.162869
C43   C     C_R   0.422147 0.133318 0.832426 -0.089979
C44   C     C_R   0.577836 0.633339 0.166900 -0.089969
C45   C     C_R   0.430300 0.193608 0.805880 -0.165934
C46   C     C_R   0.569691 0.693621 0.193656 -0.165928
C47   C     C_R   0.492619 0.218383 0.769370 0.097406
C48   C     C_R   0.507385 0.718380 0.230608 0.097366
C49   C     C_R   0.547060 0.179302 0.759187 0.052745
C50   C     C_R   0.452952 0.679290 0.241035 0.052784
C51   C     C_R   0.502438 0.280393 0.741319 0.067247
C52   C     C_R   0.497572 0.780386 0.258801 0.067271
C53   C     C_R   0.566722 0.301759 0.701514 -0.019505
C54   C     C_R   0.433300 0.801738 0.298902 -0.019553
C55   C     C_R   0.620012 0.262521 0.697942 0.330392
C56   C     C_R   0.380026 0.762486 0.302897 0.330647
C57   C     C_R   0.609471 0.202365 0.724051 -0.324484
C58   C     C_R   0.390555 0.702336 0.276663 -0.324381
C59   C     C_R   0.450609 0.322122 0.749687 -0.204866
C60   C     C_R   0.549393 0.822123 0.250295 -0.204851
C61   C     C_R   0.524760 0.401360 0.666054 -0.182228
C62   C     C_R   0.475244 0.901353 0.334063 -0.182149
C63   C     C_R   0.537909 0.117671 0.787168 -0.143049
C64   C     C_R   0.462094 0.617669 0.212800 -0.143066
H23   H     H_    0.400962 0.309503 0.782304 0.089033
H24   H     H_    0.599036 0.809510 0.217584 0.089036
H25   H     H_    0.467465 0.049130 0.846290 0.112398
H26   H     H_    0.532515 0.549153 0.153014 0.112427
H27   H     H_    0.386644 0.219513 0.814512 0.107483
H28   H     H_    0.613339 0.719535 0.184789 0.107492
H29   H     H_    0.373952 0.115505 0.860516 0.120964
H30   H     H_    0.626019 0.615538 0.138458 0.120978
H31   H     H_    0.651274 0.173576 0.720115 0.154053
H32   H     H_    0.348750 0.673546 0.280919 0.153906
N1    N     N_3   0.198502 0.345147 0.428739 -0.189591
H33   H     H_    0.177921 0.318487 0.325639 0.098305
H34   H     H_    0.243391 0.326540 0.455830 0.102865
N2    N     N_3   0.801494 0.845146 0.571262 -0.189593
H35   H     H_    0.822079 0.818490 0.674368 0.098308
H36   H     H_    0.756607 0.826535 0.544182 0.102873
N3    N     N_R   0.685785 0.282989 0.672505 0.235910
O21   O     O_R   0.706481 0.324059 0.784233 -0.394576
O22   O     O_R   0.727910 0.253114 0.566136 -0.391053
N4    N     N_R   0.314272 0.782933 0.329045 0.235799
O23   O     O_R   0.293323 0.823773 0.216887 -0.394374
O24   O     O_R   0.272393 0.753259 0.436902 -0.390902

loop_
_geom_bond_atom_site_label_1
_geom_bond_atom_site_label_2
_geom_bond_distance
_ccdc_geom_bond_type
C4    C63   1.485558 S    
C37   H21   1.080819 S    
H19   C61   1.083740 S    
C25   H3    1.083014 S    
O6    C8    1.297920 A    
C26   H4    1.083012 S    
O4    C2    1.296873 A    
V1    O19   1.703372 S    
C27   H17   1.083660 S    
C17   H7    1.083762 S    
C60   H24   1.077069 S    
C7    C9    1.482541 S    
O9    V1    2.007376 S    
C44   H30   1.082726 S    
C37   C53   1.411802 A    
C12   N2    1.438121 S    
O7    V1    2.007408 S    
O3    C1    1.296873 A    
C2    C35   1.476079 S    
V2    O20   1.703373 S    
C9    C11   1.418846 A    
C39   C59   1.407992 A    
C48   C52   1.438033 A    
O12   V4    2.005529 S    
C45   H27   1.076394 S    
O13   V3    1.704327 S    
O7    C3    1.297264 A    
C13   H15   1.082302 S    
O13   V1    2.149912 S    
O5    C7    1.297922 A    
C44   C46   1.393923 A    
C34   H6    1.085953 S    
C15   C31   1.477154 S    
O8    V2    2.007411 S    
C25   C27   1.395288 A    
C26   C28   1.395291 A    
O3    V1    2.011377 S    
O14   V4    1.704325 S    
H20   C62   1.083735 S    
C43   C45   1.393927 A    
C10   C12   1.418844 A    
C38   H22   1.080847 S    
C48   C50   1.432657 A    
C24   C36   1.405262 A    
C42   C64   1.397061 A    
C28   C30   1.402958 A    
C16   C18   1.397852 A    
C59   H23   1.077076 S    
C21   C29   1.406747 A    
C2    O12   1.296071 A    
C38   C54   1.411760 A    
C18   H8    1.083760 S    
C17   C19   1.392807 A    
O10   V2    2.007373 S    
C40   C60   1.408009 A    
C18   C20   1.392804 A    
C28   H18   1.083658 S    
O1    V3    2.006730 S    
C51   C53   1.426895 A    
C49   C57   1.400980 A    
O11   V3    2.005532 S    
C21   C23   1.393164 A    
O17   V3    2.010804 S    
C22   C24   1.393163 A    
C23   C35   1.405265 A    
C32   H14   1.083901 S    
C21   H9    1.080548 S    
C9    C19   1.407195 A    
C11   N1    1.438118 S    
C10   C20   1.407194 A    
C15   C17   1.397854 A    
C49   C63   1.427686 A    
C29   C33   1.480316 S    
C14   H16   1.082300 S    
C1    O11   1.296072 A    
C16   C32   1.477149 S    
C50   C64   1.427674 A    
C27   C29   1.402960 A    
C31   H13   1.083910 S    
N4    O24   1.301591 A    
N3    O22   1.301681 A    
C3    C64   1.485552 S    
V4    O20   2.150835 S    
C45   C47   1.415552 A    
C24   H2    1.083094 S    
V3    O19   2.150835 S    
C22   C30   1.406748 A    
C54   C56   1.416646 A    
C37   C61   1.392817 A    
C56   C58   1.396954 A    
C46   H28   1.076395 S    
N1    H33   1.045683 S    
C41   C63   1.397055 A    
C53   C55   1.416750 A    
C42   C44   1.389721 A    
O18   V4    2.010806 S    
C52   C54   1.426865 A    
C31   C33   1.345688 D    
O8    C4    1.297272 A    
O16   C6    1.297702 A    
O1    C3    1.297475 A    
N3    O21   1.301353 A    
C47   C51   1.438018 A    
C1    C36   1.476080 S    
C22   H10   1.080543 S    
N2    H36   1.045599 S    
C30   C34   1.480321 S    
C50   C58   1.400990 A    
O10   C6    1.297869 A    
C19   H11   1.083162 S    
O16   V4    2.007900 S    
C11   C13   1.403577 A    
C57   H31   1.083188 S    
C56   N4    1.437840 S    
C33   H5    1.085956 S    
C52   C60   1.430115 A    
C23   H1    1.083095 S    
O5    V1    2.004928 S    
O17   C7    1.297238 A    
O6    V2    2.004929 S    
C38   C62   1.392814 A    
O18   C8    1.297236 A    
C25   C35   1.405142 A    
O2    V4    2.006733 S    
C41   H25   1.083859 S    
C26   C36   1.405140 A    
O15   C5    1.297710 A    
N4    O23   1.301307 A    
C51   C59   1.430130 A    
C13   C15   1.403787 A    
C12   C14   1.403576 A    
C14   C16   1.403784 A    
C46   C48   1.415541 A    
C47   C49   1.432629 A    
O15   V3    2.007902 S    
C43   H29   1.082727 S    
O9    C5    1.297864 A    
C55   N3    1.438007 S    
C32   C34   1.345682 D    
C20   H12   1.083163 S    
O14   V2    2.149913 S    
C42   H26   1.083859 S    
O2    C4    1.297463 A    
N1    H34   1.045602 S    
C8    C10   1.482537 S    
O4    V2    2.011374 S    
C55   C57   1.397034 A    
C5    C39   1.482189 S    
C41   C43   1.389718 A    
C40   C62   1.392751 A    
C39   C61   1.392736 A    
C6    C40   1.482186 S    
N2    H35   1.045682 S    
C58   H32   1.083204 S    
