data_mof_unit_25207.cif
_audit_creation_date              2012-10-26T19:02:37-0400
_audit_creation_method            fapswitch 2.2
_symmetry_space_group_name_H-M    P1
_symmetry_Int_Tables_number       1
_space_group_crystal_system       triclinic
_cell_length_a                    17.299859
_cell_length_b                    8.688536
_cell_length_c                    7.440101
_cell_angle_alpha                 102.906211
_cell_angle_beta                  90.251036
_cell_angle_gamma                 92.999328
_cell_volume                      1088.43109303

loop_
_atom_site_label
_atom_site_type_symbol
_atom_type_description
_atom_site_fract_x
_atom_site_fract_y
_atom_site_fract_z
_atom_type_partial_charge
C1    C     C_R   0.497630 0.199750 0.453663 0.551471
C2    C     C_R   0.775434 0.457723 0.606231 -0.128135
C3    C     C_R   0.145032 0.550472 0.404614 -0.108236
C4    C     C_R   0.854974 0.449485 0.595324 -0.108254
C5    C     C_R   0.107131 0.531994 0.565204 0.044633
C6    C     C_R   0.892870 0.468164 0.434777 0.044632
C7    C     C_R   0.150267 0.514638 0.718631 -0.113861
C8    C     C_R   0.849730 0.485640 0.281393 -0.113862
C9    C     C_R   0.230440 0.507228 0.708148 -0.129143
C10   C     C_R   0.769556 0.492987 0.291881 -0.129134
C11   C     C_2   0.022599 0.529034 0.574729 -0.133511
C12   C     C_R   0.502370 0.800250 0.546337 0.551471
C13   C     C_2   0.977401 0.471168 0.425239 -0.133514
C14   C     C_2   0.496499 0.031921 0.427502 -0.154801
C15   C     C_2   0.503501 0.968079 0.572497 -0.154801
C16   C     C_R   0.351289 0.505351 0.526526 0.545804
C17   C     C_R   0.648710 0.494651 0.473473 0.545802
C18   C     C_R   0.267733 0.517852 0.544016 0.016943
C19   C     C_R   0.732266 0.482175 0.455976 0.016971
C20   C     C_R   0.224569 0.542168 0.393716 -0.128137
Cu1   Cu    Cu3+1 0.508700 0.517250 0.683000 0.955361
Cu2   Cu    Cu3+1 0.491300 0.482750 0.317000 0.955359
H1    H     H_    0.252179 0.555111 0.267122 0.128094
H2    H     H_    0.560817 0.620771 0.041881 0.237875
H3    H     H_    0.121719 0.502708 0.844532 0.096365
H4    H     H_    0.878275 0.497718 0.155523 0.096371
H5    H     H_    0.886422 0.428136 0.712685 0.099244
H6    H     H_    0.113594 0.571704 0.287201 0.099217
H7    H     H_    0.747824 0.444624 0.732788 0.128072
H8    H     H_    0.737122 0.509937 0.173588 0.121849
H9    H     H_    0.262871 0.490387 0.826477 0.121865
H10   H     H_    0.002555 0.428459 0.291117 0.114175
H11   H     H_    0.997438 0.571764 0.708846 0.114190
H12   H     H_    0.489895 0.960544 0.287676 0.134698
H13   H     H_    0.510106 0.039456 0.712323 0.134698
H14   H     H_    0.439183 0.379228 0.958119 0.237878
N1    N     N_2   0.478180 0.456750 0.041980 -0.259424
N2    N     N_2   0.521820 0.543250 0.958020 -0.259423
O1    O     O_R   0.505650 0.286040 0.618880 -0.505833
O2    O     O_R   0.494350 0.713960 0.381120 -0.505832
O3    O     O_R   0.490960 0.256910 0.309800 -0.496206
O4    O     O_R   0.509040 0.743090 0.690200 -0.496207
O5    O     O_R   0.394600 0.516230 0.672450 -0.509535
O6    O     O_R   0.605400 0.483770 0.327550 -0.509536
O7    O     O_R   0.379910 0.487100 0.363380 -0.507834
O8    O     O_R   0.620090 0.512900 0.636620 -0.507822

loop_
_geom_bond_atom_site_label_1
_geom_bond_atom_site_label_2
_ccdc_geom_bond_type
C16   O7    A    
C14   H12   S    
C2    C4    A    
C20   H1    S    
C12   O2    A    
N1    N2    D    
C8    H4    S    
C10   H8    S    
C13   H10   S    
H2    N2    S    
Cu1   O1    S    
C12   C15   S    
C10   C19   A    
Cu2   O2    S    
C4    H5    S    
C17   O6    A    
C3    C20   A    
Cu1   Cu2   S    
C6    C13   S    
C11   C13   D    
C16   O5    A    
C2    H7    S    
C6    C8    A    
C1    O3    A    
H14   N1    S    
C17   C19   S    
C5    C11   S    
C18   C20   A    
Cu2   O3    S    
C1    O1    A    
Cu1   O4    S    
Cu1   O8    S    
C7    C9    A    
C9    C18   A    
C11   H11   S    
Cu2   O7    S    
C17   O8    A    
C16   C18   S    
C4    C6    A    
C15   H13   S    
C5    C7    A    
C9    H9    S    
C14   C15   D    
C3    H6    S    
C12   O4    A    
C1    C14   S    
C2    C19   A    
Cu1   O5    S    
Cu2   N1    S    
C8    C10   A    
Cu2   O6    S    
Cu1   N2    S    
C3    C5    A    
C7    H3    S    
