data_mof_unit_15307.cif
_audit_creation_date              2012-12-11T14:39:30-0500
_audit_creation_method            fapswitch 2.2
_symmetry_space_group_name_H-M    P1
_symmetry_Int_Tables_number       1
_space_group_crystal_system       triclinic
_cell_length_a                    7.218707
_cell_length_b                    14.093506
_cell_length_c                    16.381715
_cell_angle_alpha                 90.0
_cell_angle_beta                  98.087712
_cell_angle_gamma                 89.999612
_cell_volume                      1650.04824986

loop_
_atom_site_label
_atom_site_type_symbol
_atom_type_description
_atom_site_fract_x
_atom_site_fract_y
_atom_site_fract_z
_atom_type_partial_charge
O1    O     O_R   0.525340 0.338340 0.164530 -0.526182
O2    O     O_R   0.474660 0.661660 0.835470 -0.526184
O3    O     O_R   0.974660 0.838340 0.835470 -0.526191
O4    O     O_R   0.025340 0.161660 0.164530 -0.526187
O5    O     O_R   0.253520 0.352000 0.336710 -0.550949
O6    O     O_R   0.746480 0.648000 0.663290 -0.550929
O7    O     O_R   0.246480 0.852000 0.663290 -0.550938
O8    O     O_R   0.753520 0.148000 0.336710 -0.550943
O9    O     O_R   0.083330 0.168380 0.337300 -0.540615
O10   O     O_R   0.916670 0.831620 0.662700 -0.540609
O11   O     O_R   0.416670 0.668380 0.662700 -0.540609
O12   O     O_R   0.583330 0.331620 0.337300 -0.540619
C1    C     C_R   0.432986 0.368699 0.363681 0.659861
C2    C     C_R   0.567014 0.631303 0.636319 0.659922
C3    C     C_R   0.067014 0.868697 0.636318 0.659901
C4    C     C_R   0.932986 0.131302 0.363681 0.659882
O13   O     O_R   0.195840 0.349670 0.165140 -0.528038
O14   O     O_R   0.804160 0.650330 0.834860 -0.528144
O15   O     O_R   0.304160 0.849670 0.834860 -0.528037
O16   O     O_R   0.695840 0.150330 0.165140 -0.528021
C5    C     C_R   0.356269 0.372303 0.138003 0.695524
C6    C     C_R   0.643735 0.627712 0.862016 0.695453
C7    C     C_R   0.143735 0.872288 0.862010 0.695483
C8    C     C_R   0.856266 0.127707 0.137992 0.695440
O17   O     O_3   0.387830 0.193120 0.250910 -0.372710
O18   O     O_3   0.612170 0.806880 0.749090 -0.372699
O19   O     O_3   0.112170 0.693120 0.749090 -0.372733
O20   O     O_3   0.887830 0.306880 0.250910 -0.372728
V1    V     V_3+5 0.113010 0.264540 0.250910 1.519577
V2    V     V_3+5 0.886990 0.735460 0.749090 1.519488
V3    V     V_3+5 0.386990 0.764540 0.749090 1.519582
V4    V     V_3+5 0.613010 0.235460 0.250910 1.519617
C9    C     C_R   0.091475 0.194415 0.526030 -0.215089
C10   C     C_R   0.908527 0.805584 0.473968 -0.215091
C11   C     C_R   0.408536 0.694416 0.473971 -0.215097
C12   C     C_R   0.591474 0.305588 0.526033 -0.215086
C13   C     C_R   0.166964 0.226829 0.603961 -0.158777
C14   C     C_R   0.833041 0.773170 0.396037 -0.158764
C15   C     C_R   0.333052 0.726833 0.396041 -0.158782
C16   C     C_R   0.666964 0.273175 0.603965 -0.158822
C17   C     C_R   0.197714 0.163968 0.669849 0.351406
C18   C     C_R   0.802293 0.836031 0.330149 0.351409
C19   C     C_R   0.302299 0.663974 0.330152 0.351430
C20   C     C_R   0.697713 0.336038 0.669852 0.351482
C21   C     C_R   0.152374 0.068273 0.658128 -0.179501
C22   C     C_R   0.847630 0.931726 0.341871 -0.179495
C23   C     C_R   0.347630 0.568277 0.341872 -0.179492
C24   C     C_R   0.652373 0.431732 0.658129 -0.179500
C25   C     C_R   0.077619 0.033143 0.579325 0.010601
C26   C     C_R   0.922383 0.966856 0.420674 0.010609
C27   C     C_R   0.422384 0.533146 0.420675 0.010606
C28   C     C_R   0.577617 0.466858 0.579326 0.010551
C29   C     C_R   0.046823 0.097317 0.512023 0.057549
C30   C     C_R   0.953178 0.902682 0.487976 0.057545
C31   C     C_R   0.453182 0.597318 0.487977 0.057551
C32   C     C_R   0.546821 0.402685 0.512024 0.057563
C33   C     C_R   0.030629 0.936045 0.567106 -0.129588
C34   C     C_R   0.969372 0.063955 0.432893 -0.129582
C35   C     C_R   0.469371 0.436047 0.432893 -0.129573
C36   C     C_R   0.530630 0.563956 0.567107 -0.129589
H1    H     H_    0.067779 0.246606 0.477288 0.136417
H2    H     H_    0.932222 0.753393 0.522710 0.136417
H3    H     H_    0.432235 0.746607 0.522714 0.136416
H4    H     H_    0.567779 0.253396 0.477292 0.136419
H5    H     H_    0.200823 0.301275 0.613107 0.156769
H6    H     H_    0.799185 0.698724 0.386890 0.156767
H7    H     H_    0.299200 0.801278 0.386896 0.156768
H8    H     H_    0.700823 0.198731 0.613113 0.156767
H9    H     H_    0.175524 0.022323 0.711473 0.120337
H10   H     H_    0.824483 0.977676 0.288525 0.120303
H11   H     H_    0.324478 0.522328 0.288527 0.120286
H12   H     H_    0.675522 0.477682 0.711474 0.120488
C37   C     C_2   0.148808 0.950929 0.923415 0.188831
C38   C     C_2   0.851195 0.049052 0.076598 0.188843
C39   C     C_2   0.351204 0.451004 0.076656 0.188750
C40   C     C_2   0.648786 0.549085 0.923441 0.188876
C41   C     C_2   0.020747 0.954856 0.977457 0.236533
C42   C     C_2   0.979252 0.045129 0.022552 0.236473
C43   C     C_2   0.479124 0.454905 0.022545 0.236448
C44   C     C_2   0.520649 0.545172 0.977450 0.236508
Br1   Br    Br    0.699123 0.790960 0.223449 -0.373463
Br2   Br    Br    0.300893 0.209040 0.776547 -0.373438
Br3   Br    Br    0.800896 0.290977 0.776554 -0.373312
Br4   Br    Br    0.199127 0.709053 0.223456 -0.373411
Br5   Br    Br    0.083935 0.165651 0.992699 -0.313315
Br6   Br    Br    0.916044 0.834341 0.007301 -0.313321
Br7   Br    Br    0.415923 0.665698 0.007257 -0.313302
Br8   Br    Br    0.583562 0.334360 0.992591 -0.313191
O21   O     O_3   0.718356 0.978353 0.076263 -0.578357
H13   H     H_    0.646759 0.988186 0.122892 0.333201
O22   O     O_3   0.281669 0.021618 0.923770 -0.578372
H14   H     H_    0.353343 0.011747 0.877177 0.333215
O23   O     O_3   0.781633 0.478398 0.923847 -0.578438
H15   H     H_    0.853900 0.488449 0.877443 0.333206
O24   O     O_3   0.218573 0.521789 0.076465 -0.578387
H16   H     H_    0.146917 0.511887 0.123071 0.333137

loop_
_geom_bond_atom_site_label_1
_geom_bond_atom_site_label_2
_ccdc_geom_bond_type
O1    C5    A    
O23   H15   S    
O13   V1    S    
O3    C7    A    
O24   H16   S    
C6    C40   S    
C20   Br3   S    
O15   V3    S    
C39   O24   S    
C41   C42   S    
C26   C30   A    
C38   O21   S    
O20   V1    S    
O9    C4    A    
C24   H12   S    
C14   C18   A    
C44   Br7   S    
O10   C3    A    
O4    C8    A    
O11   C2    A    
C10   H2    S    
C25   C33   A    
C18   C22   A    
C28   C36   A    
C14   H6    S    
C13   H5    S    
O2    C6    A    
O14   V2    S    
C16   C20   A    
O5    C1    A    
O4    V1    S    
O9    V1    S    
O17   V4    S    
O7    C3    A    
O11   V3    S    
O18   V3    S    
O8    C4    A    
C10   C14   A    
C31   C36   A    
O12   V4    S    
O19   V2    S    
C19   Br4   S    
C3    C33   S    
C18   Br1   S    
C7    C37   S    
C43   Br8   S    
O5    V1    S    
C9    C29   A    
O7    V3    S    
C21   H9    S    
O8    V4    S    
O16   C8    A    
C12   C16   A    
C37   O22   S    
O22   H14   S    
O15   C7    A    
C23   C27   A    
C11   C31   A    
O1    V4    S    
O13   C5    A    
O2    V3    S    
C26   C34   A    
O3    V2    S    
C11   C15   A    
C12   C32   A    
C40   O23   S    
O6    C2    A    
O10   V2    S    
C21   C25   A    
C4    C34   S    
C23   H11   S    
C42   Br5   S    
O6    V2    S    
C41   Br6   S    
C10   C30   A    
C16   H8    S    
C27   C35   A    
O16   V4    S    
C5    C39   S    
C17   C21   A    
O14   C6    A    
C15   H7    S    
C40   C44   D    
C15   C19   A    
C29   C34   A    
C1    C35   S    
C2    C36   S    
C22   C26   A    
C32   C35   A    
C8    C38   S    
C39   C43   D    
C25   C29   A    
C17   Br2   S    
C27   C31   A    
C13   C17   A    
C9    C13   A    
C22   H10   S    
C43   C44   S    
C28   C32   A    
C24   C28   A    
O12   C1    A    
C9    H1    S    
C38   C42   D    
C37   C41   D    
C11   H3    S    
O21   H13   S    
C12   H4    S    
C19   C23   A    
C20   C24   A    
C30   C33   A    
