data_mof_unit_43629.cif
_audit_creation_date              2012-12-11T17:43:56-0500
_audit_creation_method            fapswitch 2.2
_symmetry_space_group_name_H-M    P1
_symmetry_Int_Tables_number       1
_space_group_crystal_system       triclinic
_cell_length_a                    20.306134
_cell_length_b                    22.666289
_cell_length_c                    7.021262
_cell_angle_alpha                 90.000682
_cell_angle_beta                  86.884781
_cell_angle_gamma                 90.000046
_cell_volume                      3226.86357182

loop_
_atom_site_label
_atom_site_type_symbol
_atom_type_description
_atom_site_fract_x
_atom_site_fract_y
_atom_site_fract_z
_atom_type_partial_charge
O1    O     O_R   0.751270 0.447300 0.600030 -0.505516
O2    O     O_R   0.248730 0.947300 0.399970 -0.505513
O3    O     O_R   0.613530 0.440160 0.952150 -0.549933
O4    O     O_R   0.386470 0.940160 0.047850 -0.549927
O5    O     O_R   0.613050 0.552700 0.122560 -0.546374
O6    O     O_R   0.386950 0.052700 0.877440 -0.546367
C1    C     C_R   0.592433 0.424816 0.786165 0.768282
C2    C     C_R   0.407566 0.924815 0.213834 0.768310
O7    O     O_R   0.750780 0.440350 0.929820 -0.549652
O8    O     O_R   0.249220 0.940350 0.070180 -0.549656
O9    O     O_R   0.751280 0.552900 0.100070 -0.519148
O10   O     O_R   0.248720 0.052900 0.899930 -0.519149
C3    C     C_R   0.774440 0.426613 0.757703 0.781435
C4    C     C_R   0.225560 0.926613 0.242296 0.781431
O11   O     O_R   0.613040 0.447100 0.622520 -0.536251
O12   O     O_R   0.386960 0.947100 0.377480 -0.536261
O13   O     O_3   0.682160 0.536920 0.777780 -0.364383
O14   O     O_3   0.317840 0.036920 0.222220 -0.364382
V1    V     V_3+5 0.682160 0.493150 0.052630 1.470770
V2    V     V_3+5 0.317840 0.993150 0.947370 1.470779
O15   O     O_R   0.750790 0.559840 0.429870 -0.505714
O16   O     O_R   0.249210 0.059840 0.570130 -0.505713
C5    C     C_R   0.773764 0.574325 0.257851 0.802539
C6    C     C_R   0.226236 0.074325 0.742150 0.802539
O17   O     O_R   0.613540 0.559650 0.452200 -0.537570
O18   O     O_R   0.386460 0.059650 0.547800 -0.537572
C7    C     C_R   0.591600 0.573906 0.287210 0.717402
C8    C     C_R   0.408401 0.073905 0.712791 0.717403
V3    V     V_3+5 0.682160 0.506850 0.552630 1.527267
V4    V     V_3+5 0.317840 0.006850 0.447370 1.527260
O19   O     O_3   0.682150 0.463080 0.277610 -0.376763
O20   O     O_3   0.317850 0.963080 0.722390 -0.376766
C9    C     C_R   0.578306 0.864700 0.279225 0.324141
C10   C     C_R   0.421692 0.364699 0.720776 0.324150
C11   C     C_R   0.461828 0.881134 0.220817 -0.285774
C12   C     C_R   0.538171 0.381135 0.779181 -0.285768
C13   C     C_R   0.472988 0.594706 0.317904 -0.322645
C14   C     C_R   0.527013 0.094705 0.682092 -0.322634
C15   C     C_R   0.419795 0.632736 0.351420 0.410629
C16   C     C_R   0.580205 0.132736 0.648581 0.410602
C17   C     C_R   0.430275 0.693988 0.356464 0.427802
C18   C     C_R   0.569726 0.193987 0.643546 0.427782
C19   C     C_R   0.492660 0.718040 0.295359 -0.033373
C20   C     C_R   0.507340 0.218039 0.704654 -0.033356
C21   C     C_R   0.547300 0.678778 0.281919 -0.059786
C22   C     C_R   0.452701 0.178778 0.718092 -0.059795
C23   C     C_R   0.503209 0.780064 0.265221 -0.093594
C24   C     C_R   0.496790 0.280064 0.734787 -0.093571
C25   C     C_R   0.568335 0.802845 0.274650 -0.125642
C26   C     C_R   0.431664 0.302844 0.725357 -0.125653
C27   C     C_R   0.622321 0.763055 0.279665 0.525099
C28   C     C_R   0.377678 0.263053 0.720350 0.525088
C29   C     C_R   0.611105 0.702131 0.270434 -0.272221
C30   C     C_R   0.388895 0.202129 0.729582 -0.272214
C31   C     C_R   0.451165 0.818830 0.217356 0.391873
C32   C     C_R   0.548833 0.318831 0.782654 0.391909
C33   C     C_R   0.524895 0.903389 0.253435 0.279690
C34   C     C_R   0.475104 0.403389 0.746552 0.279708
C35   C     C_R   0.536929 0.616800 0.289742 -0.120136
C36   C     C_R   0.463072 0.116799 0.710262 -0.120131
H1    H     H_    0.464714 0.547490 0.325527 0.164161
H2    H     H_    0.535287 0.047490 0.674463 0.164151
H3    H     H_    0.653108 0.672849 0.261374 0.095896
H4    H     H_    0.346892 0.172848 0.738646 0.095898
C37   C     C_R   0.170539 0.882106 0.261565 -0.343318
C38   C     C_R   0.829461 0.382106 0.738432 -0.343302
C39   C     C_R   0.159805 0.840277 0.115599 0.212318
C40   C     C_R   0.840193 0.340277 0.884395 0.212322
C41   C     C_R   0.112967 0.795140 0.143847 0.291956
C42   C     C_R   0.887032 0.295141 0.856150 0.291928
C43   C     C_R   0.071725 0.793404 0.313620 0.160322
C44   C     C_R   0.928277 0.293406 0.686383 0.160339
C45   C     C_R   0.082029 0.833923 0.459842 0.290739
C46   C     C_R   0.917975 0.333925 0.540162 0.290731
C47   C     C_R   0.129626 0.879449 0.431983 0.278903
C48   C     C_R   0.870376 0.379450 0.568019 0.278898
C49   C     C_R   0.902581 0.687010 0.400404 0.201100
C50   C     C_R   0.097419 0.187009 0.599601 0.201092
C51   C     C_R   0.859347 0.637727 0.407798 0.128619
C52   C     C_R   0.140652 0.137725 0.592205 0.128628
C53   C     C_R   0.932426 0.704254 0.224957 0.283739
C54   C     C_R   0.067573 0.204252 0.775048 0.283743
N1    N     N_2   0.020132 0.750969 0.342687 -0.147540
N2    N     N_2   0.979871 0.250972 0.657317 -0.147530
N3    N     N_2   0.983763 0.747424 0.205171 -0.184891
N4    N     N_2   0.016235 0.247422 0.794835 -0.184897
C55   C     C_R   0.828457 0.619355 0.243698 -0.273657
C56   C     C_R   0.171542 0.119355 0.756305 -0.273651
C57   C     C_R   0.851974 0.643894 0.068499 0.256721
C58   C     C_R   0.148024 0.143893 0.931505 0.256717
C59   C     C_R   0.909944 0.679079 0.060261 0.188691
C60   C     C_R   0.090054 0.179077 0.939743 0.188694
O21   O     O_3   0.533891 0.963875 0.265349 -0.554270
C61   C     C_3   0.552266 0.985658 0.081768 -0.230524
H5    H     H_    0.513398 0.977264 0.979409 0.135767
H6    H     H_    0.599983 0.966525 0.026159 0.150005
H7    H     H_    0.558776 0.034145 0.091328 0.165101
O22   O     O_3   0.466108 0.463874 0.734605 -0.554262
C62   C     C_3   0.447744 0.485670 0.918179 -0.230600
H8    H     H_    0.486639 0.477326 0.020466 0.135815
H9    H     H_    0.400059 0.466509 0.973899 0.149973
H10   H     H_    0.441182 0.534148 0.908572 0.165118
O23   O     O_3   0.912482 0.720663 0.558553 -0.569051
H11   H     H_    0.872904 0.716062 0.645925 0.339153
O24   O     O_3   0.087517 0.220660 0.441452 -0.569053
H12   H     H_    0.127095 0.216059 0.354080 0.339153
O25   O     O_3   0.043458 0.828490 0.627449 -0.568156
H13   H     H_    0.059469 0.855812 0.724710 0.340448
O26   O     O_3   0.956549 0.328493 0.372559 -0.568162
H14   H     H_    0.940539 0.355814 0.275299 0.340444
O27   O     O_3   0.136394 0.921131 0.573460 -0.550985
C63   C     C_3   0.092846 0.968127 0.541686 -0.217839
H15   H     H_    0.040538 0.953295 0.553154 0.140797
H16   H     H_    0.104144 0.989155 0.400439 0.148877
H17   H     H_    0.098934 0.002095 0.653048 0.158328
O28   O     O_3   0.863609 0.421132 0.426542 -0.550986
C64   C     C_3   0.907153 0.468129 0.458327 -0.217842
H18   H     H_    0.959462 0.453299 0.446866 0.140796
H19   H     H_    0.895852 0.489157 0.599573 0.148876
H20   H     H_    0.901066 0.502096 0.346966 0.158329
O29   O     O_3   0.819217 0.633687 0.905699 -0.519469
C65   C     C_3   0.769110 0.676484 0.893776 -0.093660
H21   H     H_    0.788868 0.722249 0.899909 0.120922
H22   H     H_    0.729879 0.670028 0.007886 0.108121
H23   H     H_    0.746029 0.671247 0.755193 0.144875
O30   O     O_3   0.180780 0.133687 0.094306 -0.519473
C66   C     C_3   0.230888 0.176484 0.106232 -0.093668
H24   H     H_    0.211131 0.222248 0.100098 0.120924
H25   H     H_    0.270120 0.170026 0.992124 0.108127
H26   H     H_    0.253968 0.171247 0.244816 0.144875
O31   O     O_3   0.109867 0.752969 0.002543 -0.571910
H27   H     H_    0.091364 0.716135 0.059136 0.325990
O32   O     O_3   0.890129 0.252969 0.997448 -0.571945
H28   H     H_    0.908631 0.216140 0.940871 0.326019
O33   O     O_3   0.946808 0.688607 0.894194 -0.576127
H29   H     H_    0.947172 0.651053 0.823077 0.316312
O34   O     O_3   0.053189 0.188605 0.105809 -0.576128
H30   H     H_    0.052826 0.151052 0.176924 0.316312
O35   O     O_3   0.197170 0.840112 0.946411 -0.605827
H31   H     H_    0.186914 0.877489 0.881360 0.338791
O36   O     O_3   0.802823 0.340111 0.053576 -0.605835
H32   H     H_    0.813085 0.377485 0.118644 0.338790
O37   O     O_3   0.686676 0.783913 0.267738 -0.523323
C67   C     C_3   0.720279 0.765121 0.427948 -0.166172
H33   H     H_    0.735889 0.718337 0.412744 0.092725
H34   H     H_    0.690341 0.771771 0.564056 0.124208
H35   H     H_    0.765771 0.791878 0.436273 0.184531
O38   O     O_3   0.313322 0.283910 0.732287 -0.523328
C68   C     C_3   0.279721 0.265124 0.572066 -0.166162
H36   H     H_    0.264127 0.218335 0.587220 0.092708
H37   H     H_    0.309656 0.271794 0.435961 0.124242
H38   H     H_    0.234221 0.291872 0.563777 0.184524
O39   O     O_3   0.640210 0.886351 0.314872 -0.602174
H39   H     H_    0.638602 0.929579 0.333922 0.332816
O40   O     O_3   0.359788 0.386348 0.685133 -0.602177
H40   H     H_    0.361389 0.429577 0.666136 0.332831
O41   O     O_3   0.399227 0.793670 0.123410 -0.557614
C69   C     C_3   0.336465 0.814235 0.188628 -0.120446
H41   H     H_    0.318868 0.846655 0.085664 0.150647
H42   H     H_    0.334737 0.832336 0.336339 0.115008
H43   H     H_    0.301370 0.776727 0.188790 0.182721
O42   O     O_3   0.600769 0.293673 0.876615 -0.557616
C70   C     C_3   0.663533 0.314236 0.811404 -0.120431
H44   H     H_    0.681129 0.346657 0.914369 0.150666
H45   H     H_    0.665264 0.332335 0.663691 0.115001
H46   H     H_    0.698626 0.276727 0.811249 0.182723
O43   O     O_3   0.380735 0.728778 0.439163 -0.548670
C71   C     C_3   0.394333 0.739269 0.631200 -0.171692
H47   H     H_    0.353427 0.765727 0.698616 0.186579
H48   H     H_    0.440517 0.765163 0.642401 0.122743
H49   H     H_    0.397184 0.697266 0.712643 0.148332
O44   O     O_3   0.619264 0.228781 0.560864 -0.548682
C72   C     C_3   0.605689 0.239244 0.368796 -0.171709
H50   H     H_    0.646567 0.265754 0.301446 0.186557
H51   H     H_    0.559464 0.265077 0.357501 0.122736
H52   H     H_    0.602926 0.197231 0.287360 0.148415
O45   O     O_3   0.358621 0.609393 0.403093 -0.535824
C73   C     C_3   0.319729 0.611541 0.242953 -0.154181
H53   H     H_    0.311148 0.657803 0.197188 0.155304
H54   H     H_    0.270915 0.591780 0.282489 0.167630
H55   H     H_    0.342378 0.585333 0.122223 0.109044
O46   O     O_3   0.641380 0.109393 0.596908 -0.535836
C74   C     C_3   0.680271 0.111543 0.757048 -0.154213
H56   H     H_    0.688852 0.157805 0.802814 0.155307
H57   H     H_    0.729086 0.091781 0.717513 0.167634
H58   H     H_    0.657623 0.085335 0.877779 0.109046
O47   O     O_3   0.851277 0.604319 0.569432 -0.596546
H59   H     H_    0.895090 0.601225 0.623222 0.302444
O48   O     O_3   0.148722 0.104317 0.430571 -0.596548
H60   H     H_    0.104910 0.101225 0.376775 0.302448

loop_
_geom_bond_atom_site_label_1
_geom_bond_atom_site_label_2
_ccdc_geom_bond_type
C38   C40   A    
O41   C69   S    
C64   H18   S    
O13   V3    S    
C1    C12   S    
C70   H44   S    
C34   O22   S    
O4    C2    A    
V1    O19   S    
C46   O26   S    
C51   C55   A    
C73   H53   S    
O33   H29   S    
C23   C25   A    
C10   O40   S    
O9    V1    S    
O30   C66   S    
C46   C48   A    
C50   O24   S    
C70   H45   S    
N2    N4    D    
O3    C1    A    
C68   H37   S    
C9    O39   S    
C73   H54   S    
C45   O25   S    
C9    C25   A    
O37   C67   S    
C32   O42   S    
C54   C60   A    
O28   C64   S    
C52   O48   S    
O9    C5    A    
C41   C43   A    
O7    C3    A    
O46   C74   S    
C69   H43   S    
O13   V1    S    
O5    C7    A    
O7    V1    S    
C71   H49   S    
O6    C8    A    
O27   C63   S    
O8    V2    S    
C37   C39   A    
C42   O32   S    
C26   C28   A    
O25   H13   S    
O3    V1    S    
O14   V4    S    
O18   C8    A    
C57   C59   A    
C39   O35   S    
C43   N1    S    
C22   C36   A    
C24   C26   A    
O34   H30   S    
C21   C29   A    
C2    O12   A    
C33   O21   S    
C52   C56   A    
C69   H42   S    
C17   C19   A    
O10   V2    S    
C61   H5    S    
C18   C20   A    
C67   H35   S    
C60   O34   S    
C63   H16   S    
C63   H15   S    
C15   O45   S    
C28   C30   A    
O11   V3    S    
C16   O46   S    
C3    C38   S    
C8    C36   S    
O17   V3    S    
C13   C15   A    
C10   C26   A    
C42   C44   A    
C11   C31   A    
V4    O20   S    
C70   H46   S    
O38   C68   S    
C44   C46   A    
O8    C4    A    
C74   H58   S    
O43   C71   S    
C43   C45   A    
C1    O11   A    
C20   C22   A    
C61   H7    S    
C25   C27   A    
C54   N4    S    
O15   V3    S    
C39   C41   A    
C2    C11   S    
O4    V2    S    
C74   H56   S    
C66   H25   S    
C12   C32   A    
C74   H57   S    
C6    C56   S    
C50   C54   A    
C58   C60   A    
C62   H8    S    
C49   C53   A    
C41   O31   S    
C38   C48   A    
C22   C30   A    
O1    V3    S    
C58   O30   S    
C49   C51   A    
C40   O36   S    
O21   C61   S    
C13   C35   A    
C61   H6    S    
C19   C21   A    
O29   C65   S    
C44   N2    S    
C72   H51   S    
C18   O44   S    
O45   C73   S    
C14   C36   A    
C68   H38   S    
C67   H34   S    
C71   H47   S    
N1    N3    D    
C56   C58   A    
O18   V4    S    
C19   C23   A    
O15   C5    A    
C69   H41   S    
O16   C6    A    
C64   H20   S    
O1    C3    A    
C45   C47   A    
C65   H22   S    
C66   H24   S    
C50   C52   A    
O23   H11   S    
O44   C72   S    
C23   C31   A    
O42   C70   S    
V2    O20   S    
C72   H52   S    
C24   C32   A    
C21   C35   A    
C9    C33   A    
O16   V4    S    
C62   H9    S    
C28   O38   S    
C47   O27   S    
C67   H33   S    
O31   H27   S    
C13   H1    S    
O35   H31   S    
C51   O47   S    
O5    V1    S    
C27   O37   S    
O17   C7    A    
C15   C17   A    
O6    V2    S    
O24   H12   S    
O10   C6    A    
C12   C34   A    
C37   C47   A    
O2    V4    S    
C11   C33   A    
C65   H23   S    
C64   H19   S    
C65   H21   S    
C66   H26   S    
O47   H59   S    
V3    O19   S    
C7    C35   S    
O36   H32   S    
C14   C16   A    
C29   H3    S    
O32   H28   S    
C57   O29   S    
C17   O43   S    
C71   H48   S    
C48   O28   S    
C4    C37   S    
O14   V2    S    
O48   H60   S    
O2    C4    A    
C73   H55   S    
C49   O23   S    
C72   H50   S    
C53   C59   A    
C31   O41   S    
C62   H10   S    
C59   O33   S    
C30   H4    S    
C40   C42   A    
O22   C62   S    
O26   H14   S    
O40   H40   S    
C10   C34   A    
C55   C57   A    
C16   C18   A    
C5    C55   S    
C27   C29   A    
O39   H39   S    
C68   H36   S    
O12   V4    S    
C63   H17   S    
C53   N3    S    
C20   C24   A    
C14   H2    S    
