data_mof_unit_35952.cif
_audit_creation_date              2012-10-26T21:04:53-0400
_audit_creation_method            fapswitch 2.2
_symmetry_space_group_name_H-M    P1
_symmetry_Int_Tables_number       1
_space_group_crystal_system       triclinic
_cell_length_a                    11.689617
_cell_length_b                    12.3376
_cell_length_c                    13.180205
_cell_angle_alpha                 116.573084
_cell_angle_beta                  77.862491
_cell_angle_gamma                 101.211009
_cell_volume                      1651.08368986

loop_
_atom_site_label
_atom_site_type_symbol
_atom_type_description
_atom_site_fract_x
_atom_site_fract_y
_atom_site_fract_z
_atom_type_partial_charge
C1    C     C_R   0.510302 0.854845 0.286575 0.527665
C2    C     C_R   0.338166 0.485296 0.159920 -0.138816
C3    C     C_R   0.377200 0.608334 0.193927 -0.122041
C4    C     C_R   0.715756 0.999588 0.499655 0.544746
C5    C     C_R   0.502984 0.350859 0.868446 -0.134972
C6    C     C_R   0.382392 0.189758 0.912092 -0.135725
C7    C     C_R   0.517709 0.772842 0.163574 -0.006102
C8    C     C_R   0.682938 0.344893 0.325497 -0.138510
C9    C     C_R   0.343553 0.760698 0.646644 0.050440
C10   C     C_R   0.309560 0.665028 0.679324 -0.161020
C11   C     C_R   0.368320 0.561145 0.624122 -0.134580
C12   C     C_R   0.459386 0.227946 0.834508 -0.000292
C13   C     C_R   0.462488 0.551801 0.535050 0.004530
C14   C     C_R   0.494545 0.652737 0.504966 0.181522
C15   C     C_R   0.526276 0.446931 0.475092 -0.026385
C16   C     C_R   0.483108 0.145059 0.713377 0.541497
C17   C     C_R   0.619329 0.445416 0.386366 -0.006872
C18   C     C_R   0.649249 0.544511 0.358713 -0.168571
C19   C     C_R   0.589175 0.646236 0.417467 -0.087918
C20   C     C_R   0.501970 0.342554 0.498412 -0.007107
C21   C     C_R   0.657579 0.245893 0.354544 0.424094
C22   C     C_R   0.284263 0.000229 0.500044 0.539368
C23   C     C_R   0.588799 0.815078 0.085674 -0.133663
C24   C     C_1   0.837470 0.999188 0.499440 -0.037563
C25   C     C_1   0.940092 0.999392 0.499301 -0.053058
C26   C     C_1   0.060038 0.999920 0.499368 -0.048515
C27   C     C_1   0.162608 0.000273 0.499618 -0.028244
C28   C     C_R   0.344791 0.275523 0.021361 -0.132285
C29   C     C_3   0.839012 0.169141 0.285749 0.001739
C30   C     C_3   0.894061 0.129010 0.160181 -0.273838
C31   C     C_3   0.028145 0.154457 0.148467 -0.485624
C32   C     C_R   0.612904 0.736176 0.971070 -0.144833
C33   C     C_R   0.571600 0.612923 0.933233 -0.119698
C34   C     C_R   0.500701 0.566253 0.009514 0.032773
C35   C     C_R   0.465187 0.649766 0.123608 0.023258
C36   C     C_R   0.462838 0.439695 0.976095 0.028334
C37   C     C_R   0.382472 0.400086 0.053152 0.051504
Cu1   Cu    Cu3+1 0.526510 0.098270 0.475420 0.983551
Cu2   Cu    Cu3+1 0.473490 0.901730 0.524580 0.917557
H1    H     H_    0.347607 0.094722 0.886852 0.120885
H2    H     H_    0.283674 0.244897 0.079963 0.106755
H3    H     H_    0.567416 0.374628 0.808013 0.117514
H4    H     H_    0.628488 0.908957 0.113806 0.162929
H5    H     H_    0.594817 0.557466 0.843233 0.104439
H6    H     H_    0.667152 0.770078 0.911603 0.120432
H7    H     H_    0.334795 0.670319 0.274996 0.151730
H8    H     H_    0.870941 0.115438 0.320800 0.162719
H9    H     H_    0.870628 0.266661 0.337251 0.103893
H10   H     H_    0.868686 0.029625 0.111900 0.167242
H11   H     H_    0.860292 0.178203 0.121737 0.159234
H12   H     H_    0.721052 0.544112 0.291378 0.110968
H13   H     H_    0.055579 0.253799 0.193757 0.143765
H14   H     H_    0.065229 0.123444 0.056460 0.145884
H15   H     H_    0.064237 0.104607 0.184766 0.150590
H16   H     H_    0.751767 0.343438 0.255725 0.091563
H17   H     H_    0.432101 0.335456 0.563705 0.125267
H18   H     H_    0.297496 0.841014 0.690076 0.125558
H19   H     H_    0.338365 0.489911 0.652919 0.102486
H20   H     H_    0.237434 0.671436 0.747701 0.103452
H21   H     H_    0.620909 0.718147 0.391496 0.183328
H22   H     H_    0.272684 0.456768 0.217496 0.106013
N1    N     N_R   0.566700 0.246290 0.438210 -0.221743
N2    N     N_R   0.434010 0.754320 0.561170 -0.236917
O1    O     O_R   0.533340 0.972510 0.318140 -0.449646
O2    O     O_R   0.488570 0.806530 0.359650 -0.534768
O3    O     O_R   0.685190 0.083000 0.479260 -0.465174
O4    O     O_R   0.640410 0.917020 0.520770 -0.513114
O5    O     O_R   0.511430 0.193470 0.640350 -0.515901
O6    O     O_R   0.466660 0.027490 0.681860 -0.504848
O7    O     O_R   0.359590 0.082980 0.479230 -0.501057
O8    O     O_R   0.314810 0.917000 0.520740 -0.507789
O9    O     O_3   0.714821 0.142047 0.292519 -0.542035

loop_
_geom_bond_atom_site_label_1
_geom_bond_atom_site_label_2
_ccdc_geom_bond_type
C31   H14   S    
C4    O4    A    
C1    O2    A    
C5    H3    S    
Cu1   O7    S    
C29   C30   S    
C16   O5    A    
C19   H21   S    
C11   H19   S    
Cu2   N2    S    
C9    C10   A    
Cu2   O2    S    
C3    H7    S    
C34   C36   A    
C8    C17   A    
C2    H22   S    
C3    C35   A    
C31   H13   S    
C20   H17   S    
C29   O9    S    
C32   C33   A    
C33   C34   A    
C30   H11   S    
C9    N2    A    
C13   C14   A    
C23   C32   A    
C6    C12   A    
C11   C13   A    
C2    C37   A    
C26   C27   T    
Cu1   Cu2   S    
C7    C35   A    
C28   C37   A    
C29   H8    S    
C7    C23   A    
C14   N2    A    
C8    H16   S    
C36   C37   A    
Cu2   O6    S    
C30   H10   S    
Cu1   O5    S    
C18   H12   S    
C8    C21   A    
C9    H18   S    
C22   C27   S    
C13   C15   A    
C31   H15   S    
C20   N1    A    
C30   C31   S    
C4    C24   S    
C6    H1    S    
C5    C36   A    
C10   C11   A    
C29   H9    S    
C1    O1    A    
C12   C16   S    
C28   H2    S    
C23   H4    S    
C24   C25   T    
C4    O3    A    
C10   H20   S    
C17   C18   A    
C34   C35   A    
C32   H6    S    
C22   O8    A    
C15   C17   A    
Cu1   O1    S    
Cu2   O8    S    
C18   C19   A    
C2    C3    A    
C21   O9    S    
C21   N1    A    
C25   C26   S    
C1    C7    S    
C33   H5    S    
Cu2   O4    S    
C14   C19   A    
C22   O7    A    
C6    C28   A    
C16   O6    A    
Cu1   O3    S    
C15   C20   A    
Cu1   N1    S    
C5    C12   A    
