data_mof_unit_59950.cif
_audit_creation_date              2012-12-11T14:36:01-0500
_audit_creation_method            fapswitch 2.2
_symmetry_space_group_name_H-M    P1
_symmetry_Int_Tables_number       1
_space_group_crystal_system       triclinic
_cell_length_a                    13.529627
_cell_length_b                    13.581176
_cell_length_c                    27.482422
_cell_angle_alpha                 90.331612
_cell_angle_beta                  89.824762
_cell_angle_gamma                 60.204543
_cell_volume                      4382.10572857

loop_
_atom_site_label
_atom_site_type_symbol
_atom_type_description
_atom_site_fract_x
_atom_site_fract_y
_atom_site_fract_z
_atom_type_partial_charge
C1    C     C_R   0.619871 0.100033 0.570488 0.551026
C2    C     C_1   0.633803 0.722996 0.614622 0.052133
C3    C     C_3   0.725087 0.547494 0.767655 0.064565
C4    C     C_3   0.687241 0.645499 0.804280 -0.033402
C5    C     C_3   0.611912 0.614131 0.740212 0.180761
C6    C     C_3   0.667128 0.666903 0.708543 -0.014417
C7    C     C_3   0.573452 0.712011 0.777310 0.204822
C8    C     C_3   0.627978 0.765517 0.745314 0.073230
C9    C     C_1   0.694306 0.629750 0.857278 0.048531
C10   C     C_1   0.652958 0.689733 0.656001 0.045328
C11   C     C_3   0.042025 0.233955 0.729103 -0.112765
C12   C     C_R   0.600033 0.778069 0.568301 0.552859
C13   C     C_3   0.074018 0.135601 0.765413 -0.089249
C14   C     C_1   0.073714 0.216699 0.898275 0.049440
C15   C     C_1   0.227081 0.141020 0.616539 0.028852
C16   C     C_3   0.076947 0.296484 0.766970 -0.116472
C17   C     C_3   0.109823 0.197607 0.802413 -0.011727
C18   C     C_3   0.200114 0.234672 0.746450 -0.135359
C19   C     C_3   0.164233 0.172291 0.709616 0.000477
C20   C     C_3   0.231726 0.136514 0.782390 0.095149
C21   C     C_3   0.196808 0.074086 0.745054 0.221831
C22   C     C_1   0.089026 0.207015 0.854985 0.006373
C23   C     C_R   0.277844 0.121868 0.569385 0.554414
C24   C     C_1   0.194943 0.156459 0.658093 0.001918
C25   C     C_3   0.647457 0.252204 0.739391 -0.043066
C26   C     C_3   0.563961 0.252553 0.777832 0.193219
C27   C     C_1   0.691161 0.206367 0.903719 0.047497
C28   C     C_1   0.634353 0.126998 0.619562 0.018499
C29   C     C_3   0.749409 0.172068 0.771797 -0.122230
C30   C     C_3   0.664920 0.174011 0.809901 0.017949
C31   C     C_3   0.753969 0.067364 0.747057 -0.115742
C32   C     C_3   0.651816 0.148060 0.715426 -0.032741
C33   C     C_3   0.669768 0.069848 0.785831 0.086258
C34   C     C_R   0.622247 0.099416 0.431654 0.539589
C35   C     C_3   0.567027 0.148256 0.753371 -0.064469
C36   C     C_1   0.675291 0.191221 0.861935 0.035354
C37   C     C_1   0.643686 0.139224 0.662493 -0.019810
C38   C     C_R   0.731718 0.710330 0.359219 -0.159717
C39   C     C_R   0.744950 0.688301 0.309339 0.003828
C40   C     C_R   0.761154 0.660780 0.207939 0.025174
C41   C     C_R   0.844270 0.672243 0.233550 -0.096836
C42   C     C_R   0.834486 0.689053 0.283827 -0.117768
C43   C     C_R   0.771712 0.640487 0.157814 -0.128791
C44   C     C_R   0.683288 0.638425 0.132281 0.020272
C45   C     C_R   0.602791 0.774232 0.430830 0.546137
C46   C     C_R   0.573598 0.672053 0.360969 0.053657
C47   C     C_R   0.578090 0.662509 0.309850 -0.043912
C48   C     C_R   0.663722 0.671479 0.284154 0.030950
C49   C     C_R   0.499366 0.644180 0.283795 -0.131349
C50   C     C_R   0.498459 0.643628 0.232998 0.045786
C51   C     C_R   0.580435 0.659365 0.207274 -0.004351
C52   C     C_R   0.668490 0.663574 0.233158 0.014533
C53   C     C_R   0.580385 0.668078 0.156454 0.210582
C54   C     C_R   0.641663 0.710256 0.384582 -0.017305
C55   C     C_R   0.175750 0.088603 0.362259 0.047484
C56   C     C_R   0.281358 0.119359 0.430429 0.575998
C57   C     C_R   0.154836 0.093991 0.311569 -0.030156
C58   C     C_R   0.107072 0.115654 0.211229 -0.010894
C59   C     C_R   0.064653 0.060520 0.241527 0.051086
C60   C     C_R   0.085960 0.054118 0.291386 -0.099212
C61   C     C_R   0.071221 0.142812 0.163451 -0.120338
C62   C     C_R   0.108587 0.201861 0.133919 -0.014530
C63   C     C_R   0.291316 0.178277 0.348732 -0.149658
C64   C     C_R   0.273504 0.181631 0.299295 0.008934
C65   C     C_R   0.203508 0.141675 0.280315 0.043870
C66   C     C_R   0.325603 0.224457 0.268756 -0.120335
C67   C     C_3   0.781274 0.599632 0.735411 -0.173591
C68   C     C_R   0.303629 0.234322 0.219343 -0.080318
C69   C     C_R   0.225706 0.205045 0.199681 0.013500
C70   C     C_R   0.179635 0.152997 0.230264 0.032904
C71   C     C_R   0.190564 0.228593 0.150743 0.054329
C72   C     C_R   0.242649 0.133437 0.380316 -0.004824
C73   C     C_R   0.647849 0.216422 0.369602 -0.122969
C74   C     C_R   0.654293 0.239496 0.320590 0.035354
C75   C     C_R   0.673105 0.280456 0.222260 0.035129
C76   C     C_R   0.683104 0.348190 0.258405 -0.118425
C77   C     C_R   0.672797 0.328450 0.307333 -0.116552
C78   C     C_3   0.742356 0.699352 0.772612 -0.173117
C79   C     C_R   0.688347 0.296861 0.173649 -0.087509
C80   C     C_R   0.684588 0.225211 0.137910 0.009945
C81   C     C_R   0.622516 0.057429 0.345955 -0.122592
C82   C     C_R   0.626079 0.080726 0.297088 -0.028781
C83   C     C_R   0.643233 0.171313 0.284178 0.063467
C84   C     C_R   0.611857 0.015460 0.261131 -0.105659
C85   C     C_R   0.618085 0.036998 0.211989 0.148035
C86   C     C_R   0.641895 0.123122 0.198467 0.014606
C87   C     C_R   0.651496 0.192354 0.234925 0.042185
C88   C     C_R   0.660309 0.139804 0.149776 -0.095654
C89   C     C_1   0.699910 0.606583 0.899833 0.070229
C90   C     C_R   0.634000 0.124495 0.381840 0.017563
C91   C     C_R   0.043638 0.239916 0.948550 0.570083
C92   C     C_R   0.711982 0.562913 0.948179 0.560739
C93   C     C_R   0.722402 0.225645 0.951083 0.546344
C94   C     C_R   0.048322 0.244392 0.088015 0.568188
C95   C     C_R   0.707086 0.576118 0.085998 0.551608
C96   C     C_R   0.718755 0.235026 0.089259 0.531602
Cr1   Cr    Cr6+3 0.417550 0.169090 0.500530 1.055895
Cr2   Cr    Cr6+3 0.669180 0.913420 0.499920 1.052335
Cr3   Cr    Cr6+3 0.413260 0.917540 0.499520 1.113956
Cr4   Cr    Cr6+3 0.909170 0.177380 0.020380 1.094869
Cr5   Cr    Cr6+3 0.912710 0.429210 0.018220 1.081342
Cr6   Cr    Cr6+3 0.657170 0.432570 0.019030 1.115027
H1    H     H_    0.796666 0.733381 0.786034 0.187834
H2    H     H_    0.252633 0.274293 0.737670 0.162864
H3    H     H_    0.026459 0.387865 0.776794 0.152841
H4    H     H_    0.637774 0.325273 0.718205 0.217946
H5    H     H_    0.491919 0.140261 0.743692 0.187039
H6    H     H_    0.831934 0.990763 0.733693 0.166565
H7    H     H_    0.826653 0.176432 0.780641 0.153378
H8    H     H_    0.849587 0.622831 0.139127 0.153008
H9    H     H_    0.866492 0.551703 0.717871 0.139940
H10   H     H_    0.787082 0.734905 0.377578 0.144914
H11   H     H_    0.915542 0.670339 0.214583 0.148936
H12   H     H_    0.897403 0.701736 0.302825 0.137094
H13   H     H_    0.438472 0.628306 0.302589 0.187654
H14   H     H_    0.005046 0.127339 0.150152 0.179070
H15   H     H_    0.048477 0.016596 0.314160 0.198660
H16   H     H_    0.346432 0.267556 0.197275 0.168156
H17   H     H_    0.382260 0.252194 0.283247 0.123971
H18   H     H_    0.347480 0.207479 0.362595 0.143405
H19   H     H_    0.708562 0.362125 0.163632 0.124026
H20   H     H_    0.654775 0.268378 0.398013 0.134801
H21   H     H_    0.700526 0.415371 0.248819 0.112608
H22   H     H_    0.681238 0.381398 0.334773 0.137119
H23   H     H_    0.659136 0.085632 0.121017 0.177103
H24   H     H_    0.595501 0.947769 0.271217 0.155501
H25   H     H_    0.608817 0.988072 0.356345 0.115582
H26   H     H_    0.023505 0.093996 0.774135 0.140722
H27   H     H_    0.970156 0.271287 0.703263 0.185074
O1    O     O_R   0.301710 0.195650 0.554160 -0.503285
O2    O     O_R   0.658900 0.818120 0.449760 -0.514888
O3    O     O_R   0.503220 0.801620 0.445520 -0.468644
O4    O     O_R   0.319370 0.022040 0.450020 -0.471420
O5    O     O_3   0.499990 0.000010 0.499990 -0.281803
O6    O     O_R   0.818720 0.150820 0.967160 -0.496140
O7    O     O_R   0.006410 0.181720 0.970200 -0.484793
O8    O     O_R   0.027890 0.334070 0.964920 -0.488623
O9    O     O_R   0.809600 0.521790 0.967960 -0.497614
O10   O     O_R   0.635520 0.542770 0.964420 -0.472627
O11   O     O_R   0.665950 0.325030 0.970100 -0.483822
O12   O     O_R   0.522390 0.158990 0.550460 -0.491387
O13   O     O_R   0.816620 0.158530 0.074540 -0.495635
O14   O     O_R   0.004460 0.188870 0.069750 -0.495874
O15   O     O_R   0.025800 0.341780 0.072300 -0.484733
O16   O     O_R   0.807650 0.528950 0.067500 -0.514040
O17   O     O_R   0.633420 0.550490 0.071810 -0.455334
O18   O     O_R   0.664000 0.332180 0.069640 -0.485770
O19   O     O_3   0.826350 0.346390 0.019210 -0.292793
O20   O     O_R   0.694390 0.003530 0.554040 -0.491733
O21   O     O_R   0.657700 0.819660 0.549320 -0.492655
O22   O     O_R   0.501930 0.803280 0.552920 -0.482183
O23   O     O_R   0.318170 0.023580 0.549580 -0.480278
O24   O     O_R   0.303010 0.193990 0.446760 -0.516232
O25   O     O_R   0.523600 0.157450 0.450900 -0.501642
O26   O     O_R   0.695690 0.001860 0.446640 -0.501749
C97   C     C_2   0.327967 0.095042 0.817815 0.673872
O27   O     O_2   0.386706 0.140018 0.819449 -0.476940
O28   O     O_R   0.342297 0.013659 0.852071 -0.625691
H28   H     H_    0.405610 0.997272 0.875886 0.362636
Br1   Br    Br    0.426879 0.385906 0.800394 -0.359032
C98   C     C_2   0.690934 0.969904 0.816078 0.588716
O29   O     O_2   0.785980 0.908728 0.832502 -0.521690
O30   O     O_R   0.601807 0.950381 0.827652 -0.646259
H29   H     H_    0.626456 0.882572 0.849652 0.332307
Br2   Br    Br    0.439274 0.743834 0.120495 -0.328441
C99   C     C_2   0.422031 0.609204 0.208986 0.614475
O31   O     O_2   0.324878 0.645533 0.224246 -0.464712
O32   O     O_R   0.462589 0.531464 0.170271 -0.678072
H30   H     H_    0.403343 0.512899 0.157656 0.366225
C100  C     C_2   0.497375 0.644600 0.389767 0.579730
O33   O     O_2   0.538310 0.569077 0.419942 -0.517601
O34   O     O_R   0.379310 0.708116 0.383916 -0.650022
H31   H     H_    0.336872 0.682145 0.406107 0.357086
C101  C     C_2   0.127931 0.038883 0.396724 0.578459
O35   O     O_2   0.146262 0.941971 0.390560 -0.483439
O36   O     O_R   0.065432 0.102030 0.437264 -0.693195
H32   H     H_    0.038641 0.058875 0.458454 0.345257
C102  C     C_2   0.999834 0.006054 0.222974 0.578330
O37   O     O_2   0.023821 0.957187 0.183541 -0.469353
O38   O     O_R   0.915444 0.004965 0.252103 -0.704645
H33   H     H_    0.879766 0.962571 0.236287 0.348529
C103  C     C_2   0.573401 0.884352 0.727178 0.620595
O39   O     O_2   0.476950 0.953389 0.739971 -0.469620
O40   O     O_R   0.630493 0.913086 0.692778 -0.714894
H34   H     H_    0.577766 0.988565 0.677240 0.322103
C104  C     C_2   0.235579 0.282908 0.117317 0.592230
O41   O     O_2   0.229029 0.373331 0.128375 -0.518180
O42   O     O_R   0.281666 0.231995 0.072305 -0.651252
H35   H     H_    0.308202 0.277243 0.052397 0.350777
Br3   Br    Br    0.433149 0.773420 0.814438 -0.283082
Br4   Br    Br    0.590620 0.947865 0.165248 -0.501601
Br5   Br    Br    0.512145 0.562542 0.714627 -0.367077
C105  C     C_2   0.778029 0.425353 0.779932 0.585874
O43   O     O_2   0.795197 0.357557 0.747401 -0.577557
O44   O     O_R   0.807072 0.389356 0.827914 -0.705761
H36   H     H_    0.843223 0.304241 0.831444 0.319798
Br6   Br    Br    0.266608 0.919593 0.720755 -0.340007

loop_
_geom_bond_atom_site_label_1
_geom_bond_atom_site_label_2
_ccdc_geom_bond_type
C83   C87   A    
C23   O23   A    
C8    C78   S    
Cr5   O19   S    
C40   C52   A    
C41   C42   A    
C66   C68   A    
O30   H29   S    
C95   O16   A    
C74   C83   A    
C43   C44   A    
C2    C12   S    
C20   C21   S    
C56   O4    A    
C7    C8    S    
C47   C49   A    
C85   C86   A    
O34   H31   S    
C79   H19   S    
Cr5   O16   S    
C3    C105  S    
Cr3   O3    S    
C94   O14   A    
C29   H7    S    
C97   O27   D    
C19   C21   S    
Cr4   O19   S    
Cr1   O1    S    
C5    C6    S    
C75   C87   A    
Cr5   O15   S    
C86   C88   A    
C100  O33   D    
C65   C70   A    
C17   C20   S    
O40   H34   S    
Cr3   O4    S    
C18   C19   S    
C31   H6    S    
C69   C71   A    
C101  O35   D    
C68   H16   S    
C91   O8    A    
C13   H26   S    
C44   C53   A    
C42   H12   S    
C40   C43   A    
C91   O7    A    
C31   C32   S    
C68   C69   A    
C56   C72   S    
C74   C77   A    
Cr2   O2    S    
C50   C99   S    
C1    C28   S    
C31   C33   S    
C7    Br3   S    
C1    O20   A    
C43   H8    S    
Cr1   O24   S    
C80   C96   S    
C29   C30   S    
C55   C72   A    
Cr4   O6    S    
Cr6   O19   S    
C58   C61   A    
C15   C23   S    
C92   O9    A    
C59   C60   A    
C81   H25   S    
C99   O32   S    
C12   O22   A    
C61   C62   A    
C67   C78   S    
Cr1   O5    S    
C4    C7    S    
C11   H27   S    
C98   O30   S    
C25   H4    S    
C102  O37   D    
C39   C42   A    
C103  O40   S    
O36   H32   S    
C34   O25   A    
C73   C74   A    
C25   C29   S    
C38   C39   A    
C3    C67   S    
C51   C52   A    
C32   C35   S    
C12   O21   A    
C53   Br2   S    
C1    O12   A    
C76   C77   A    
C9    C89   T    
C5    C7    S    
Cr5   O8    S    
C86   C87   A    
C16   C17   S    
C57   C60   A    
C6    C8    S    
C105  O44   S    
C58   C59   A    
C34   O26   A    
Cr3   O22   S    
C81   C82   A    
O44   H36   S    
C23   O1    A    
Cr6   O11   S    
O42   H35   S    
C51   C53   A    
C64   C66   A    
C33   C98   S    
C75   C76   A    
C34   C90   S    
C55   C101  S    
C4    C78   S    
C88   H23   S    
Cr6   O18   S    
C11   C16   S    
C47   C48   A    
C38   C54   A    
C11   C19   S    
C46   C54   A    
C61   H14   S    
C50   C51   A    
C13   C21   S    
C60   H15   S    
C18   H2    S    
C32   C37   S    
C84   C85   A    
C89   C92   S    
C26   Br1   S    
Cr1   O12   S    
C21   Br6   S    
C16   H3    S    
C104  O41   D    
C81   C90   A    
C67   H9    S    
O32   H30   S    
C49   H13   S    
C45   C54   S    
C82   C83   A    
C82   C84   A    
C66   H17   S    
C55   C57   A    
O28   H28   S    
C49   C50   A    
C79   C80   A    
C27   C93   S    
C75   C79   A    
C71   C104  S    
C104  O42   S    
C3    C4    S    
C2    C10   T    
C3    C5    S    
C6    C67   S    
O38   H33   S    
Cr2   O21   S    
C8    C103  S    
C96   O18   A    
Cr2   O26   S    
C40   C41   A    
C20   C97   S    
C30   C33   S    
C78   H1    S    
C73   C90   A    
C76   H21   S    
C73   H20   S    
C59   C102  S    
C58   C70   A    
C5    Br5   S    
C41   H11   S    
C56   O24   A    
C93   O6    A    
Cr4   O14   S    
Cr1   O25   S    
C6    C10   S    
C102  O38   S    
Cr5   O9    S    
C45   O2    A    
C80   C88   A    
C30   C36   S    
C27   C36   T    
C85   Br4   S    
Cr3   O23   S    
Cr2   O5    S    
C17   C22   S    
C13   C17   S    
C94   O15   A    
C64   C65   A    
C14   C22   T    
C84   H24   S    
C62   C94   S    
C19   C24   S    
C25   C26   S    
C29   C31   S    
C77   H22   S    
C98   O29   D    
Cr6   O17   S    
C15   C24   T    
C63   H18   S    
C11   C13   S    
C99   O31   D    
C100  O34   S    
C28   C37   T    
C25   C32   S    
C97   O28   S    
C33   C35   S    
C62   C71   A    
C18   C20   S    
Cr6   O10   S    
C69   C70   A    
C101  O36   S    
C14   C91   S    
C46   C47   A    
C35   H5    S    
C96   O13   A    
C63   C64   A    
C46   C100  S    
C26   C35   S    
C48   C52   A    
C63   C72   A    
Cr3   O5    S    
C45   O3    A    
C16   C18   S    
C105  O43   D    
Cr4   O7    S    
C93   O11   A    
C95   O17   A    
Cr4   O13   S    
C4    C9    S    
C92   O10   A    
C38   H10   S    
Cr2   O20   S    
C44   C95   S    
C103  O39   D    
C39   C48   A    
C57   C65   A    
C26   C30   S    
