data_mof_unit_50809.cif
_audit_creation_date              2012-12-10T20:49:28-0500
_audit_creation_method            fapswitch 2.2
_symmetry_space_group_name_H-M    P1
_symmetry_Int_Tables_number       1
_space_group_crystal_system       triclinic
_cell_length_a                    15.776488
_cell_length_b                    8.924132
_cell_length_c                    8.1154
_cell_angle_alpha                 89.994339
_cell_angle_beta                  90.103502
_cell_angle_gamma                 89.980129
_cell_volume                      1142.57708728

loop_
_atom_site_label
_atom_site_type_symbol
_atom_type_description
_atom_site_fract_x
_atom_site_fract_y
_atom_site_fract_z
_atom_type_partial_charge
C1    C     C_1   0.500001 0.065215 0.500008 -0.156507
C2    C     C_3   0.972653 0.612880 0.593590 -0.032773
C3    C     C_1   0.248954 0.500360 0.499320 -0.104789
C4    C     C_1   0.751045 0.499640 0.500680 -0.104789
C5    C     C_3   0.029810 0.483418 0.655551 -0.331986
C6    C     C_3   0.970190 0.516582 0.344449 -0.331986
C7    C     C_3   0.083312 0.500530 0.497808 0.152305
C8    C     C_3   0.916687 0.499470 0.502192 0.152305
C9    C     C_1   0.173936 0.500549 0.498589 0.091530
C10   C     C_1   0.826064 0.499451 0.501411 0.091530
C11   C     C_2   0.055613 0.259201 0.300233 0.391980
C12   C     C_1   0.499999 0.934785 0.499992 -0.156507
C13   C     C_2   0.944387 0.740799 0.699767 0.391980
C14   C     C_2   0.945035 0.223091 0.632682 0.388834
C15   C     C_2   0.054965 0.776909 0.367318 0.388834
C16   C     C_R   0.500003 0.218031 0.500005 0.939444
C17   C     C_R   0.499997 0.781969 0.499994 0.939444
C18   C     C_R   0.337545 0.500082 0.499813 0.900300
C19   C     C_R   0.662455 0.499918 0.500187 0.900301
C20   C     C_3   0.972939 0.370215 0.562182 -0.029018
C21   C     C_3   0.027061 0.629785 0.437818 -0.029018
C22   C     C_3   0.027347 0.387120 0.406410 -0.032773
H1    H     H_    0.008637 0.187214 0.243094 0.068413
H2    H     H_    0.991363 0.812786 0.756906 0.068413
H3    H     H_    0.992199 0.141214 0.669665 0.067022
H4    H     H_    0.007801 0.858786 0.330335 0.067022
H5    H     H_    0.944980 0.530065 0.217474 0.167681
H6    H     H_    0.055020 0.469934 0.782526 0.167681
N1    N     N_1   0.500010 0.500000 0.073640 -0.018596
N2    N     N_1   0.499990 0.500000 0.926360 -0.018596
O1    O     O_R   0.500000 0.285340 0.636850 -0.613686
O2    O     O_2   0.869168 0.764884 0.722341 -0.536258
O3    O     O_2   0.869893 0.194417 0.648594 -0.539469
O4    O     O_2   0.130107 0.805583 0.351406 -0.539469
O5    O     O_R   0.500000 0.714660 0.363150 -0.613686
O6    O     O_R   0.500000 0.285340 0.363150 -0.613226
O7    O     O_R   0.500000 0.714660 0.636850 -0.613226
O8    O     O_R   0.376770 0.500000 0.636850 -0.620961
O9    O     O_R   0.623230 0.500000 0.363150 -0.620961
O10   O     O_R   0.376780 0.500000 0.363100 -0.599516
O11   O     O_R   0.623220 0.500000 0.636900 -0.599516
O12   O     O_2   0.130832 0.235115 0.277658 -0.536258
Zn1   Zn    Zn3+2 0.499990 0.500000 0.682780 1.029278
Zn2   Zn    Zn3+2 0.500010 0.500000 0.317220 1.029278

loop_
_geom_bond_atom_site_label_1
_geom_bond_atom_site_label_2
_ccdc_geom_bond_type
C12   C17   S    
O7    Zn1   S    
C13   O2    D    
N1    N2    T    
C3    C9    T    
C5    H6    S    
C15   O4    D    
C6    H5    S    
C4    C19   S    
C15   C21   S    
C14   O3    D    
C18   O8    A    
O8    Zn1   S    
N1    Zn2   S    
C1    C16   S    
C17   O7    A    
C16   O6    A    
C16   O1    A    
O5    Zn2   S    
O11   Zn1   S    
C8    C20   S    
C1    C12   T    
O1    Zn1   S    
C2    C21   S    
C19   O9    A    
C11   H1    S    
C20   C22   S    
C5    C7    S    
C14   H3    S    
N2    Zn1   S    
O6    Zn2   S    
C2    C5    S    
O9    Zn2   S    
C4    C10   T    
C7    C22   S    
C14   C20   S    
O10   Zn2   S    
C3    C18   S    
C7    C9    S    
C5    C20   S    
C2    C13   S    
C18   O10   A    
C11   C22   S    
C15   H4    S    
C6    C8    S    
C11   O12   D    
C17   O5    A    
C7    C21   S    
C6    C21   S    
C8    C10   S    
C2    C8    S    
C19   O11   A    
C13   H2    S    
C6    C22   S    
