data_mof_unit_20672.cif
_audit_creation_date              2012-12-11T14:06:37-0500
_audit_creation_method            fapswitch 2.2
_symmetry_space_group_name_H-M    P1
_symmetry_Int_Tables_number       1
_space_group_crystal_system       triclinic
_cell_length_a                    6.922677
_cell_length_b                    17.277731
_cell_length_c                    24.122071
_cell_angle_alpha                 104.557439
_cell_angle_beta                  90.431627
_cell_angle_gamma                 89.971802
_cell_volume                      2792.48822869

loop_
_atom_site_label
_atom_site_type_symbol
_atom_type_description
_atom_site_fract_x
_atom_site_fract_y
_atom_site_fract_z
_atom_type_partial_charge
O1    O     O_R   0.494290 0.391990 0.999150 -0.535071
O2    O     O_R   0.827170 0.534410 0.082350 -0.542996
O3    O     O_R   0.994360 0.608010 0.000850 -0.535169
C1    C     C_R   0.658533 0.549633 0.106173 0.706545
O4    O     O_R   0.824210 0.388010 0.004470 -0.545911
O5    O     O_R   0.991370 0.460560 0.922410 -0.540670
C2    C     C_R   0.654555 0.354865 0.001472 0.775770
O6    O     O_R   0.497270 0.539440 0.077590 -0.540873
O7    O     O_3   0.659770 0.523970 0.973170 -0.371350
V1    V     V_3+5 0.935840 0.495550 0.004980 1.413782
O8    O     O_R   0.320910 0.465590 0.917650 -0.543660
C3    C     C_R   0.151278 0.450436 0.893864 0.707208
O9    O     O_R   0.323870 0.611990 0.995530 -0.545914
C4    C     C_R   0.154402 0.645129 0.998523 0.776040
V2    V     V_3+5 0.435470 0.504450 0.995020 1.413704
O10   O     O_3   0.161670 0.476030 0.026830 -0.371345
C5    C     C_2   0.142802 0.730281 0.998093 -0.339513
H1    H     H_    0.277248 0.761144 0.994716 0.150532
C6    C     C_2   0.972746 0.769755 0.002022 -0.339792
H2    H     H_    0.838301 0.738892 0.005398 0.150670
C7    C     C_R   0.036381 0.255855 0.625878 0.584049
N1    N     N_R   0.098076 0.332897 0.648231 -0.561925
C8    C     C_R   0.146099 0.380917 0.612959 0.607732
C9    C     C_R   0.133355 0.351852 0.552871 -0.050088
C10   C     C_R   0.070057 0.273137 0.529316 -0.014981
C11   C     C_R   0.020688 0.224576 0.566166 -0.026608
C12   C     C_R   0.185426 0.399526 0.516173 -0.074517
C13   C     C_R   0.177290 0.370252 0.456247 -0.041817
C14   C     C_R   0.105996 0.291281 0.431737 -0.102681
C15   C     C_R   0.055784 0.242796 0.468992 -0.006473
C16   C     C_R   0.990797 0.163624 0.446200 -0.023756
C17   C     C_R   0.942767 0.115831 0.483440 -0.083184
C18   C     C_R   0.957535 0.145895 0.542624 -0.102430
C19   C     C_R   0.077598 0.258879 0.371800 0.554376
N2    N     N_R   0.018794 0.181093 0.350660 -0.552942
C20   C     C_R   0.976056 0.133591 0.386551 0.590253
O11   O     O_2   0.991808 0.209305 0.661280 -0.514368
O12   O     O_2   0.204661 0.456773 0.635885 -0.508071
H3    H     H_    0.239417 0.459531 0.534295 0.199371
O13   O     O_2   0.101737 0.304867 0.334810 -0.530139
O14   O     O_2   0.919944 0.057168 0.364515 -0.509749
H4    H     H_    0.893223 0.054846 0.466983 0.175676
H5    H     H_    0.919173 0.107160 0.569845 0.170339
C21   C     C_R   0.823709 0.126164 0.262982 -0.075950
H6    H     H_    0.693786 0.134157 0.288501 0.121607
C22   C     C_R   0.810260 0.094075 0.203590 -0.194861
H7    H     H_    0.669190 0.077943 0.184510 0.130089
C23   C     C_R   0.977075 0.083212 0.169392 -0.058308
C24   C     C_R   0.157301 0.105366 0.196269 -0.192657
H8    H     H_    0.288868 0.098204 0.171514 0.130050
C25   C     C_R   0.170280 0.137609 0.255514 -0.087525
H9    H     H_    0.310364 0.154085 0.275215 0.115916
C26   C     C_R   0.003843 0.148313 0.289373 0.384310
C27   C     C_R   0.292147 0.383320 0.736586 -0.076788
H10   H     H_    0.422400 0.375976 0.711231 0.126941
C28   C     C_R   0.305513 0.411579 0.796288 -0.194675
H11   H     H_    0.446781 0.425841 0.815727 0.129900
C29   C     C_R   0.138428 0.421000 0.830325 -0.058542
C30   C     C_R   0.957891 0.401670 0.802950 -0.195462
H12   H     H_    0.826086 0.408092 0.827564 0.130527
C31   C     C_R   0.944962 0.373322 0.743352 -0.078595
H13   H     H_    0.804726 0.358680 0.723274 0.123335
C32   C     C_R   0.111831 0.363727 0.709682 0.372654
C33   C     C_R   0.470569 0.869368 0.613405 0.552513
N3    N     N_R   0.504436 0.820262 0.648925 -0.542499
C34   C     C_R   0.555823 0.741953 0.627648 0.554906
C35   C     C_R   0.589737 0.710708 0.568182 -0.098192
C36   C     C_R   0.543613 0.759779 0.530631 0.001278
C37   C     C_R   0.476461 0.839278 0.552975 -0.100747
C38   C     C_R   0.663152 0.632035 0.544532 -0.046588
C39   C     C_R   0.677907 0.603052 0.484875 -0.075190
C40   C     C_R   0.630630 0.650712 0.447670 -0.047695
C41   C     C_R   0.565015 0.729297 0.470475 -0.015557
C42   C     C_R   0.520931 0.777329 0.432878 -0.065471
C43   C     C_R   0.452045 0.855010 0.455075 -0.119547
C44   C     C_R   0.424579 0.886109 0.514057 -0.035863
C45   C     C_R   0.649920 0.621504 0.387761 0.606672
N4    N     N_R   0.605976 0.669159 0.351774 -0.560314
C46   C     C_R   0.543118 0.746035 0.373325 0.587325
O15   O     O_2   0.437891 0.947578 0.636983 -0.528955
O16   O     O_2   0.568732 0.694507 0.664119 -0.529632
H14   H     H_    0.733588 0.543276 0.467447 0.198180
O17   O     O_2   0.710188 0.545802 0.365726 -0.509423
O18   O     O_2   0.502716 0.792346 0.337261 -0.512317
H15   H     H_    0.412429 0.891174 0.425985 0.205264
C47   C     C_R   0.453991 0.627631 0.255907 -0.080435
H16   H     H_    0.313746 0.642360 0.275285 0.121737
C48   C     C_R   0.466857 0.598860 0.196418 -0.193265
H17   H     H_    0.334846 0.592265 0.171299 0.131008
C49   C     C_R   0.647206 0.579403 0.169768 -0.058962
C50   C     C_R   0.814327 0.589116 0.204576 -0.194359
H18   H     H_    0.955418 0.574754 0.185719 0.129293
C51   C     C_R   0.800996 0.617827 0.264298 -0.076137
H19   H     H_    0.931220 0.625403 0.290256 0.126626
C52   C     C_R   0.620664 0.637640 0.290393 0.372515
C53   C     C_R   0.657254 0.860374 0.744839 -0.092445
H20   H     H_    0.796211 0.842123 0.725614 0.112207
C54   C     C_R   0.645864 0.892287 0.804116 -0.191805
H21   H     H_    0.777521 0.897342 0.829303 0.130284
C55   C     C_R   0.467245 0.916789 0.830488 -0.058413
C56   C     C_R   0.300339 0.908549 0.795669 -0.194478
H22   H     H_    0.160497 0.926580 0.814318 0.130443
C57   C     C_R   0.312279 0.876932 0.736186 -0.081718
H23   H     H_    0.182369 0.871197 0.710179 0.115061
C58   C     C_R   0.490854 0.852404 0.710332 0.393694
C59   C     C_2   0.642919 0.269690 0.001894 -0.339443
H24   H     H_    0.777534 0.238769 0.005259 0.150477
C60   C     C_2   0.472588 0.230269 0.997977 -0.339652
H25   H     H_    0.337971 0.261191 0.994614 0.150599
O19   O     O_R   0.618210 0.960470 0.922400 -0.540860
O20   O     O_R   0.291310 0.111960 0.995450 -0.545973
O21   O     O_R   0.124210 0.039530 0.077580 -0.540676
C61   C     C_R   0.460959 0.145104 0.998425 0.775932
O22   O     O_R   0.288310 0.965490 0.917650 -0.543081
O23   O     O_R   0.121180 0.892010 0.999220 -0.535128
C62   C     C_R   0.456773 0.949355 0.893891 0.705923
O24   O     O_R   0.621230 0.107990 0.000760 -0.535099
O25   O     O_3   0.455770 0.976060 0.026840 -0.371135
V3    V     V_3+5 0.179680 0.004440 0.995020 1.413657
O26   O     O_R   0.791670 0.888040 0.004570 -0.545972
C63   C     C_R   0.961140 0.854901 0.001574 0.776182
O27   O     O_R   0.794680 0.034510 0.082370 -0.543609
C64   C     C_R   0.964234 0.050616 0.106073 0.707244
V4    V     V_3+5 0.680070 0.995560 0.005010 1.413913
O28   O     O_3   0.953840 0.023940 0.973160 -0.371247
C65   C     C_2   0.740583 0.579955 0.580011 0.475053
H26   H     H_    0.813650 0.605466 0.620340 0.108176
O29   O     O_2   0.729155 0.507214 0.563468 -0.524809
C66   C     C_2   0.328002 0.965212 0.532116 0.435140
H27   H     H_    0.227907 0.977939 0.567577 0.099332
O30   O     O_2   0.355036 0.016534 0.506214 -0.526405
C67   C     C_2   0.257356 0.422655 0.421715 0.474354
H28   H     H_    0.335015 0.397575 0.382492 0.110978
O31   O     O_2   0.242976 0.495310 0.437932 -0.524893

loop_
_geom_bond_atom_site_label_1
_geom_bond_atom_site_label_2
_ccdc_geom_bond_type
C53   C58   A    
C65   H26   S    
O23   C63   A    
N2    C26   S    
C41   C42   A    
N2    C20   A    
C55   C62   S    
C9    C12   A    
C1    O6    A    
C23   C64   S    
C45   N4    A    
C60   H25   S    
C56   H22   S    
C19   O13   S    
C13   C14   A    
O24   V4    S    
C16   C20   A    
O5    C3    A    
C46   O18   S    
C47   C48   A    
C27   C32   A    
C45   O17   S    
V2    O10   S    
C54   H21   S    
C28   H11   S    
C37   C44   A    
O20   V3    S    
C19   N2    A    
C31   C32   A    
O25   V3    S    
C40   C45   A    
O19   V4    S    
N1    C32   S    
C27   H10   S    
O8    V2    S    
C21   C26   A    
C43   H15   S    
C6    H2    S    
C12   H3    S    
C36   C37   A    
C24   C25   A    
C53   C54   A    
C8    C9    A    
C38   C39   A    
O1    V2    S    
O7    V1    S    
O22   V3    S    
C39   H14   S    
C3    C29   S    
C38   C65   S    
C34   C35   A    
C30   H12   S    
C56   C57   A    
O1    C2    A    
O9    C4    A    
C33   O15   S    
C4    C5    S    
C20   O14   S    
N3    C58   S    
C7    C11   A    
C21   C22   A    
C1    C49   S    
C22   C23   A    
C30   C31   A    
C42   C43   A    
C35   C36   A    
C18   H5    S    
C9    C10   A    
O21   C64   A    
C57   C58   A    
C50   H18   S    
O4    C2    A    
N4    C46   A    
C67   H28   S    
C36   C41   A    
C14   C19   A    
C25   H9    S    
C13   C67   S    
C60   C61   S    
O2    C1    A    
C43   C44   A    
C14   C15   A    
C50   C51   A    
C44   C66   S    
C11   C18   A    
C16   C17   A    
N4    C52   S    
C53   H20   S    
C5    H1    S    
C2    C59   S    
O20   C61   A    
C51   H19   S    
O25   V4    S    
C33   C37   A    
O3    C4    A    
C61   O24   A    
V3    O28   S    
C67   O31   D    
C23   C24   A    
C48   C49   A    
C24   H8    S    
O6    V2    S    
C54   C55   A    
C42   C46   A    
O9    V2    S    
C29   C30   A    
O27   V4    S    
O2    V1    S    
O19   C62   A    
C57   H23   S    
O26   C63   A    
C66   H27   S    
C10   C15   A    
C22   H7    S    
C6    C63   S    
C65   O29   D    
C47   H16   S    
C21   H6    S    
C40   C41   A    
O5    V1    S    
O21   V3    S    
O22   C62   A    
O8    C3    A    
C27   C28   A    
C8    O12   S    
O23   V3    S    
C35   C38   A    
C17   C18   A    
C10   C11   A    
O4    V1    S    
O3    V1    S    
V1    O10   S    
C33   N3    A    
C34   O16   S    
C49   C50   A    
C15   C16   A    
C59   C60   D    
C55   C56   A    
C5    C6    D    
C28   C29   A    
O7    V2    S    
C31   H13   S    
C47   C52   A    
C39   C40   A    
C7    O11   S    
C48   H17   S    
C51   C52   A    
N3    C34   A    
C59   H24   S    
C12   C13   A    
C17   H4    S    
N1    C8    A    
C25   C26   A    
O27   C64   A    
C7    N1    A    
O26   V4    S    
V4    O28   S    
C66   O30   D    
