data_mof_unit_63421.cif
_audit_creation_date              2012-12-10T16:54:09-0500
_audit_creation_method            fapswitch 2.2
_symmetry_space_group_name_H-M    P1
_symmetry_Int_Tables_number       1
_space_group_crystal_system       triclinic
_cell_length_a                    18.593116
_cell_length_b                    18.595974
_cell_length_c                    42.947147
_cell_angle_alpha                 90.000089
_cell_angle_beta                  90.000061
_cell_angle_gamma                 90.011232
_cell_volume                      14849.2807883

loop_
_atom_site_label
_atom_site_type_symbol
_atom_type_description
_atom_site_fract_x
_atom_site_fract_y
_atom_site_fract_z
_atom_type_partial_charge
C1    C     C_R   0.499999 0.000000 0.584237 0.516216
C2    C     C_R   1.000000 0.500001 0.281851 0.402259
C3    C     C_R   0.014164 0.563933 0.332517 0.214426
C4    C     C_R   0.935737 0.487350 0.832531 0.213533
C5    C     C_R   0.485684 0.936099 0.832516 0.214431
C6    C     C_R   0.064263 0.512650 0.832531 0.213533
C7    C     C_R   0.514313 0.063896 0.832515 0.214433
C8    C     C_R   0.500001 0.999994 0.316024 0.035840
C9    C     C_R   0.000000 0.500000 0.316005 0.034256
C10   C     C_R   0.000000 0.500000 0.816023 0.035861
C11   C     C_R   0.499999 0.999997 0.816004 0.034271
C12   C     C_R   0.500000 0.999999 0.381510 -0.041983
C13   C     C_R   0.000000 0.500000 0.781878 0.402248
C14   C     C_R   1.000000 0.500000 0.381505 -0.041063
C15   C     C_R   1.000000 0.500000 0.881510 -0.041954
C16   C     C_R   0.499999 0.999999 0.881504 -0.041043
C17   C     C_3   0.884143 0.377143 0.615366 0.006431
C18   C     C_3   0.371722 0.890974 0.614728 -0.005777
C19   C     C_3   0.115855 0.622858 0.615367 0.006438
C20   C     C_3   0.628232 0.109104 0.614738 -0.005768
C21   C     C_3   0.383209 0.877962 0.115402 0.006788
C22   C     C_3   0.872202 0.390340 0.114767 -0.005641
C23   C     C_3   0.616826 0.122009 0.115410 0.006762
C24   C     C_R   0.499998 0.999996 0.781849 0.402286
C25   C     C_3   0.127805 0.609642 0.114765 -0.005639
C26   C     C_R   0.938222 0.478326 0.668109 0.206829
C27   C     C_R   0.475121 0.939414 0.668011 0.207357
C28   C     C_R   0.061778 0.521675 0.668109 0.206829
C29   C     C_R   0.524861 0.060585 0.668013 0.207335
C30   C     C_R   0.438069 0.978767 0.168117 0.206781
C31   C     C_R   0.975393 0.439309 0.168018 0.207300
C32   C     C_R   0.561935 0.021210 0.168118 0.206765
C33   C     C_R   0.000000 0.500000 0.584261 0.519871
C34   C     C_R   0.024606 0.560692 0.168018 0.207305
C35   C     C_R   0.939025 0.475607 0.635464 0.235365
C36   C     C_R   0.472549 0.940342 0.635363 0.236250
C37   C     C_R   0.060975 0.524394 0.635464 0.235365
C38   C     C_R   0.527429 0.059664 0.635365 0.236231
C39   C     C_R   0.438853 0.976031 0.135473 0.235266
C40   C     C_R   0.972812 0.440222 0.135370 0.236197
C41   C     C_R   0.561152 0.023949 0.135473 0.235266
C42   C     C_R   0.027189 0.559777 0.135370 0.236200
C43   C     C_R   1.000000 0.500000 0.618807 -0.033083
C44   C     C_R   1.000000 0.500000 0.084239 0.516265
C45   C     C_R   0.499993 0.000002 0.618745 -0.033590
C46   C     C_R   0.500001 0.999993 0.118813 -0.033170
C47   C     C_R   1.000000 0.500000 0.118749 -0.033625
C48   C     C_R   0.000000 0.500000 0.684598 -0.048758
C49   C     C_R   0.499995 0.999996 0.684522 -0.049191
C50   C     C_R   0.500001 0.999990 0.184604 -0.048715
C51   C     C_R   0.999999 0.500001 0.184527 -0.049148
C52   C     C_R   0.500000 1.000000 0.415802 0.519854
C53   C     C_R   1.000000 0.500000 0.415801 0.529800
C54   C     C_R   1.000000 0.500000 0.915802 0.519813
C55   C     C_R   0.500000 0.999998 0.084264 0.519963
C56   C     C_R   0.500000 1.000000 0.915801 0.529767
C57   C     C_R   0.361925 0.138822 0.499716 0.566181
C58   C     C_R   0.862047 0.361048 0.500259 0.567541
C59   C     C_R   0.638075 0.861178 0.499716 0.566182
C60   C     C_R   0.137953 0.638951 0.500259 0.567538
C61   C     C_R   0.638074 0.138828 0.499716 0.557176
C62   C     C_R   0.137961 0.361055 0.500258 0.568685
C63   C     C_R   0.361926 0.861172 0.499716 0.557173
C64   C     C_R   0.862039 0.638945 0.500258 0.568684
C65   C     C_R   0.861925 0.638822 0.999716 0.566233
C66   C     C_R   0.000000 0.500000 0.718876 0.408582
C67   C     C_R   0.362048 0.861048 0.000259 0.567586
C68   C     C_R   0.138075 0.361178 0.999716 0.566233
C69   C     C_R   0.637952 0.138952 0.000259 0.567591
C70   C     C_R   0.138075 0.638827 0.999717 0.557188
C71   C     C_R   0.637961 0.861055 0.000258 0.568724
C72   C     C_R   0.861925 0.361173 0.999716 0.557189
C73   C     C_R   0.362039 0.138945 0.000258 0.568725
C74   C     C_2   0.200896 0.745250 0.481013 0.263192
C75   C     C_2   0.245568 0.191703 0.486756 0.249251
C76   C     C_2   0.799102 0.254752 0.481013 0.263193
C77   C     C_R   0.499997 0.999993 0.718829 0.408425
C78   C     C_2   0.754431 0.808297 0.486756 0.249251
C79   C     C_2   0.799323 0.745511 0.481137 0.255291
C80   C     C_2   0.754276 0.191882 0.486575 0.250960
C81   C     C_2   0.200677 0.254488 0.481137 0.255291
C82   C     C_2   0.245723 0.808119 0.486576 0.250957
C83   C     C_2   0.700892 0.245253 0.981017 0.263235
C84   C     C_2   0.745568 0.691703 0.986756 0.249260
C85   C     C_2   0.299108 0.754746 0.981018 0.263233
C86   C     C_2   0.254431 0.308296 0.986756 0.249261
C87   C     C_2   0.299322 0.245511 0.981137 0.255266
C88   C     C_R   0.500001 0.999991 0.218880 0.408579
C89   C     C_2   0.254282 0.691877 0.986581 0.251019
C90   C     C_2   0.700677 0.754488 0.981137 0.255266
C91   C     C_2   0.745718 0.308123 0.986581 0.251022
C92   C     C_2   0.184792 0.700432 0.504669 0.254580
C93   C     C_2   0.314876 0.200070 0.495203 0.247411
C94   C     C_2   0.815208 0.299568 0.504669 0.254584
C95   C     C_2   0.685124 0.799930 0.495203 0.247411
C96   C     C_2   0.815234 0.700422 0.504720 0.250726
C97   C     C_2   0.685063 0.200129 0.495185 0.246149
C98   C     C_2   0.184766 0.299578 0.504720 0.250726
C99   C     C_R   0.999999 0.500001 0.218832 0.408448
C100  C     C_2   0.314936 0.799871 0.495185 0.246154
C101  C     C_2   0.684784 0.200436 0.004672 0.254644
C102  C     C_2   0.814876 0.700070 0.995203 0.247401
C103  C     C_2   0.315216 0.799564 0.004673 0.254643
C104  C     C_2   0.185123 0.299930 0.995203 0.247401
C105  C     C_2   0.315234 0.200421 0.004720 0.250732
C106  C     C_2   0.185068 0.700127 0.995189 0.246111
C107  C     C_2   0.684766 0.799578 0.004720 0.250731
C108  C     C_2   0.814932 0.299873 0.995189 0.246110
C109  C     C_R   0.435975 0.988044 0.365026 -0.072125
C110  C     C_R   0.500001 0.999993 0.281880 0.402188
C111  C     C_R   0.986291 0.436337 0.365017 -0.064223
C112  C     C_R   0.564025 0.011951 0.365026 -0.072124
C113  C     C_R   0.013709 0.563663 0.365017 -0.064223
C114  C     C_R   0.936029 0.487761 0.865025 -0.072112
C115  C     C_R   0.486145 0.936367 0.865017 -0.064222
C116  C     C_R   0.063971 0.512239 0.865025 -0.072112
C117  C     C_R   0.513853 0.063630 0.865016 -0.064223
C118  C     C_R   0.435680 0.987640 0.332532 0.213520
C119  C     C_R   0.985835 0.436068 0.332517 0.214426
C120  C     C_R   0.564322 0.012351 0.332533 0.213520
Cl1   Cl    Cl    0.173768 0.730251 0.442093 -0.406016
Cl2   Cl    Cl    0.702992 0.606993 0.983600 -0.366486
Cl3   Cl    Cl    0.326221 0.769750 0.942096 -0.406033
Cl4   Cl    Cl    0.297007 0.393006 0.983600 -0.366486
Cl5   Cl    Cl    0.326753 0.230974 0.942226 -0.403984
Cl6   Cl    Cl    0.296886 0.607242 0.983216 -0.369953
Cl7   Cl    Cl    0.673246 0.769024 0.942226 -0.403983
Cl8   Cl    Cl    0.703115 0.392757 0.983215 -0.369950
Cl9   Cl    Cl    0.211368 0.718756 0.543530 -0.542148
Cl10  Cl    Cl    0.356041 0.285998 0.497228 -0.408159
Cl11  Cl    Cl    0.788635 0.281242 0.543530 -0.542172
Cl12  Cl    Cl    0.202993 0.106993 0.483600 -0.366584
Cl13  Cl    Cl    0.643959 0.714001 0.497228 -0.408158
Cl14  Cl    Cl    0.788355 0.718252 0.543590 -0.449033
Cl15  Cl    Cl    0.643914 0.286024 0.497439 -0.410084
Cl16  Cl    Cl    0.211645 0.281748 0.543590 -0.449034
Cl17  Cl    Cl    0.356085 0.713976 0.497437 -0.410072
Cl18  Cl    Cl    0.711342 0.218764 0.043536 -0.542606
Cl19  Cl    Cl    0.856041 0.785998 0.997227 -0.408232
Cl20  Cl    Cl    0.288659 0.781237 0.043536 -0.542587
Cl21  Cl    Cl    0.143958 0.214001 0.997227 -0.408231
Cl22  Cl    Cl    0.288354 0.218251 0.043590 -0.448732
Cl23  Cl    Cl    0.826227 0.269753 0.442092 -0.406020
Cl24  Cl    Cl    0.143925 0.786023 0.997447 -0.410316
Cl25  Cl    Cl    0.711646 0.781749 0.043590 -0.448736
Cl26  Cl    Cl    0.856076 0.213977 0.997447 -0.410323
Cl27  Cl    Cl    0.353017 0.974061 0.313328 -0.385963
Cl28  Cl    Cl    0.969804 0.353888 0.313295 -0.378848
Cl29  Cl    Cl    0.646985 0.025927 0.313329 -0.385962
Cl30  Cl    Cl    0.030196 0.646113 0.313295 -0.378846
Cl31  Cl    Cl    0.853145 0.473375 0.813323 -0.385983
Cl32  Cl    Cl    0.469448 0.853960 0.813293 -0.378851
Cl33  Cl    Cl    0.146855 0.526625 0.813324 -0.385980
Cl34  Cl    Cl    0.797007 0.893006 0.483600 -0.366581
Cl35  Cl    Cl    0.530549 0.146033 0.813291 -0.378848
Cl36  Cl    Cl    0.857519 0.456534 0.687753 -0.375416
Cl37  Cl    Cl    0.449042 0.859952 0.687607 -0.376708
Cl38  Cl    Cl    0.142481 0.543467 0.687753 -0.375404
Cl39  Cl    Cl    0.550920 0.140049 0.687612 -0.376774
Cl40  Cl    Cl    0.357206 0.957588 0.187764 -0.375518
Cl41  Cl    Cl    0.949688 0.359731 0.187619 -0.376909
Cl42  Cl    Cl    0.642800 0.042376 0.187766 -0.375565
Cl43  Cl    Cl    0.050316 0.640269 0.187619 -0.376886
Cl44  Cl    Cl    0.826753 0.730974 0.442226 -0.403971
Cl45  Cl    Cl    0.796883 0.107248 0.483212 -0.370063
Cl46  Cl    Cl    0.173246 0.269025 0.442226 -0.403970
Cl47  Cl    Cl    0.203116 0.892753 0.483214 -0.370070
Cl48  Cl    Cl    0.673778 0.230249 0.942096 -0.406034
H1    H     H_    0.385995 0.978789 0.377356 0.206506
H2    H     H_    0.930673 0.363667 0.600146 0.108009
H3    H     H_    0.834730 0.357957 0.603542 0.221436
H4    H     H_    0.341908 0.895240 0.637123 0.165733
H5    H     H_    0.350456 0.843509 0.602072 0.198034
H6    H     H_    0.361163 0.939165 0.600051 0.097897
H7    H     H_    0.111559 0.652157 0.637892 0.161099
H8    H     H_    0.069326 0.636333 0.600145 0.108007
H9    H     H_    0.165268 0.642045 0.603543 0.221441
H10   H     H_    0.638844 0.060888 0.600085 0.097887
H11   H     H_    0.658041 0.104925 0.637138 0.165837
H12   H     H_    0.975619 0.386654 0.377355 0.215113
H13   H     H_    0.649456 0.156559 0.602063 0.198027
H14   H     H_    0.387259 0.848663 0.137935 0.161104
H15   H     H_    0.429646 0.864100 0.100192 0.108394
H16   H     H_    0.333659 0.859146 0.103573 0.221382
H17   H     H_    0.842403 0.394353 0.137175 0.165833
H18   H     H_    0.851177 0.342806 0.102085 0.198057
H19   H     H_    0.861352 0.438528 0.100128 0.098007
H20   H     H_    0.612881 0.151297 0.137949 0.161238
H21   H     H_    0.570342 0.135908 0.100234 0.108338
H22   H     H_    0.666344 0.140799 0.103549 0.221370
H23   H     H_    0.614006 0.021207 0.377356 0.206506
H24   H     H_    0.157605 0.605606 0.137172 0.165806
H25   H     H_    0.148840 0.657181 0.102089 0.198062
H26   H     H_    0.138643 0.561463 0.100120 0.098011
H27   H     H_    0.024381 0.613346 0.377355 0.215113
H28   H     H_    0.886094 0.478274 0.877356 0.206445
H29   H     H_    0.475357 0.886710 0.877355 0.215085
H30   H     H_    0.113906 0.521726 0.877356 0.206445
H31   H     H_    0.524642 0.113288 0.877354 0.215084
H32   H     H_    0.888437 0.347844 0.637892 0.161098
N1    N     N_R   0.522533 0.058712 0.265895 -0.120565
N2    N     N_R   0.559738 0.019623 0.734878 -0.121458
N3    N     N_R   0.977993 0.441095 0.734914 -0.121706
N4    N     N_R   0.440256 0.980366 0.734879 -0.121447
N5    N     N_R   0.522398 0.058750 0.234917 -0.121732
N6    N     N_R   0.059668 0.519851 0.234881 -0.121474
N7    N     N_R   0.477605 0.941232 0.234917 -0.121724
N8    N     N_R   0.940331 0.480151 0.234881 -0.121476
N9    N     N_R   0.059632 0.520006 0.265863 -0.120601
N10   N     N_R   0.477470 0.941272 0.265896 -0.120563
N11   N     N_R   0.940368 0.479995 0.265863 -0.120602
N12   N     N_R   0.022145 0.558866 0.765893 -0.120600
N13   N     N_R   0.559703 0.019781 0.765861 -0.120620
N14   N     N_R   0.977855 0.441133 0.765893 -0.120601
N15   N     N_R   0.440293 0.980210 0.765862 -0.120618
N16   N     N_R   0.022008 0.558905 0.734914 -0.121704
O1    O     O_3   0.500000 1.000000 0.500000 -0.518313
O2    O     O_R   0.560150 0.000000 0.069320 -0.491884
O3    O     O_R   0.000000 0.560150 0.069320 -0.497143
O4    O     O_R   0.439850 0.000000 0.069320 -0.491891
O5    O     O_R   0.439930 1.000000 0.430670 -0.525324
O6    O     O_R   1.000000 0.439930 0.430670 -0.510929
O7    O     O_R   0.560070 1.000000 0.430670 -0.525325
O8    O     O_R   0.000000 0.560070 0.430670 -0.510929
O9    O     O_R   0.939930 0.500000 0.930670 -0.525296
O10   O     O_R   0.500000 0.939930 0.930670 -0.510921
O11   O     O_R   0.060070 0.500000 0.930670 -0.525296
O12   O     O_3   0.000000 0.500000 0.500000 -0.521296
O13   O     O_R   0.500000 0.060070 0.930670 -0.510918
O14   O     O_R   0.415450 0.144560 0.518170 -0.482309
O15   O     O_R   0.855440 0.415450 0.518170 -0.491827
O16   O     O_R   0.584550 0.855440 0.518170 -0.482307
O17   O     O_R   0.144560 0.584550 0.518170 -0.491825
O18   O     O_R   0.584550 0.144560 0.518170 -0.492445
O19   O     O_R   0.144560 0.415450 0.518170 -0.483170
O20   O     O_R   0.415450 0.855440 0.518170 -0.492430
O21   O     O_R   0.855440 0.584550 0.518170 -0.483170
O22   O     O_R   0.915450 0.644560 0.018170 -0.482268
O23   O     O_3   0.000000 0.500000 0.000000 -0.518289
O24   O     O_R   0.355440 0.915450 0.018170 -0.492071
O25   O     O_R   0.084550 0.355440 0.018170 -0.482268
O26   O     O_R   0.644560 0.084550 0.018170 -0.492079
O27   O     O_R   0.084550 0.644560 0.018170 -0.492581
O28   O     O_R   0.644560 0.915450 0.018170 -0.483140
O29   O     O_R   0.915450 0.355440 0.018170 -0.492584
O30   O     O_R   0.355440 0.084550 0.018170 -0.483138
O31   O     O_R   0.644640 0.915430 0.481820 -0.500168
O32   O     O_R   0.084570 0.644640 0.481820 -0.504494
O33   O     O_R   0.355360 0.084570 0.481820 -0.500168
O34   O     O_3   0.500000 0.000000 0.000000 -0.521238
O35   O     O_R   0.915430 0.355360 0.481820 -0.504494
O36   O     O_R   0.355360 0.915430 0.481820 -0.499137
O37   O     O_R   0.915430 0.644640 0.481820 -0.504077
O38   O     O_R   0.644640 0.084570 0.481820 -0.499132
O39   O     O_R   0.084570 0.355360 0.481820 -0.504077
O40   O     O_R   0.144640 0.415430 0.981820 -0.500157
O41   O     O_R   0.584570 0.144640 0.981820 -0.504442
O42   O     O_R   0.855360 0.584570 0.981820 -0.500157
O43   O     O_R   0.415430 0.855360 0.981820 -0.504446
O44   O     O_R   0.855360 0.415430 0.981820 -0.499120
O45   O     O_R   0.500000 0.939850 0.569320 -0.497129
O46   O     O_R   0.415430 0.144640 0.981820 -0.504048
O47   O     O_R   0.144640 0.584570 0.981820 -0.499120
O48   O     O_R   0.584570 0.855360 0.981820 -0.504049
O49   O     O_3   0.878256 0.452044 0.619926 -0.469799
O50   O     O_3   0.446029 0.880880 0.619761 -0.470320
O51   O     O_3   0.121743 0.547957 0.619926 -0.469797
O52   O     O_3   0.553915 0.119142 0.619763 -0.470342
O53   O     O_3   0.377905 0.952915 0.119941 -0.469865
O54   O     O_3   0.946570 0.380632 0.119771 -0.470350
O55   O     O_3   0.622104 0.047052 0.119941 -0.469881
O56   O     O_R   0.060150 0.500000 0.569320 -0.491811
O57   O     O_3   0.053439 0.619363 0.119771 -0.470344
O58   O     O_R   0.500000 0.060150 0.569320 -0.497133
O59   O     O_R   0.939850 0.500000 0.569320 -0.491811
O60   O     O_R   1.000000 0.439850 0.069320 -0.497142
Zn1   Zn    Zn3+2 0.414160 0.000000 0.474030 1.048441
Zn2   Zn    Zn3+2 0.914220 0.500000 0.525960 1.052183
Zn3   Zn    Zn3+2 0.500000 0.914220 0.525960 1.051813
Zn4   Zn    Zn3+2 0.085780 0.500000 0.525960 1.052185
Zn5   Zn    Zn3+2 0.000000 0.585780 0.025960 1.051742
Zn6   Zn    Zn3+2 0.414220 0.000000 0.025960 1.052048
Zn7   Zn    Zn3+2 1.000000 0.414220 0.025960 1.051738
Zn8   Zn    Zn3+2 0.585780 0.000000 0.025960 1.052039
Zn9   Zn    Zn3+2 1.000000 0.414160 0.474030 1.053792
Zn10  Zn    Zn3+2 0.585840 0.000000 0.474030 1.048445
Zn11  Zn    Zn3+2 0.000000 0.585840 0.474030 1.053792
Zn12  Zn    Zn3+2 0.914160 0.500000 0.974030 1.048484
Zn13  Zn    Zn3+2 0.500000 0.914160 0.974030 1.053866
Zn14  Zn    Zn3+2 0.085840 0.500000 0.974030 1.048483
Zn15  Zn    Zn3+2 0.500000 0.085840 0.974030 1.053873
Zn16  Zn    Zn3+2 0.500000 0.085780 0.525960 1.051796

loop_
_geom_bond_atom_site_label_1
_geom_bond_atom_site_label_2
_ccdc_geom_bond_type
C13   N14   A    
C40   C47   A    
O23   Zn12  S    
C16   C115  A    
C70   O27   A    
C22   H18   S    
C61   O38   A    
C57   O14   A    
C57   O33   A    
C71   C107  S    
C80   C97   D    
C21   H16   S    
O20   Zn3   S    
C84   C102  D    
C67   O24   A    
N3    N14   A    
C26   Cl36  S    
C16   C56   S    
C34   C42   A    
C23   H21   S    
C79   Cl44  S    
C74   Cl1   S    
C86   C104  D    
C77   N2    A    
C20   O52   S    
O3    Zn5   S    
O40   Zn14  S    
C8    C118  A    
O1    Zn10  S    
C29   Cl39  S    
C29   C49   A    
O59   Zn2   S    
C75   Cl12  S    
C53   O8    A    
C30   Cl40  S    
C115  H29   S    
N4    N15   A    
C23   O55   S    
C2    N11   A    
O34   Zn13  S    
C114  H28   S    
C110  N1    A    
O19   Zn4   S    
O16   Zn3   S    
C4    C114  A    
C118  Cl27  S    
C74   C82   S    
C90   C107  D    
C5    C11   A    
O6    Zn9   S    
C82   Cl47  S    
C23   H20   S    
C107  Cl25  S    
C24   N15   A    
C69   O26   A    
O23   Zn5   S    
C81   C98   D    
O43   Zn13  S    
O2    Zn8   S    
O11   Zn14  S    
C98   Cl16  S    
C11   C24   S    
C95   Cl13  S    
O10   Zn13  S    
O46   Zn15  S    
C17   H32   S    
C111  C119  A    
C37   O51   S    
C74   C92   D    
C22   H19   S    
C4    Cl31  S    
C38   O52   S    
C19   H8    S    
C38   C45   A    
C25   O57   S    
C58   O15   A    
C76   C94   D    
C63   O20   A    
C62   C98   S    
C42   O57   S    
O5    Zn1   S    
O12   Zn9   S    
C72   C108  S    
O33   Zn1   S    
C3    Cl30  S    
C32   Cl42  S    
C46   C55   S    
O29   Zn7   S    
N7    N10   A    
C17   O49   S    
C90   Cl7   S    
C85   Cl3   S    
C59   O31   A    
O18   Zn16  S    
C55   O2    A    
C35   C43   A    
C68   O25   A    
O1    Zn16  S    
C85   C103  D    
C44   C47   S    
C26   C48   A    
C42   C47   A    
O35   Zn9   S    
O48   Zn13  S    
C22   O54   S    
O1    Zn1   S    
C63   O36   A    
C30   C50   A    
C81   Cl46  S    
C52   O5    A    
O56   Zn4   S    
C57   C93   S    
C5    C115  A    
C66   N16   A    
C61   O18   A    
O34   Zn6   S    
C13   N12   A    
C58   O35   A    
C110  N10   A    
C44   O3    A    
C59   C95   S    
C65   C102  S    
O25   Zn7   S    
O31   Zn10  S    
C120  Cl29  S    
C59   O16   A    
O26   Zn8   S    
C12   C109  A    
C12   C52   S    
C109  H1    S    
C109  C118  A    
C20   H11   S    
C108  Cl26  S    
C89   Cl6   S    
C60   C92   S    
C51   C99   S    
C70   O47   A    
C94   Cl11  S    
C61   C97   S    
C18   H4    S    
O28   Zn8   S    
C12   C112  A    
C91   Cl8   S    
C99   N6    A    
C21   O53   S    
C33   C43   S    
O9    Zn12  S    
N12   N16   A    
C75   C93   D    
O13   Zn15  S    
C29   C38   A    
C69   O41   A    
C64   C96   S    
O14   Zn16  S    
C34   Cl43  S    
C70   C106  S    
C105  Cl22  S    
C18   O50   S    
C65   O42   A    
C85   C89   S    
C17   H2    S    
C75   C81   S    
C96   Cl14  S    
C73   O30   A    
C33   O59   A    
O12   Zn2   S    
C119  Cl28  S    
C67   C103  S    
O23   Zn7   S    
C25   H24   S    
O12   Zn4   S    
O34   Zn15  S    
C72   O29   A    
C37   C43   A    
C41   O55   S    
C7    C11   A    
O36   Zn1   S    
C15   C54   S    
C54   O9    A    
C63   C100  S    
C3    C9    A    
C8    C110  S    
C21   H14   S    
O7    Zn10  S    
C116  H30   S    
C24   N13   A    
C68   O40   A    
C73   C105  S    
C87   C105  D    
N6    N9    A    
C78   C95   D    
C41   C46   A    
C32   C50   A    
O8    Zn11  S    
C72   O44   A    
C17   H3    S    
C76   Cl23  S    
C34   C51   A    
C15   C114  A    
C36   C45   A    
O4    Zn6   S    
C35   O49   S    
O34   Zn8   S    
C14   C111  A    
C5    Cl32  S    
C6    C116  A    
C1    O58   A    
O44   Zn12  S    
C39   C46   A    
C1    O45   A    
C66   N3    A    
C18   H6    S    
C44   O60   A    
C60   O32   A    
C88   N5    A    
C40   O54   S    
C104  Cl21  S    
C33   O56   A    
C3    C113  A    
C111  H12   S    
C9    C119  A    
C89   C106  D    
C62   O39   A    
C76   C80   S    
C97   Cl15  S    
C32   C41   A    
C4    C10   A    
C93   Cl10  S    
C77   N4    A    
C80   Cl45  S    
C87   Cl5   S    
C25   H25   S    
C73   O46   A    
O41   Zn15  S    
C112  C120  A    
C64   O37   A    
C84   C90   S    
C71   O48   A    
C21   H15   S    
O17   Zn4   S    
C19   H9    S    
C28   C48   A    
C2    N9    A    
C62   O19   A    
C83   C101  D    
O15   Zn2   S    
C86   C87   S    
C36   O50   S    
C91   C108  D    
C78   Cl34  S    
C60   O17   A    
C68   C104  S    
C31   C51   A    
C10   C13   S    
C117  H31   S    
C6    C10   A    
O32   Zn11  S    
C20   H10   S    
C101  Cl18  S    
O37   Zn11  S    
C106  Cl24  S    
C55   O4    A    
C8    C120  A    
O60   Zn7   S    
C69   C101  S    
C27   C36   A    
C27   Cl37  S    
C14   C113  A    
C83   C91   S    
C83   Cl48  S    
O39   Zn9   S    
C31   Cl41  S    
C7    C117  A    
C56   O10   A    
C99   N8    A    
C22   H17   S    
C92   Cl9   S    
C53   O6    A    
C79   C96   D    
C71   O28   A    
O22   Zn5   S    
C103  Cl20  S    
O27   Zn5   S    
C112  H23   S    
C86   Cl4   S    
C113  H27   S    
C78   C79   S    
O12   Zn11  S    
C1    C45   S    
O23   Zn14  S    
O58   Zn16  S    
C28   C37   A    
N8    N11   A    
C14   C53   S    
C28   Cl38  S    
C82   C100  D    
O47   Zn14  S    
C49   C77   S    
C56   O13   A    
O30   Zn6   S    
C102  Cl19  S    
C19   O51   S    
N2    N13   A    
C58   C94   S    
C65   O22   A    
C19   H7    S    
C54   O11   A    
C6    Cl33  S    
C64   O21   A    
C100  Cl17  S    
C18   H5    S    
C39   O53   S    
C26   C35   A    
O1    Zn3   S    
O42   Zn12  S    
C7    Cl35  S    
C52   O7    A    
O38   Zn10  S    
O45   Zn3   S    
N1    N5    A    
C15   C116  A    
C20   H13   S    
O24   Zn6   S    
C50   C88   S    
C88   N7    A    
C31   C40   A    
C48   C66   S    
C16   C117  A    
C2    C9    S    
C84   Cl2   S    
C23   H22   S    
C67   O43   A    
C25   H26   S    
C27   C49   A    
C30   C39   A    
O21   Zn2   S    
