data_mof_unit_6463.cif
_audit_creation_date              2012-12-10T17:36:36-0500
_audit_creation_method            fapswitch 2.2
_symmetry_space_group_name_H-M    P1
_symmetry_Int_Tables_number       1
_space_group_crystal_system       triclinic
_cell_length_a                    12.066928
_cell_length_b                    12.834066
_cell_length_c                    15.649555
_cell_angle_alpha                 90.906006
_cell_angle_beta                  88.160078
_cell_angle_gamma                 94.317721
_cell_volume                      2415.26875776

loop_
_atom_site_label
_atom_site_type_symbol
_atom_type_description
_atom_site_fract_x
_atom_site_fract_y
_atom_site_fract_z
_atom_type_partial_charge
C1    C     C_R   0.523099 0.700498 0.498961 0.911384
C2    C     C_R   0.547618 0.027102 0.520942 0.128109
C3    C     C_R   0.946836 0.389490 0.432874 -0.407582
C4    C     C_R   0.053901 0.615158 0.562669 -0.432331
C5    C     C_R   0.832362 0.403481 0.434362 0.546908
C6    C     C_R   0.167971 0.599168 0.562902 0.555909
C7    C     C_R   0.859990 0.543121 0.536112 0.519444
C8    C     C_R   0.137578 0.454110 0.467315 0.492409
C9    C     C_R   0.978016 0.540491 0.525657 -0.152315
C10   C     C_R   0.020909 0.460261 0.475455 -0.096487
C11   C     C_R   0.501019 0.497946 0.661746 0.879655
C12   C     C_R   0.476953 0.299571 0.502741 0.899787
C13   C     C_R   0.498264 0.500421 0.338244 0.874892
C14   C     C_3   0.411499 0.547620 0.027151 0.434356
C15   C     C_3   0.572023 0.428956 0.972856 0.425341
C16   C     C_3   0.511791 0.584181 0.969977 0.422795
C17   C     C_3   0.471600 0.392395 0.030128 0.439638
C18   C     C_1   0.500947 0.489885 0.750394 -0.225461
C19   C     C_1   0.493795 0.499245 0.249485 -0.195027
C20   C     C_3   0.390125 0.445962 0.973764 -0.502817
C21   C     C_3   0.593252 0.530555 0.026063 -0.524425
C22   C     C_3   0.492566 0.483272 0.916646 -0.032269
C23   C     C_R   0.641168 0.974314 0.538321 -0.321132
C24   C     C_3   0.491030 0.493278 0.083324 -0.025162
C25   C     C_1   0.497506 0.484470 0.825680 0.069276
C26   C     C_1   0.491081 0.497088 0.174182 0.066370
C27   C     C_R   0.460711 0.187541 0.506880 -0.169407
C28   C     C_R   0.538895 0.812737 0.499975 -0.167045
C29   C     C_3   0.559968 0.759800 0.990394 0.091392
C30   C     C_3   0.575189 0.864961 0.945566 -0.321232
C31   C     C_3   0.610617 0.953071 0.007726 -0.995895
C32   C     C_3   0.432879 0.214103 0.007781 0.110169
C33   C     C_3   0.314213 0.164866 0.020289 -0.349263
C34   C     C_R   0.356217 0.025094 0.474867 -0.297505
C35   C     C_3   0.292069 0.071250 0.960191 -0.976448
C36   C     C_3   0.258199 0.636660 0.999722 0.099240
C37   C     C_3   0.186495 0.721288 0.034159 -0.844673
C38   C     C_3   0.723731 0.337874 0.000705 0.114284
C39   C     C_3   0.802474 0.260733 0.963421 -0.847239
C40   C     C_3   0.186802 0.174987 0.530515 0.167580
C41   C     C_3   0.077230 0.127886 0.495084 -0.342641
C42   C     C_3   0.982257 0.132873 0.561409 -1.016804
C43   C     C_3   0.824976 0.839880 0.497775 0.123161
C44   C     C_3   0.822738 0.782325 0.411118 -0.332904
C45   C     C_R   0.639356 0.866392 0.525066 0.482540
C46   C     C_3   0.934674 0.797868 0.363059 -0.980045
C47   C     C_3   0.202804 0.416772 0.330354 0.196462
C48   C     C_3   0.116963 0.374152 0.266070 -0.470462
C49   C     C_3   0.159375 0.392978 0.174071 -0.913131
C50   C     C_3   0.854252 0.605271 0.678175 0.060909
C51   C     C_3   0.761663 0.589301 0.746294 -0.269065
C52   C     C_3   0.805555 0.609869 0.835918 -0.949993
C53   C     C_3   0.214835 0.686281 0.689584 0.083218
C54   C     C_3   0.199152 0.802185 0.705926 -0.346790
C55   C     C_3   0.176590 0.825026 0.800611 -0.983965
C56   C     C_R   0.360080 0.133039 0.483814 0.469505
C57   C     C_3   0.768156 0.237556 0.386037 0.083622
C58   C     C_3   0.814113 0.193949 0.301630 -0.362998
C59   C     C_3   0.827778 0.077059 0.307856 -0.970706
C60   C     C_R   0.446951 0.866465 0.480539 -0.307530
C61   C     C_R   0.551058 0.133970 0.530580 -0.354468
C62   C     C_R   0.450142 0.972780 0.491559 0.111899
H1    H     H_    0.673901 0.564606 0.049943 0.164761
H2    H     H_    0.494362 0.764227 0.041756 0.177207
H3    H     H_    0.639739 0.860990 0.893526 0.235563
H4    H     H_    0.495742 0.882167 0.916608 0.223707
H5    H     H_    0.545204 0.961301 0.058459 0.268606
H6    H     H_    0.623618 0.027562 0.972499 0.262400
H7    H     H_    0.689810 0.937348 0.037652 0.270279
H8    H     H_    0.491961 0.153798 0.018483 0.167317
H9    H     H_    0.446530 0.239426 0.940053 0.149555
H10   H     H_    0.300905 0.138709 0.087469 0.238689
H11   H     H_    0.254308 0.224153 0.007967 0.217040
H12   H     H_    0.309706 0.411025 0.950145 0.164642
H13   H     H_    0.303750 0.095631 0.892504 0.265603
H14   H     H_    0.205179 0.037797 0.970436 0.268772
H15   H     H_    0.349222 0.009814 0.973080 0.270812
H16   H     H_    0.202679 0.566490 0.983409 0.143291
H17   H     H_    0.303232 0.666429 0.940722 0.164521
H18   H     H_    0.239583 0.793500 0.048686 0.259155
H19   H     H_    0.125577 0.739220 0.985816 0.210836
H20   H     H_    0.140557 0.694355 0.093378 0.259653
H21   H     H_    0.676733 0.300299 0.055887 0.167003
H22   H     H_    0.774553 0.408212 0.023445 0.145313
H23   H     H_    0.626504 0.175948 0.552624 0.174345
H24   H     H_    0.852656 0.296780 0.909353 0.257617
H25   H     H_    0.859373 0.238497 0.013317 0.207201
H26   H     H_    0.754398 0.189348 0.940033 0.255491
H27   H     H_    0.174685 0.254485 0.556598 0.177634
H28   H     H_    0.209185 0.126981 0.585593 0.084938
H29   H     H_    0.056977 0.171062 0.437396 0.245643
H30   H     H_    0.085894 0.045035 0.476055 0.200577
H31   H     H_    0.000082 0.088805 0.619298 0.270675
H32   H     H_    0.904277 0.097631 0.534199 0.251346
H33   H     H_    0.970129 0.215383 0.579557 0.270886
H34   H     H_    0.371074 0.825128 0.458605 0.191694
H35   H     H_    0.897373 0.816653 0.533128 0.170366
H36   H     H_    0.839400 0.925399 0.487803 0.103458
H37   H     H_    0.803150 0.697433 0.420790 0.254977
H38   H     H_    0.757165 0.811914 0.371684 0.199826
H39   H     H_    0.957213 0.882256 0.352533 0.267066
H40   H     H_    0.929708 0.757234 0.299981 0.269563
H41   H     H_    0.000618 0.764656 0.399863 0.269142
H42   H     H_    0.282658 0.386379 0.308435 0.200681
H43   H     H_    0.212017 0.503906 0.327035 0.121110
H44   H     H_    0.099073 0.288756 0.275137 0.240036
H45   H     H_    0.714298 0.016555 0.563636 0.142437
H46   H     H_    0.039200 0.414367 0.275583 0.227480
H47   H     H_    0.178033 0.477902 0.163203 0.291893
H48   H     H_    0.094805 0.362986 0.129056 0.254373
H49   H     H_    0.235791 0.351643 0.160434 0.286720
H50   H     H_    0.899416 0.682043 0.691767 0.156588
H51   H     H_    0.911494 0.541994 0.686177 0.111336
H52   H     H_    0.695506 0.642836 0.735021 0.251719
H53   H     H_    0.726665 0.506991 0.742664 0.232748
H54   H     H_    0.871515 0.556846 0.848912 0.255605
H55   H     H_    0.736795 0.595525 0.883875 0.300038
H56   H     H_    0.280663 0.982812 0.453601 0.149182
H57   H     H_    0.839657 0.692314 0.842755 0.255135
H58   H     H_    0.285705 0.664134 0.727336 0.174398
H59   H     H_    0.140005 0.637773 0.713813 0.098795
H60   H     H_    0.275380 0.849652 0.684020 0.239780
H61   H     H_    0.128315 0.825678 0.668857 0.206773
H62   H     H_    0.100207 0.778916 0.823769 0.260039
H63   H     H_    0.164498 0.909395 0.810074 0.271668
H64   H     H_    0.248153 0.805432 0.838639 0.270831
H65   H     H_    0.682751 0.200826 0.395914 0.185453
H66   H     H_    0.816447 0.213686 0.441076 0.119161
H67   H     H_    0.977693 0.325323 0.396701 0.192297
H68   H     H_    0.756099 0.207245 0.249792 0.233857
H69   H     H_    0.895781 0.234827 0.284384 0.211690
H70   H     H_    0.888004 0.062629 0.357744 0.260269
H71   H     H_    0.859620 0.046934 0.245604 0.270279
H72   H     H_    0.746656 0.034049 0.324129 0.269648
H73   H     H_    0.026414 0.686214 0.590800 0.169259
H74   H     H_    0.640177 0.744069 0.019095 0.141576
N1    N     N_R   0.207800 0.519340 0.515560 -0.184006
N2    N     N_R   0.792200 0.480660 0.484440 -0.174264
O1    O     O_R   0.421700 0.658830 0.504150 -0.579921
O2    O     O_3   0.452722 0.294356 0.069572 -0.655549
O3    O     O_3   0.332230 0.612227 0.063045 -0.618736
O4    O     O_3   0.651707 0.364848 0.936797 -0.611867
O5    O     O_3   0.268481 0.184950 0.463357 -0.602004
O6    O     O_3   0.728196 0.811519 0.548460 -0.601162
O7    O     O_3   0.179938 0.378095 0.414226 -0.612352
O8    O     O_3   0.809540 0.608607 0.595169 -0.578448
O9    O     O_3   0.242818 0.670405 0.601948 -0.606185
O10   O     O_3   0.760186 0.346827 0.380493 -0.604635
O11   O     O_R   0.578300 0.341170 0.495850 -0.613119
O12   O     O_R   0.609310 0.646410 0.494170 -0.567931
O13   O     O_R   0.390690 0.353590 0.505830 -0.566999
O14   O     O_R   0.406210 0.506220 0.628210 -0.608050
O15   O     O_R   0.593790 0.493780 0.371790 -0.572896
O16   O     O_R   0.593830 0.493800 0.618230 -0.597389
O17   O     O_R   0.406170 0.506200 0.381770 -0.646659
O18   O     O_3   0.529171 0.681773 0.929556 -0.651185
Zn1   Zn    Zn3+2 0.374730 0.508290 0.506660 0.994023
Zn2   Zn    Zn3+2 0.625270 0.491710 0.493340 1.014275

loop_
_geom_bond_atom_site_label_1
_geom_bond_atom_site_label_2
_ccdc_geom_bond_type
C34   H56   S    
C54   H61   S    
C47   O7    S    
C11   C18   S    
C34   C56   A    
C16   C21   S    
C23   C45   A    
C38   H21   S    
O17   Zn1   S    
C42   H31   S    
C41   C42   S    
C8    O7    S    
C43   H36   S    
C39   H25   S    
C43   C44   S    
C57   H66   S    
C53   H58   S    
C5    N2    A    
C48   H46   S    
C53   C54   S    
C31   H5    S    
C46   H40   S    
C35   H13   S    
O13   Zn1   S    
C36   C37   S    
C24   C26   S    
O16   Zn2   S    
C38   C39   S    
C44   H37   S    
C53   O9    S    
C17   C20   S    
C60   C62   A    
C14   C24   S    
O15   Zn2   S    
C19   C26   T    
C13   O17   A    
C27   C61   A    
C11   O16   A    
O14   Zn1   S    
C56   O5    S    
C15   C22   S    
C48   H44   S    
C55   H63   S    
C47   H43   S    
C22   C25   S    
C16   O18   S    
C45   O6    S    
C40   H27   S    
C9    C10   A    
C33   H10   S    
C2    C61   A    
C49   H49   S    
C7    O8    S    
C52   H55   S    
C50   O8    S    
C28   C60   A    
C54   H60   S    
C29   H2    S    
C5    O10   S    
C3    H67   S    
C38   O4    S    
C12   O13   A    
C37   H19   S    
C43   O6    S    
C18   C25   T    
C39   H26   S    
C14   O3    S    
C46   H39   S    
C44   C46   S    
C32   H9    S    
C52   H54   S    
C31   H6    S    
C28   C45   A    
C37   H18   S    
C35   H14   S    
C51   H52   S    
C13   C19   S    
C12   C27   S    
C51   C52   S    
C17   C24   S    
C14   C20   S    
C4    C6    A    
C27   C56   A    
C32   H8    S    
C58   C59   S    
C35   H15   S    
C51   H53   S    
C42   H33   S    
C8    N1    A    
C36   O3    S    
C29   C30   S    
C1    C28   S    
C15   O4    S    
N2    Zn2   S    
C47   C48   S    
C55   H64   S    
C15   C21   S    
C58   H69   S    
C23   H45   S    
C29   H74   S    
C50   H50   S    
C50   C51   S    
C20   H12   S    
C1    O12   A    
C13   O15   A    
C30   H4    S    
C61   H23   S    
C4    H73   S    
C60   H34   S    
C33   H11   S    
C40   C41   S    
C41   H29   S    
C20   C22   S    
C29   O18   S    
C14   C16   S    
C37   H20   S    
C57   O10   S    
C21   C24   S    
C34   C62   A    
C49   H47   S    
O11   Zn2   S    
C7    C9    A    
C54   C55   S    
C48   C49   S    
C16   C22   S    
C47   H42   S    
O12   Zn2   S    
C38   H22   S    
C42   H32   S    
C12   O11   A    
C43   H35   S    
C3    C5    A    
C36   H17   S    
C1    O1    A    
C57   H65   S    
C7    N2    A    
C15   C17   S    
C46   H41   S    
C59   H72   S    
N1    Zn1   S    
C50   H51   S    
C32   C33   S    
C6    N1    A    
C3    C10   A    
C36   H16   S    
C6    O9    S    
C44   H38   S    
C59   H70   S    
C57   C58   S    
C30   C31   S    
C58   H68   S    
C33   C35   S    
C59   H71   S    
C17   O2    S    
C32   O2    S    
C21   H1    S    
C30   H3    S    
C52   H57   S    
C11   O14   A    
C31   H7    S    
C41   H30   S    
O1    Zn1   S    
C8    C10   A    
C55   H62   S    
C40   O5    S    
C2    C23   A    
C53   H59   S    
C39   H24   S    
C40   H28   S    
C4    C9    A    
C2    C62   A    
C49   H48   S    
