data_mof_unit_42051.cif
_audit_creation_date              2012-10-26T18:59:57-0400
_audit_creation_method            fapswitch 2.2
_symmetry_space_group_name_H-M    P1
_symmetry_Int_Tables_number       1
_space_group_crystal_system       triclinic
_cell_length_a                    9.574157
_cell_length_b                    10.856523
_cell_length_c                    17.0805
_cell_angle_alpha                 88.429503
_cell_angle_beta                  94.490764
_cell_angle_gamma                 89.607426
_cell_volume                      1769.1948309

loop_
_atom_site_label
_atom_site_type_symbol
_atom_type_description
_atom_site_fract_x
_atom_site_fract_y
_atom_site_fract_z
_atom_type_partial_charge
C1    C     C_R   0.500229 0.262769 0.500335 0.547385
C2    C     C_R   0.498935 0.130046 0.501151 0.003820
C3    C     C_R   0.372713 0.065098 0.507516 -0.138881
C4    C     C_R   0.517931 0.501952 0.650604 0.523327
C5    C     C_R   0.372231 0.935914 0.507291 -0.152010
C6    C     C_R   0.497936 0.869766 0.500672 0.011280
C7    C     C_R   0.619495 0.937132 0.494990 -0.002507
C8    C     C_3   0.772560 0.926540 0.485412 -0.270026
C9    C     C_3   0.773664 0.068701 0.486285 -0.099302
C10   C     C_R   0.066397 0.584412 0.455159 0.150797
C11   C     C_R   0.084160 0.426005 0.550211 0.064574
C12   C     C_R   0.629209 0.429703 0.778587 -0.144421
C13   C     C_R   0.935635 0.425245 0.551462 0.146756
C14   C     C_R   0.919324 0.584376 0.455067 0.148691
C15   C     C_3   0.901535 0.600702 0.367926 -0.263065
C16   C     C_R   0.499537 0.737179 0.499972 0.542864
C17   C     C_3   0.059876 0.600615 0.368062 -0.273598
C18   C     C_R   0.482050 0.501028 0.349190 0.551119
C19   C     C_R   0.528858 0.505472 0.736467 -0.020735
C20   C     C_R   0.437186 0.578958 0.777151 -0.015541
C21   C     C_R   0.443624 0.568804 0.859302 -0.042841
C22   C     C_R   0.541376 0.488824 0.901087 0.197776
C23   C     C_R   0.577044 0.457435 0.142522 -0.086049
C24   C     C_R   0.635493 0.421933 0.860169 -0.097018
C25   C     C_2   0.805332 0.128598 0.409415 0.239696
C26   C     C_2   0.877275 0.339708 0.609784 0.224095
C27   C     C_2   0.339353 0.670525 0.735593 0.243111
C28   C     C_R   0.583187 0.453978 0.224133 -0.160312
C29   C     C_R   0.458503 0.508261 0.098530 0.229841
C30   C     C_R   0.471780 0.500777 0.263248 0.007732
C31   C     C_R   0.352974 0.549427 0.219638 -0.150638
C32   C     C_R   0.346788 0.553183 0.137831 -0.101615
C33   C     C_R   0.620095 0.061287 0.495200 -0.014642
Cu1   Cu    Cu3+1 0.640670 0.499980 0.500000 0.960744
Cu2   Cu    Cu3+1 0.359330 0.500020 0.500000 0.952789
H1    H     H_    0.675021 0.414244 0.256632 0.133549
H2    H     H_    0.665480 0.421331 0.114325 0.142609
H3    H     H_    0.102605 0.690796 0.349470 0.121072
H4    H     H_    0.712387 0.361585 0.891713 0.140863
H5    H     H_    0.700490 0.373647 0.748202 0.150362
H6    H     H_    0.266656 0.587437 0.248612 0.117185
H7    H     H_    0.374117 0.625098 0.890737 0.185322
H8    H     H_    0.255330 0.592743 0.104813 0.128991
H9    H     H_    0.274563 0.113336 0.512590 0.160617
H10   H     H_    0.751060 0.099943 0.354801 0.108969
H11   H     H_    0.767717 0.321889 0.610526 0.167270
H12   H     H_    0.273922 0.888628 0.512237 0.144090
H13   H     H_    0.350900 0.698291 0.675006 0.133906
H14   H     H_    0.830602 0.882144 0.537760 0.152763
H15   H     H_    0.793771 0.886422 0.428258 0.122754
H16   H     H_    0.833221 0.105987 0.538759 0.169143
H17   H     H_    0.149317 0.364846 0.588840 0.172509
H18   H     H_    0.853797 0.519495 0.338520 0.170233
H19   H     H_    0.852428 0.690913 0.349255 0.119344
H20   H     H_    0.100929 0.519010 0.339053 0.164922
N1    N     N_2   0.550827 0.475500 0.984168 -0.245020
N2    N     N_2   0.448420 0.518815 0.015329 -0.242557
N3    N     N_R   0.147870 0.500930 0.499500 -0.255371
N4    N     N_R   0.851960 0.500890 0.499500 -0.248130
O1    O     O_R   0.618810 0.319640 0.500000 -0.514573
O2    O     O_2   0.954264 0.285271 0.659902 -0.548903
O3    O     O_2   0.245179 0.717697 0.769036 -0.497359
O4    O     O_R   0.381230 0.319680 0.499990 -0.502983
O5    O     O_R   0.631790 0.498830 0.613930 -0.525345
O6    O     O_R   0.394210 0.498870 0.613920 -0.511681
O7    O     O_R   0.618770 0.680320 0.500010 -0.496466
O8    O     O_R   0.381190 0.680360 0.500000 -0.515944
O9    O     O_R   0.605790 0.501130 0.386080 -0.501544
O10   O     O_R   0.368210 0.501170 0.386070 -0.501316
O11   O     O_2   0.892067 0.210299 0.407954 -0.512476

loop_
_geom_bond_atom_site_label_1
_geom_bond_atom_site_label_2
_ccdc_geom_bond_type
C27   H13   S    
C12   H5    S    
Cu1   O1    S    
C6    C7    A    
C18   C30   S    
C20   C27   S    
C8    H15   S    
C23   H2    S    
C11   N3    A    
C11   C13   A    
C22   N1    S    
C4    O5    A    
C19   C20   A    
C9    H16   S    
Cu2   O8    S    
Cu1   O7    S    
C18   O10   A    
C28   C30   A    
C2    C3    A    
C9    C25   S    
C7    C8    S    
C14   C15   S    
C16   O8    A    
C25   O11   D    
C21   C22   A    
N1    N2    D    
C9    C33   S    
C14   N4    A    
C5    H12   S    
Cu2   O10   S    
C5    C6    A    
Cu2   N3    S    
C13   N4    A    
C17   H20   S    
C23   C29   A    
C12   C19   A    
Cu1   O5    S    
C10   N3    A    
C32   H8    S    
C29   N2    S    
Cu1   Cu2   S    
C29   C32   A    
C17   H3    S    
C26   H11   S    
C30   C31   A    
C13   C26   S    
C22   C24   A    
C3    H9    S    
Cu1   N4    S    
C16   O7    A    
C7    C33   A    
C10   C17   S    
C6    C16   S    
C21   H7    S    
C15   H18   S    
C15   H19   S    
C25   H10   S    
C24   H4    S    
C20   C21   A    
C28   H1    S    
C1    C2    S    
C10   C14   A    
C1    O1    A    
Cu1   O9    S    
C15   C17   S    
Cu2   O6    S    
C12   C24   A    
C4    O6    A    
C1    O4    A    
Cu2   O4    S    
C11   H17   S    
C31   H6    S    
C23   C28   A    
C4    C19   S    
C18   O9    A    
C8    H14   S    
C26   O2    D    
C31   C32   A    
C27   O3    D    
C2    C33   A    
C8    C9    S    
C3    C5    A    
