data_mof_unit_15710.cif
_audit_creation_date              2012-12-10T17:26:22-0500
_audit_creation_method            fapswitch 2.2
_symmetry_space_group_name_H-M    P1
_symmetry_Int_Tables_number       1
_space_group_crystal_system       triclinic
_cell_length_a                    10.150842
_cell_length_b                    10.820671
_cell_length_c                    27.699647
_cell_angle_alpha                 90.663187
_cell_angle_beta                  82.35945
_cell_angle_gamma                 96.762921
_cell_volume                      2994.47935602

loop_
_atom_site_label
_atom_site_type_symbol
_atom_type_description
_atom_site_fract_x
_atom_site_fract_y
_atom_site_fract_z
_atom_type_partial_charge
C1    C     C_R   0.557429 0.732466 0.498149 0.914140
C2    C     C_R   0.500099 0.622336 0.125880 -0.191654
C3    C     C_R   0.503104 0.493870 0.645917 -0.285488
C4    C     C_R   0.494187 0.509102 0.353486 -0.284071
C5    C     C_R   0.504948 0.613972 0.023720 -0.065255
C6    C     C_R   0.508124 0.382959 0.974417 -0.060962
C7    C     C_R   0.514836 0.387584 0.025379 -0.088073
C8    C     C_R   0.525146 0.611807 0.972136 -0.085331
C9    C     C_R   0.506673 0.502731 0.050003 -0.054682
C10   C     C_R   0.518642 0.495805 0.947911 -0.056066
C11   C     C_R   0.478455 0.722811 0.050375 0.406049
C12   C     C_R   0.443891 0.267304 0.505422 0.918169
C13   C     C_R   0.488296 0.269845 0.948586 0.400829
C14   C     C_R   0.500839 0.731771 0.099053 0.376396
C15   C     C_R   0.522924 0.268635 0.897989 0.377101
C16   C     C_R   0.501000 0.498865 0.593614 0.932478
C17   C     C_R   0.498488 0.502015 0.406144 0.950019
C18   C     C_R   0.554662 0.721759 0.943340 0.462145
C19   C     C_R   0.533030 0.282206 0.052850 0.448530
C20   C     C_2   0.592601 0.865183 0.498979 -0.362189
C21   C     C_2   0.416549 0.135192 0.516033 -0.412050
C22   C     C_2   0.497387 0.935146 0.516114 -0.153376
C23   C     C_R   0.520995 0.492691 0.896668 -0.217369
C24   C     C_2   0.517909 0.066299 0.507054 -0.131305
C25   C     C_2   0.921409 0.472281 0.513526 0.536318
C26   C     C_2   0.072241 0.467287 0.502500 0.541610
C27   C     C_R   0.511883 0.596718 0.820497 0.589071
C28   C     C_R   0.488209 0.403085 0.179097 0.593488
C29   C     C_R   0.527546 0.378536 0.820685 0.663556
C30   C     C_R   0.496489 0.624076 0.176734 0.656942
C31   C     C_R   0.395343 0.438303 0.727473 0.413303
C32   C     C_R   0.370014 0.496144 0.283685 0.407784
C33   C     C_R   0.391003 0.439038 0.677134 0.386610
C34   C     C_R   0.500160 0.506966 0.101396 -0.216626
C35   C     C_R   0.370487 0.498505 0.334406 0.374300
C36   C     C_R   0.620065 0.541237 0.664603 -0.426204
C37   C     C_R   0.614498 0.532844 0.321963 -0.401098
C38   C     C_R   0.626456 0.536863 0.714462 0.474924
C39   C     C_R   0.613651 0.538318 0.271892 0.460098
C40   C     C_R   0.514510 0.483724 0.745628 0.046533
C41   C     C_R   0.491461 0.519098 0.253033 0.056045
C42   C     C_3   0.039922 0.256029 0.475889 0.095402
C43   C     C_3   0.098110 0.155204 0.501074 -0.381580
C44   C     C_3   0.001151 0.035628 0.508116 -0.956188
C45   C     C_R   0.519560 0.603648 0.870611 -0.172284
C46   C     C_3   0.899528 0.412787 0.594776 0.033787
C47   C     C_3   0.798495 0.294926 0.600452 -0.335507
C48   C     C_3   0.841772 0.199518 0.633434 -0.931718
C49   C     C_3   0.166264 0.677212 0.583707 -0.151291
C50   C     C_3   0.842231 0.360852 0.406090 -0.140413
C51   C     C_3   0.776470 0.707691 0.727391 0.144573
C52   C     C_3   0.915861 0.735841 0.698577 -0.403458
C53   C     C_3   0.957153 0.875872 0.693243 -0.936952
C54   C     C_3   0.791577 0.464283 0.225495 0.072956
C55   C     C_3   0.856180 0.484221 0.172580 -0.303955
C56   C     C_R   0.495862 0.396236 0.128228 -0.168839
C57   C     C_3   0.912057 0.367453 0.151241 -0.977380
C58   C     C_3   0.408007 0.873016 0.882309 -0.178290
C59   C     C_3   0.380622 0.102165 0.128408 -0.167763
C60   C     C_3   0.202587 0.605287 0.368521 -0.143876
C61   C     C_3   0.283142 0.263304 0.648692 -0.244711
C62   C     C_3   0.185320 0.361191 0.272127 -0.248989
C63   C     C_3   0.196338 0.475201 0.769424 -0.267151
C64   C     C_3   0.645480 0.909720 0.102456 0.167483
C65   C     C_3   0.759706 0.855120 0.123050 -0.395045
C66   C     C_3   0.893255 0.934588 0.108406 -0.987482
C67   C     C_R   0.531170 0.718297 0.894842 0.408141
C68   C     C_3   0.665916 0.118471 0.886706 0.170378
C69   C     C_3   0.791657 0.207074 0.867685 -0.434553
C70   C     C_3   0.918784 0.152452 0.876038 -0.954526
C71   C     C_3   0.288369 0.812416 0.042813 0.104815
C72   C     C_3   0.214623 0.719311 0.010426 -0.385524
C73   C     C_3   0.064290 0.727596 0.017853 -0.985058
C74   C     C_3   0.287713 0.148873 0.967691 0.109423
C75   C     C_3   0.210783 0.200699 0.013291 -0.348448
C76   C     C_3   0.060825 0.184929 0.010856 -1.025621
C77   C     C_3   0.749700 0.824438 0.961654 -0.348818
C78   C     C_R   0.506141 0.282972 0.103610 0.409347
C79   C     C_3   0.725619 0.204956 0.023803 -0.331859
C80   C     C_R   0.525347 0.378806 0.871518 -0.179793
H1    H     H_    0.706176 0.582620 0.640485 0.226620
H2    H     H_    0.121973 0.189210 0.537279 0.221793
H3    H     H_    0.908229 0.052679 0.532014 0.267485
H4    H     H_    0.048935 0.963682 0.525521 0.286604
H5    H     H_    0.974941 0.999990 0.472420 0.265561
H6    H     H_    0.896411 0.460237 0.630596 0.186838
H7    H     H_    0.003103 0.387242 0.586577 0.117062
H8    H     H_    0.698942 0.319158 0.616581 0.244245
H9    H     H_    0.787878 0.252178 0.564384 0.203578
H10   H     H_    0.939369 0.170028 0.617468 0.258067
H11   H     H_    0.765892 0.116274 0.637348 0.265246
H12   H     H_    0.709269 0.550728 0.336056 0.206835
H13   H     H_    0.850971 0.239602 0.670108 0.286766
H14   H     H_    0.272897 0.713341 0.574772 0.180527
H15   H     H_    0.153567 0.594814 0.608267 0.168742
H16   H     H_    0.116739 0.751899 0.603773 0.140326
H17   H     H_    0.799706 0.405430 0.377029 0.172803
H18   H     H_    0.764581 0.294681 0.427545 0.148753
H19   H     H_    0.917809 0.306036 0.386438 0.116583
H20   H     H_    0.777896 0.748981 0.764271 0.188098
H21   H     H_    0.703329 0.754852 0.709496 0.152887
H22   H     H_    0.989849 0.693876 0.717515 0.228395
H23   H     H_    0.319713 0.094702 0.533654 0.145411
H24   H     H_    0.916112 0.693748 0.661828 0.228707
H25   H     H_    0.887561 0.918837 0.672569 0.272193
H26   H     H_    0.059822 0.893591 0.673222 0.255270
H27   H     H_    0.956613 0.920114 0.729651 0.273593
H28   H     H_    0.720031 0.377278 0.227558 0.168615
H29   H     H_    0.870258 0.450855 0.248658 0.153530
H30   H     H_    0.780396 0.509766 0.150136 0.213890
H31   H     H_    0.938381 0.562278 0.170721 0.233205
H32   H     H_    0.988743 0.339942 0.172767 0.266052
H33   H     H_    0.959369 0.386286 0.113139 0.261561
H34   H     H_    0.691857 0.905712 0.483132 0.152274
H35   H     H_    0.830359 0.289531 0.151079 0.278540
H36   H     H_    0.398199 0.909900 0.920058 0.191161
H37   H     H_    0.323051 0.800321 0.877908 0.117017
H38   H     H_    0.401011 0.950324 0.857222 0.233325
H39   H     H_    0.375477 0.057414 0.092331 0.185239
H40   H     H_    0.295053 0.157664 0.138054 0.115055
H41   H     H_    0.370141 0.027120 0.156048 0.229366
H42   H     H_    0.166776 0.629860 0.334052 0.176085
H43   H     H_    0.279543 0.679872 0.378527 0.133134
H44   H     H_    0.116496 0.601403 0.397784 0.214818
H45   H     H_    0.616875 0.105260 0.490191 0.176108
H46   H     H_    0.285372 0.209586 0.682534 0.196795
H47   H     H_    0.371610 0.249709 0.621623 0.129516
H48   H     H_    0.192487 0.225197 0.632612 0.167308
H49   H     H_    0.124068 0.355285 0.308497 0.197552
H50   H     H_    0.254933 0.288331 0.268631 0.185021
H51   H     H_    0.115639 0.340258 0.244722 0.162492
H52   H     H_    0.156052 0.502648 0.736185 0.187579
H53   H     H_    0.243714 0.558824 0.787056 0.161310
H54   H     H_    0.110354 0.433729 0.795450 0.186243
H55   H     H_    0.648048 0.007870 0.114155 0.233395
H56   H     H_    0.399137 0.894636 0.532967 0.182611
H57   H     H_    0.663128 0.911909 0.061923 0.171760
H58   H     H_    0.738817 0.850949 0.163434 0.285207
H59   H     H_    0.767744 0.759276 0.109039 0.203553
H60   H     H_    0.915234 0.941107 0.068154 0.261320
H61   H     H_    0.974670 0.891576 0.122519 0.274883
H62   H     H_    0.890468 0.029760 0.123704 0.275943
H63   H     H_    0.677096 0.027207 0.869197 0.232123
H64   H     H_    0.660116 0.102759 0.926595 0.194642
H65   H     H_    0.793583 0.223801 0.828071 0.268318
H66   H     H_    0.790211 0.297760 0.886878 0.206452
H67   H     H_    0.035324 0.225499 0.437798 0.171915
H68   H     H_    0.917840 0.133358 0.915396 0.254339
H69   H     H_    0.007721 0.219640 0.863403 0.280526
H70   H     H_    0.926857 0.064482 0.855363 0.272582
H71   H     H_    0.258176 0.906033 0.037296 0.169578
H72   H     H_    0.256802 0.789043 0.082088 0.125870
H73   H     H_    0.253877 0.738484 0.971557 0.216356
H74   H     H_    0.231772 0.623055 0.019199 0.217898
H75   H     H_    0.022502 0.709748 0.056608 0.276996
H76   H     H_    0.013796 0.656808 0.994992 0.265001
H77   H     H_    0.043776 0.821103 0.006866 0.256084
H78   H     H_    0.936048 0.257256 0.493374 0.087629
H79   H     H_    0.252856 0.048104 0.965220 0.149244
H80   H     H_    0.262887 0.192790 0.934229 0.124633
H81   H     H_    0.230366 0.151005 0.045929 0.212956
H82   H     H_    0.244485 0.301266 0.017147 0.217918
H83   H     H_    0.037657 0.243389 0.981102 0.271512
H84   H     H_    0.007949 0.214745 0.045931 0.271296
H85   H     H_    0.024581 0.086043 0.004377 0.254918
H86   H     H_    0.800811 0.802737 0.924954 0.161707
H87   H     H_    0.764864 0.754354 0.988853 0.162098
H88   H     H_    0.797861 0.915834 0.972651 0.174307
H89   H     H_    0.189709 0.134018 0.477513 0.239729
H90   H     H_    0.758748 0.282233 0.997165 0.156730
H91   H     H_    0.766490 0.226386 0.058711 0.165043
H92   H     H_    0.767688 0.120860 0.008379 0.190962
N1    N     N_R   0.518215 0.486002 0.796890 -0.316813
N2    N     N_R   0.491334 0.515631 0.201649 -0.315810
N3    N     N_2   0.842700 0.448890 0.480020 0.019531
N4    N     N_2   0.157300 0.551110 0.519980 0.035743
O1    O     O_R   0.431060 0.692470 0.504020 -0.627657
O2    O     O_2   0.480310 0.298941 0.206184 -0.552488
O3    O     O_2   0.495249 0.732082 0.201540 -0.507742
O4    O     O_2   0.535541 0.272165 0.795117 -0.503900
O5    O     O_3   0.125107 0.371049 0.474775 -0.596696
O6    O     O_3   0.865162 0.496758 0.560660 -0.627684
O7    O     O_3   0.105066 0.649986 0.541704 -0.570402
O8    O     O_3   0.907369 0.452817 0.434013 -0.579411
O9    O     O_3   0.744067 0.577172 0.733151 -0.646513
O10   O     O_3   0.731440 0.571758 0.241363 -0.625796
O11   O     O_3   0.533346 0.828528 0.870031 -0.572461
O12   O     O_R   0.568940 0.307530 0.495980 -0.647830
O13   O     O_3   0.505639 0.174050 0.129151 -0.570130
O14   O     O_3   0.250459 0.487718 0.365093 -0.572801
O15   O     O_3   0.275424 0.390396 0.658907 -0.597672
O16   O     O_3   0.251746 0.482535 0.263198 -0.599681
O17   O     O_3   0.286334 0.385717 0.758880 -0.578647
O18   O     O_3   0.517803 0.847487 0.120703 -0.601076
O19   O     O_3   0.546338 0.158460 0.874257 -0.601275
O20   O     O_3   0.428859 0.820640 0.029666 -0.573755
O21   O     O_3   0.426540 0.160973 0.971346 -0.577768
O22   O     O_3   0.612423 0.832809 0.960743 -0.536782
O23   O     O_R   0.651120 0.659650 0.491200 -0.585605
O24   O     O_3   0.585154 0.179419 0.031408 -0.532213
O25   O     O_R   0.348880 0.340350 0.508800 -0.578801
O26   O     O_R   0.389980 0.516390 0.577660 -0.614303
O27   O     O_R   0.610020 0.483610 0.422340 -0.629405
O28   O     O_R   0.610040 0.483570 0.564830 -0.580142
O29   O     O_R   0.389960 0.516430 0.435170 -0.536504
O30   O     O_2   0.498198 0.699160 0.795128 -0.557447
Zn1   Zn    Zn3+2 0.353060 0.521910 0.508560 1.019390
Zn2   Zn    Zn3+2 0.646940 0.478090 0.491440 0.996861

loop_
_geom_bond_atom_site_label_1
_geom_bond_atom_site_label_2
_ccdc_geom_bond_type
C59   H41   S    
N4    O7    S    
C38   C40   A    
C41   N2    S    
C34   C56   A    
C59   H40   S    
C23   C45   A    
C60   H43   S    
C69   H65   S    
C62   H50   S    
C70   H70   S    
C15   C80   A    
C43   C44   S    
C44   H3    S    
C27   N1    A    
C43   H89   S    
C39   C41   A    
C66   H61   S    
C42   H78   S    
C25   O6    S    
C77   H88   S    
C70   H69   S    
C52   H22   S    
C19   O24   S    
C13   O21   S    
C74   H79   S    
C75   H82   S    
C63   H53   S    
N4    Zn1   S    
C33   O15   S    
C5    C11   A    
C40   N1    S    
C11   C14   A    
C57   H32   S    
C75   H81   S    
C3    C33   A    
C12   O12   A    
C73   H77   S    
C58   H38   S    
C56   C78   A    
C31   C40   A    
C32   O16   S    
C68   H63   S    
C17   O27   A    
C46   C47   S    
C79   H91   S    
C60   H44   S    
C53   H27   S    
C49   O7    S    
C39   O10   S    
C1    O1    A    
C53   H26   S    
C71   H71   S    
O28   Zn2   S    
C68   C69   S    
C1    C20   S    
C29   O4    S    
C64   O18   S    
C18   O22   S    
C30   O3    S    
C63   O17   S    
C61   H46   S    
C50   H19   S    
C49   H14   S    
C61   H48   S    
C77   O22   S    
C15   O19   S    
C2    C34   A    
C14   O18   S    
C4    C35   A    
C48   H10   S    
C77   H87   S    
C58   H36   S    
C69   H66   S    
C47   H9    S    
C62   H49   S    
C1    O23   A    
C78   O13   S    
N3    Zn2   S    
C16   O26   A    
C42   H67   S    
C67   O11   S    
C64   H57   S    
O29   Zn1   S    
C42   O5    S    
C28   C56   A    
C50   H18   S    
C72   H74   S    
C74   C75   S    
C51   C52   S    
C32   C35   A    
C11   O20   S    
C57   H35   S    
C48   H13   S    
C31   O17   S    
C62   O16   S    
C25   C26   S    
C12   O25   A    
C12   C21   S    
C48   H11   S    
C58   H37   S    
C8    C18   A    
O1    Zn1   S    
C54   H29   S    
C22   H56   S    
C21   H23   S    
C79   H92   S    
C19   C78   A    
C75   C76   S    
C63   H54   S    
C5    C9    A    
C51   O9    S    
C25   N3    D    
C47   C48   S    
C74   O21   S    
C26   N4    D    
C36   H1    S    
C32   C41   A    
C73   H75   S    
C31   C33   A    
O25   Zn1   S    
C76   H85   S    
C61   H47   S    
C63   H52   S    
C49   H15   S    
C60   H42   S    
C6    C7    A    
C65   H58   S    
C60   O14   S    
C20   C22   D    
C27   C45   A    
C35   O14   S    
C7    C19   A    
O26   Zn1   S    
C13   C15   A    
C55   H30   S    
C9    C34   A    
C23   C80   A    
C22   C24   S    
C76   H84   S    
C70   H68   S    
C42   C43   S    
C4    C17   S    
C44   H5    S    
C36   C38   A    
C52   C53   S    
C79   H90   S    
C46   H7    S    
C51   H20   S    
C7    C9    A    
C54   C55   S    
O12   Zn2   S    
C50   H17   S    
C59   H39   S    
C79   O24   S    
C37   H12   S    
C55   H31   S    
C58   O11   S    
C62   H51   S    
C50   O8    S    
C29   N1    A    
C72   C73   S    
C44   H4    S    
C6    C10   A    
C5    C8    A    
C57   H33   S    
C45   C67   A    
C66   H62   S    
C74   H80   S    
C10   C23   A    
C51   H21   S    
C38   O9    S    
O27   Zn2   S    
C54   H28   S    
C2    C30   A    
C27   O30   S    
C64   C65   S    
C46   O6    S    
C55   C57   S    
C18   C67   A    
C71   C72   S    
C37   C39   A    
C47   H8    S    
C6    C13   A    
C20   H34   S    
C28   N2    A    
C71   O20   S    
C24   H45   S    
C29   C80   A    
C3    C36   A    
C73   H76   S    
C17   O29   A    
O23   Zn2   S    
C52   H24   S    
C68   H64   S    
C68   O19   S    
C49   H16   S    
C69   C70   S    
C2    C14   A    
C64   H55   S    
C59   O13   S    
C65   H59   S    
C26   O5    S    
C53   H25   S    
C66   H60   S    
C4    C37   A    
C8    C10   A    
C65   C66   S    
C54   O10   S    
C21   C24   D    
C72   H73   S    
C61   O15   S    
C71   H72   S    
C76   H83   S    
C77   H86   S    
C16   O28   A    
C28   O2    S    
C30   N2    A    
C3    C16   S    
C43   H2    S    
N3    O8    S    
C46   H6    S    
