data_mof_unit_65315.cif
_audit_creation_date              2012-12-10T20:19:21-0500
_audit_creation_method            fapswitch 2.2
_symmetry_space_group_name_H-M    P1
_symmetry_Int_Tables_number       1
_space_group_crystal_system       triclinic
_cell_length_a                    41.431767
_cell_length_b                    35.512048
_cell_length_c                    21.496565
_cell_angle_alpha                 89.996802
_cell_angle_beta                  58.895589
_cell_angle_gamma                 89.974361
_cell_volume                      27081.1603863

loop_
_atom_site_label
_atom_site_type_symbol
_atom_type_description
_atom_site_fract_x
_atom_site_fract_y
_atom_site_fract_z
_atom_type_partial_charge
C1    C     C_R   0.926511 0.500029 0.573537 0.865266
C2    C     C_R   0.073488 0.500014 0.426480 0.865304
C3    C     C_R   0.426511 0.000030 0.573532 0.865270
C4    C     C_R   0.573488 0.000013 0.426471 0.865273
C5    C     C_3   0.962787 0.482210 0.252483 -0.374539
C6    C     C_3   0.037209 0.482157 0.747525 -0.374625
C7    C     C_3   0.462772 0.982247 0.252501 -0.374491
C8    C     C_3   0.537238 0.982232 0.747492 -0.374525
C9    C     C_R   0.674526 0.479811 0.868062 -0.207936
C10   C     C_R   0.325442 0.480105 0.131816 -0.208113
C11   C     C_R   0.174547 0.979941 0.868112 -0.207955
C12   C     C_R   0.825478 0.979897 0.131875 -0.208014
C13   C     C_R   0.635304 0.476459 0.906879 -0.049320
C14   C     C_R   0.364664 0.476755 0.092854 -0.048238
C15   C     C_R   0.135328 0.976578 0.906972 -0.049670
C16   C     C_R   0.864703 0.976566 0.092983 -0.049566
C17   C     C_R   0.614315 0.498784 0.885777 -0.136116
C18   C     C_R   0.385673 0.498820 0.114254 -0.136544
C19   C     C_R   0.114320 0.998802 0.885766 -0.136407
C20   C     C_R   0.885681 0.998785 0.114234 -0.136480
C21   C     C_R   0.632805 0.522937 0.825791 -0.214550
C22   C     C_R   0.367187 0.522734 0.174648 -0.214841
C23   C     C_R   0.132797 0.022873 0.825645 -0.214880
C24   C     C_R   0.867171 0.022821 0.174426 -0.215051
C25   C     C_R   0.672130 0.526138 0.786531 -0.014059
C26   C     C_R   0.327858 0.525925 0.214063 -0.014165
C27   C     C_R   0.172120 0.026083 0.786339 -0.014156
C28   C     C_R   0.827841 0.025999 0.213767 -0.014069
C29   C     C_R   0.692824 0.504004 0.808476 0.039757
C30   C     C_R   0.307155 0.504036 0.191834 0.039668
C31   C     C_R   0.192829 0.004045 0.808383 0.039751
C32   C     C_R   0.807163 0.003964 0.191679 0.039767
C33   C     C_1   0.732994 0.503443 0.768628 0.046487
C34   C     C_1   0.266988 0.503450 0.231764 0.046543
C35   C     C_1   0.232999 0.003485 0.768508 0.046421
C36   C     C_1   0.766995 0.003378 0.231563 0.046347
C37   C     C_1   0.766665 0.502558 0.735124 -0.006891
C38   C     C_1   0.233322 0.502539 0.265276 -0.007005
C39   C     C_1   0.266668 0.002593 0.735001 -0.006937
C40   C     C_1   0.733327 0.002479 0.265068 -0.006981
C41   C     C_R   0.825633 0.467242 0.677154 -0.160231
C42   C     C_R   0.174394 0.467208 0.323099 -0.160104
C43   C     C_R   0.325627 0.967262 0.677076 -0.160228
C44   C     C_R   0.674383 0.967174 0.322962 -0.160247
C45   C     C_R   0.000294 0.500028 0.378210 0.857138
C46   C     C_R   0.999708 0.500027 0.621788 0.857113
C47   C     C_R   0.500297 0.000028 0.378207 0.857125
C48   C     C_R   0.499701 0.000026 0.621794 0.857104
C49   C     C_R   0.864873 0.466549 0.637326 -0.184468
C50   C     C_R   0.135153 0.466515 0.362812 -0.184574
C51   C     C_R   0.364867 0.966559 0.637284 -0.184478
C52   C     C_R   0.635143 0.966497 0.362736 -0.184541
C53   C     C_R   0.885246 0.500433 0.615165 -0.048608
C54   C     C_R   0.114750 0.500401 0.384944 -0.048615
C55   C     C_R   0.385247 0.000440 0.615131 -0.048607
C56   C     C_R   0.614751 0.000390 0.384888 -0.048610
C57   C     C_R   0.865839 0.534941 0.633335 -0.197482
C58   C     C_R   0.134124 0.534908 0.366872 -0.197363
C59   C     C_R   0.365848 0.034952 0.633271 -0.197417
C60   C     C_R   0.634139 0.034890 0.366769 -0.197441
C61   C     C_R   0.826666 0.535536 0.673046 -0.125234
C62   C     C_R   0.173293 0.535503 0.327280 -0.125391
C63   C     C_R   0.326676 0.035556 0.672945 -0.125222
C64   C     C_R   0.673310 0.035470 0.327115 -0.125320
C65   C     C_R   0.806696 0.501730 0.694869 0.138338
C66   C     C_R   0.193295 0.501698 0.305481 0.138362
C67   C     C_R   0.306699 0.001754 0.694761 0.138347
C68   C     C_R   0.693298 0.001656 0.305298 0.138369
C69   C     C_R   0.999992 0.573367 0.000009 0.936959
C70   C     C_R   0.499973 0.073377 0.000040 0.936671
C71   C     C_R   0.000023 0.498476 0.121385 0.839767
C72   C     C_R   0.999978 0.498470 0.878614 0.839740
C73   C     C_R   0.500023 0.998479 0.121386 0.839809
C74   C     C_R   0.499978 0.998478 0.878613 0.839734
C75   C     C_R   0.000008 0.426505 0.999989 0.880982
C76   C     C_R   0.500008 0.926505 0.999989 0.881139
C77   C     C_R   0.499921 0.426721 0.000085 0.956813
C78   C     C_R   0.000000 0.926729 0.000001 0.956448
C79   C     C_R   0.573155 0.499057 0.926900 0.972664
C80   C     C_R   0.426841 0.499059 0.073104 0.971328
C81   C     C_R   0.073157 0.999056 0.926898 0.971987
C82   C     C_R   0.926844 0.999057 0.073100 0.971820
C83   C     C_3   0.003342 0.540832 0.281135 -0.418250
C84   C     C_3   0.996670 0.540831 0.718850 -0.418253
C85   C     C_3   0.503375 0.040830 0.281104 -0.418220
C86   C     C_3   0.496602 0.040828 0.718911 -0.418209
C87   C     C_R   0.500002 0.573275 0.999997 0.980220
C88   C     C_R   0.000002 0.073275 0.999997 0.980407
C89   C     C_R   0.494055 0.326469 0.949038 -0.025645
C90   C     C_R   0.498148 0.326438 0.059327 -0.024891
C91   C     C_R   0.998290 0.826418 0.944467 -0.023828
C92   C     C_R   0.001624 0.826415 0.055643 -0.023812
C93   C     C_R   0.496107 0.365775 0.947796 -0.218217
C94   C     C_R   0.500008 0.365747 0.056341 -0.221201
C95   C     C_R   0.998029 0.865767 0.945764 -0.220272
C96   C     C_R   0.001930 0.865765 0.054294 -0.220340
C97   C     C_R   0.498977 0.385466 0.001076 -0.056707
C98   C     C_R   0.999989 0.885479 0.000017 -0.056566
C99   C     C_R   0.495554 0.306753 0.004770 -0.022912
C100  C     C_R   0.999946 0.806701 0.000069 -0.029971
C101  C     C_1   0.497192 0.266562 0.002968 0.093900
C102  C     C_1   0.999934 0.766505 0.000085 0.097567
C103  C     C_1   0.999932 0.732873 0.000087 0.050097
C104  C     C_1   0.498337 0.232941 0.001737 0.043152
C105  C     C_R   0.034092 0.673523 0.962612 -0.137413
C106  C     C_R   0.965810 0.673530 0.037515 -0.137405
C107  C     C_R   0.533346 0.173895 0.963860 -0.156355
C108  C     C_R   0.465043 0.173242 0.037897 -0.117657
C109  C     C_R   0.034154 0.634375 0.962521 -0.174797
C110  C     C_R   0.965778 0.634381 0.037563 -0.174983
C111  C     C_R   0.533778 0.134711 0.963398 -0.167878
C112  C     C_R   0.465381 0.134119 0.037601 -0.182460
C113  C     C_R   0.999974 0.614538 0.000031 0.016232
C114  C     C_R   0.499760 0.114565 0.000306 0.016212
C115  C     C_3   0.002821 0.540412 0.209963 -0.210375
C116  C     C_3   0.997191 0.540409 0.790020 -0.210359
C117  C     C_3   0.502862 0.040411 0.209924 -0.210351
C118  C     C_3   0.497110 0.040409 0.790096 -0.210506
C119  C     C_R   0.999944 0.692931 0.000073 0.141806
C120  C     C_R   0.498982 0.192984 0.001079 0.141592
C121  C     C_R   0.526723 0.673845 0.008333 -0.178766
C122  C     C_R   0.473313 0.673870 0.991543 -0.178802
C123  C     C_R   0.026724 0.173843 0.008340 -0.178755
C124  C     C_R   0.973317 0.173871 0.991542 -0.178777
C125  C     C_R   0.527576 0.634502 0.007277 -0.055724
C126  C     C_R   0.472436 0.634528 0.992684 -0.055697
C127  C     C_R   0.027577 0.134500 0.007279 -0.055733
C128  C     C_R   0.972439 0.134529 0.992679 -0.055715
C129  C     C_R   0.500004 0.614510 0.999990 -0.189781
C130  C     C_R   0.000005 0.114510 0.999989 -0.189859
C131  C     C_R   0.500026 0.693162 0.999911 0.102795
C132  C     C_R   0.000028 0.193162 0.999917 0.102797
C133  C     C_1   0.500037 0.733189 0.999881 -0.016426
C134  C     C_1   0.000039 0.233189 0.999889 -0.016418
C135  C     C_1   0.000045 0.266827 0.999880 -0.046778
C136  C     C_1   0.500043 0.766827 0.999871 -0.046790
C137  C     C_R   0.034179 0.326264 0.969203 -0.144974
C138  C     C_R   0.965894 0.326283 0.030610 -0.145008
C139  C     C_R   0.534179 0.826264 0.969160 -0.144997
C140  C     C_R   0.465892 0.826284 0.030641 -0.145064
C141  C     C_R   0.034218 0.365434 0.969149 -0.185368
C142  C     C_R   0.965837 0.365451 0.030728 -0.185284
C143  C     C_R   0.534218 0.865433 0.969108 -0.185379
C144  C     C_R   0.465835 0.865452 0.030763 -0.185358
C145  C     C_R   0.000022 0.385303 0.999956 -0.032397
C146  C     C_R   0.500022 0.885303 0.999954 -0.032451
C147  C     C_3   0.034892 0.476977 0.252344 -0.440242
C148  C     C_3   0.965104 0.477014 0.747661 -0.440264
C149  C     C_3   0.534877 0.976950 0.252356 -0.440196
C150  C     C_3   0.465134 0.976962 0.747638 -0.440191
C151  C     C_R   0.000041 0.306833 0.999892 0.154276
C152  C     C_R   0.500039 0.806833 0.999884 0.154286
C153  C     C_3   0.963806 0.481406 0.322807 -0.387379
C154  C     C_3   0.036192 0.481356 0.677200 -0.387339
C155  C     C_3   0.463794 0.981435 0.322820 -0.387404
C156  C     C_3   0.536215 0.981415 0.677174 -0.387417
C157  C     C_3   0.000568 0.499967 0.309889 0.117170
C158  C     C_3   0.999434 0.499963 0.690109 0.117172
C159  C     C_3   0.500571 0.999967 0.309886 0.117154
C160  C     C_3   0.499428 0.999963 0.690115 0.117200
C161  C     C_3   0.000428 0.498715 0.189138 -0.021883
C162  C     C_3   0.999573 0.498708 0.810862 -0.021861
C163  C     C_3   0.500428 0.998717 0.189138 -0.021933
C164  C     C_3   0.499572 0.998714 0.810862 -0.021809
C165  C     C_3   0.034521 0.475098 0.180967 -0.147782
C166  C     C_3   0.965473 0.475134 0.819040 -0.147750
C167  C     C_3   0.534500 0.975067 0.180985 -0.147796
C168  C     C_3   0.465515 0.975076 0.819006 -0.147795
H1    H     H_    0.029378 0.554504 0.273321 0.200861
H2    H     H_    0.970635 0.554535 0.726662 0.200877
H3    H     H_    0.529419 0.054485 0.273291 0.200841
H4    H     H_    0.470553 0.054496 0.726720 0.200809
H5    H     H_    0.957283 0.453554 0.239393 0.214460
H6    H     H_    0.042705 0.453494 0.760628 0.214427
H7    H     H_    0.457238 0.953599 0.239435 0.214457
H8    H     H_    0.542792 0.953583 0.760548 0.214436
H9    H     H_    0.691145 0.462461 0.882761 0.177052
H10   H     H_    0.308815 0.462941 0.116883 0.176988
H11   H     H_    0.191179 0.962664 0.882891 0.177084
H12   H     H_    0.808871 0.962624 0.117058 0.177040
H13   H     H_    0.880867 0.561464 0.616882 0.166495
H14   H     H_    0.119073 0.561433 0.383308 0.166542
H15   H     H_    0.380882 0.061471 0.616822 0.166499
H16   H     H_    0.619097 0.061420 0.383217 0.166573
H17   H     H_    0.811965 0.562293 0.686676 0.162758
H18   H     H_    0.187967 0.562259 0.313714 0.162563
H19   H     H_    0.311981 0.062315 0.686555 0.162684
H20   H     H_    0.687994 0.062220 0.313520 0.162721
H21   H     H_    0.060871 0.619702 0.933187 0.159170
H22   H     H_    0.939073 0.619713 0.066882 0.159198
H23   H     H_    0.560622 0.120251 0.934286 0.158061
H24   H     H_    0.438779 0.119242 0.066473 0.160237
H25   H     H_    0.060684 0.311157 0.945395 0.145816
H26   H     H_    0.939396 0.311191 0.054399 0.145832
H27   H     H_    0.560685 0.811156 0.945321 0.145825
H28   H     H_    0.439392 0.811192 0.054459 0.145833
H29   H     H_    0.060930 0.380097 0.945211 0.170819
H30   H     H_    0.939117 0.380127 0.054691 0.170858
H31   H     H_    0.560932 0.880096 0.945141 0.170859
H32   H     H_    0.439114 0.880128 0.054756 0.170929
H33   H     H_    0.976514 0.554958 0.220990 0.146464
H34   H     H_    0.023502 0.554922 0.778985 0.146505
H35   H     H_    0.476572 0.054985 0.220927 0.146503
H36   H     H_    0.523388 0.054976 0.779108 0.146240
H37   H     H_    0.061190 0.488016 0.137882 0.197643
H38   H     H_    0.938808 0.488086 0.862117 0.197664
H39   H     H_    0.561180 0.987958 0.137881 0.197631
H40   H     H_    0.438826 0.987972 0.862120 0.197665
H41   H     H_    0.962073 0.451689 0.340772 0.213093
H42   H     H_    0.037917 0.451638 0.659244 0.213096
H43   H     H_    0.462041 0.951718 0.340800 0.213093
H44   H     H_    0.537981 0.951696 0.659191 0.213093
H45   H     H_    0.938489 0.499883 0.261692 0.185850
H46   H     H_    0.061512 0.499798 0.738311 0.185851
H47   H     H_    0.438491 0.999946 0.261700 0.185868
H48   H     H_    0.561507 0.999924 0.738296 0.185748
O1    O     O_R   0.944550 0.531270 0.555450 -0.621115
O2    O     O_R   0.055450 0.531270 0.444550 -0.621162
O3    O     O_R   0.444550 0.031270 0.555450 -0.621129
O4    O     O_R   0.555450 0.031270 0.444550 -0.621106
O5    O     O_R   0.555400 0.500060 0.892310 -0.620186
O6    O     O_R   0.444600 0.500060 0.107690 -0.621303
O7    O     O_R   0.055400 0.000060 0.892310 -0.621219
O8    O     O_R   0.944600 0.000060 0.107690 -0.621181
O9    O     O_R   0.555410 0.500090 0.996860 -0.589850
O10   O     O_R   0.444590 0.500090 0.003140 -0.589913
O11   O     O_R   0.055410 0.000090 0.996860 -0.589575
O12   O     O_R   0.944590 0.000090 0.003140 -0.589608
O13   O     O_R   0.500010 0.555520 0.947680 -0.602864
O14   O     O_R   0.499990 0.555520 0.052320 -0.602735
O15   O     O_R   0.000010 0.055520 0.947680 -0.602750
O16   O     O_R   0.999990 0.055520 0.052320 -0.602732
O17   O     O_R   0.944500 0.468660 0.555500 -0.620770
O18   O     O_R   0.055500 0.468660 0.444500 -0.620750
O19   O     O_R   0.444500 0.968660 0.555500 -0.620766
O20   O     O_R   0.555500 0.968660 0.444500 -0.620776
O21   O     O_R   0.999990 0.531270 0.407410 -0.626330
O22   O     O_R   0.000010 0.531270 0.592590 -0.626340
O23   O     O_R   0.499990 0.031270 0.407410 -0.626313
O24   O     O_R   0.500010 0.031270 0.592590 -0.626331
O25   O     O_R   0.999940 0.468660 0.407460 -0.622138
O26   O     O_R   0.000060 0.468660 0.592540 -0.622146
O27   O     O_R   0.499940 0.968660 0.407460 -0.622148
O28   O     O_R   0.500060 0.968660 0.592540 -0.622146
O29   O     O_R   0.968670 0.555400 0.031330 -0.621386
O30   O     O_R   0.031330 0.555400 0.968670 -0.621366
O31   O     O_R   0.468670 0.055400 0.031330 -0.621233
O32   O     O_R   0.531330 0.055400 0.968670 -0.621335
O33   O     O_R   0.968670 0.499940 0.123930 -0.631024
O34   O     O_R   0.031330 0.499940 0.876070 -0.631035
O35   O     O_R   0.468670 0.999940 0.123930 -0.631005
O36   O     O_R   0.531330 0.999940 0.876070 -0.631085
O37   O     O_R   0.031270 0.499990 0.061330 -0.595624
O38   O     O_R   0.968730 0.499990 0.938670 -0.595605
O39   O     O_R   0.531270 0.999990 0.061330 -0.595643
O40   O     O_R   0.468730 0.999990 0.938670 -0.595610
O41   O     O_R   0.968660 0.444490 0.031330 -0.611530
O42   O     O_R   0.031340 0.444490 0.968670 -0.611556
O43   O     O_R   0.468660 0.944490 0.031330 -0.611504
O44   O     O_R   0.531340 0.944490 0.968670 -0.611538
O45   O     O_R   0.499920 0.444610 0.947830 -0.615127
O46   O     O_R   0.500080 0.444610 0.052170 -0.616488
O47   O     O_R   0.999920 0.944610 0.947830 -0.616187
O48   O     O_R   0.000080 0.944610 0.052170 -0.616246
Zn1   Zn    Zn3+2 1.000000 0.541770 0.500000 0.965848
Zn2   Zn    Zn3+2 0.500000 0.041770 0.500000 0.965963
Zn3   Zn    Zn3+2 1.000000 0.458160 0.500000 0.975153
Zn4   Zn    Zn3+2 0.500000 0.958160 0.500000 0.975131
Zn5   Zn    Zn3+2 0.958170 0.499940 0.041830 1.018332
Zn6   Zn    Zn3+2 0.041830 0.499940 0.958170 1.018223
Zn7   Zn    Zn3+2 0.458170 0.999940 0.041830 1.018431
Zn8   Zn    Zn3+2 0.541830 0.999940 0.958170 1.018079
Zn9   Zn    Zn3+2 0.499960 0.500060 0.930220 1.049081
Zn10  Zn    Zn3+2 0.500040 0.500060 0.069780 1.047728
Zn11  Zn    Zn3+2 0.999960 0.000060 0.930220 1.047720
Zn12  Zn    Zn3+2 0.000040 0.000060 0.069780 1.047730
H49   H     H_    0.034634 0.448237 0.273313 0.205494
H50   H     H_    0.965357 0.448274 0.726701 0.205482
H51   H     H_    0.534600 0.948212 0.273347 0.205492
H52   H     H_    0.465423 0.948225 0.726637 0.205489
C169  C     C_2   0.035351 0.434761 0.156627 0.889370
O49   O     O_2   0.012224 0.411709 0.197793 -0.631806
O50   O     O_R   0.063217 0.423951 0.086494 -0.788399
H53   H     H_    0.060969 0.396552 0.076012 0.345018
C170  C     C_2   0.964631 0.434798 0.843397 0.889389
O51   O     O_2   0.987754 0.411718 0.802244 -0.631827
O52   O     O_R   0.936759 0.424021 0.913531 -0.788319
H54   H     H_    0.938998 0.396618 0.924025 0.345016
C171  C     C_2   0.535288 0.934729 0.156692 0.889331
O53   O     O_2   0.512140 0.911700 0.197889 -0.631803
O54   O     O_R   0.563137 0.923890 0.086566 -0.788424
H55   H     H_    0.560861 0.896492 0.076117 0.345039
C172  C     C_2   0.464756 0.934736 0.843271 0.889341
O55   O     O_2   0.487919 0.911702 0.802059 -0.631814
O56   O     O_R   0.436914 0.923902 0.913389 -0.788377
H56   H     H_    0.439207 0.896502 0.923818 0.345042
C173  C     C_2   0.617613 0.447936 0.965821 0.930202
O57   O     O_2   0.631764 0.440778 0.002264 -0.601532
O58   O     O_R   0.585661 0.428184 0.978044 -0.814267
H57   H     H_    0.576576 0.409310 0.019139 0.353634
C174  C     C_2   0.382321 0.448476 0.033445 0.930028
O59   O     O_2   0.368214 0.441751 0.996769 -0.603821
O60   O     O_R   0.414174 0.428442 0.021052 -0.815082
H58   H     H_    0.423202 0.409745 0.979681 0.348244
C175  C     C_2   0.117664 0.948139 0.966070 0.930488
O61   O     O_2   0.131804 0.941138 0.002593 -0.601007
O62   O     O_R   0.085757 0.928281 0.978349 -0.814544
H59   H     H_    0.076704 0.909467 0.019534 0.354245
C176  C     C_2   0.882404 0.948161 0.033804 0.930523
O63   O     O_2   0.868283 0.941199 0.997241 -0.601041
O64   O     O_R   0.914325 0.928286 0.021497 -0.814486
H60   H     H_    0.923401 0.909496 0.980260 0.354260
H61   H     H_    0.616214 0.540196 0.810955 0.203828
H62   H     H_    0.383780 0.539812 0.189722 0.203858
H63   H     H_    0.116195 0.040062 0.810727 0.203847
H64   H     H_    0.883748 0.040007 0.189381 0.203834
C177  C     C_2   0.690338 0.552803 0.723921 0.921603
O65   O     O_2   0.672756 0.564227 0.696230 -0.609756
O66   O     O_R   0.727148 0.565545 0.697152 -0.809716
H65   H     H_    0.736000 0.583597 0.654849 0.351928
C178  C     C_2   0.309655 0.552319 0.277136 0.921385
O67   O     O_2   0.327269 0.563498 0.304915 -0.610076
O68   O     O_R   0.272811 0.565086 0.304255 -0.809559
H66   H     H_    0.263966 0.582939 0.346856 0.351956
C179  C     C_2   0.190312 0.052655 0.723576 0.921413
O69   O     O_2   0.172716 0.063983 0.695849 -0.610009
O70   O     O_R   0.227125 0.065419 0.696698 -0.809586
H67   H     H_    0.235965 0.083402 0.654296 0.351988
C180  C     C_2   0.809611 0.052533 0.276610 0.921313
O71   O     O_2   0.827198 0.063853 0.304348 -0.610152
O72   O     O_R   0.772773 0.065272 0.303551 -0.809648
H68   H     H_    0.763908 0.083230 0.346005 0.351897
H69   H     H_    0.810094 0.440991 0.694052 0.144015
H70   H     H_    0.189961 0.440958 0.306204 0.144138
H71   H     H_    0.310082 0.941014 0.693973 0.144032
H72   H     H_    0.689939 0.940918 0.306061 0.144030
H73   H     H_    0.879192 0.439615 0.624018 0.164440
H74   H     H_    0.120857 0.439584 0.376053 0.164459
H75   H     H_    0.379180 0.939623 0.623997 0.164449
H76   H     H_    0.620837 0.939571 0.376009 0.164430
H77   H     H_    0.979068 0.557898 0.322240 0.177907
H78   H     H_    0.020947 0.557868 0.677738 0.177899
H79   H     H_    0.479111 0.057913 0.322192 0.177974
H80   H     H_    0.520860 0.057898 0.677832 0.177911
C181  C     C_2   0.490272 0.307101 0.891496 0.915210
O73   O     O_2   0.501453 0.322599 0.832996 -0.608668
O74   O     O_R   0.473170 0.271718 0.904291 -0.802377
H81   H     H_    0.472239 0.261853 0.860984 0.356471
C182  C     C_2   0.498927 0.307034 0.120135 0.916344
O75   O     O_2   0.513558 0.322494 0.150333 -0.609293
O76   O     O_R   0.482251 0.271654 0.144344 -0.803167
H82   H     H_    0.484615 0.261757 0.186061 0.355894
C183  C     C_2   0.996934 0.807100 0.884153 0.916837
O77   O     O_2   0.982873 0.823128 0.853418 -0.608579
O78   O     O_R   0.012382 0.771170 0.860997 -0.807245
H83   H     H_    0.009717 0.761450 0.819522 0.356409
C184  C     C_2   0.002959 0.807095 0.115983 0.916831
O79   O     O_2   0.017036 0.823095 0.146699 -0.608570
O80   O     O_R   0.987473 0.771197 0.139182 -0.807234
H84   H     H_    0.990126 0.761471 0.180670 0.356402
H85   H     H_    0.494831 0.381165 0.905587 0.194655
H86   H     H_    0.501855 0.381109 0.097952 0.194929
H87   H     H_    0.996779 0.881160 0.903527 0.194401
H88   H     H_    0.003196 0.881155 0.096511 0.194436
H89   H     H_    0.060577 0.688631 0.933557 0.147931
H90   H     H_    0.939313 0.688644 0.066584 0.147951
H91   H     H_    0.559689 0.189266 0.935300 0.143411
H92   H     H_    0.438378 0.188087 0.066781 0.153672
H93   H     H_    0.547584 0.689594 0.013722 0.172035
H94   H     H_    0.452457 0.689639 0.986134 0.172052
H95   H     H_    0.047585 0.189591 0.013732 0.172032
H96   H     H_    0.952462 0.189642 0.986131 0.172053
C185  C     C_2   0.558654 0.615525 0.010514 0.931659
O81   O     O_2   0.570403 0.628985 0.047475 -0.603566
O82   O     O_R   0.575576 0.583218 0.969243 -0.823701
H97   H     H_    0.596757 0.573393 0.975358 0.349494
C186  C     C_2   0.441337 0.615579 0.989526 0.931564
O83   O     O_2   0.429564 0.629041 0.952595 -0.603606
O84   O     O_R   0.424423 0.583294 0.030837 -0.823392
H98   H     H_    0.403227 0.573485 0.024773 0.349484
C187  C     C_2   0.058655 0.115522 0.010512 0.931638
O85   O     O_2   0.070402 0.128976 0.047481 -0.603530
O86   O     O_R   0.075580 0.083219 0.969228 -0.823520
H99   H     H_    0.096762 0.073392 0.975341 0.349556
C188  C     C_2   0.941342 0.115582 0.989509 0.931606
O87   O     O_2   0.929571 0.129049 0.952579 -0.603619
O88   O     O_R   0.924429 0.083295 0.030809 -0.823463
H100  H     H_    0.903235 0.073486 0.024737 0.349518
C189  C     C_2   0.035099 0.563237 0.150832 0.928044
O89   O     O_2   0.067785 0.556196 0.132144 -0.623869
O90   O     O_R   0.027066 0.593096 0.118597 -0.817053
H101  H     H_    0.050633 0.606415 0.080078 0.348396
C190  C     C_2   0.964921 0.563273 0.849144 0.927983
O91   O     O_2   0.932232 0.556273 0.867839 -0.623835
O92   O     O_R   0.972963 0.593123 0.881363 -0.817056
H102  H     H_    0.949399 0.606472 0.919877 0.348408
C191  C     C_2   0.535167 0.063202 0.150778 0.928110
O93   O     O_2   0.567844 0.056131 0.132118 -0.623971
O94   O     O_R   0.527171 0.093066 0.118495 -0.817056
H103  H     H_    0.550755 0.106362 0.079972 0.348188
C192  C     C_2   0.464786 0.063210 0.849246 0.928110
O95   O     O_2   0.432115 0.056143 0.867902 -0.623606
O96   O     O_R   0.472757 0.093082 0.881529 -0.817105
H104  H     H_    0.449162 0.106392 0.920034 0.349025
H105  H     H_    0.061439 0.490631 0.241904 0.171414
H106  H     H_    0.938561 0.490701 0.758093 0.171425
H107  H     H_    0.561434 0.990587 0.241898 0.171446
H108  H     H_    0.438569 0.990613 0.758106 0.171488
H109  H     H_    0.938822 0.496592 0.366532 0.157079
H110  H     H_    0.061179 0.496513 0.633472 0.157075
H111  H     H_    0.438822 0.996638 0.366541 0.157095
H112  H     H_    0.561178 0.996604 0.633454 0.157029

loop_
_geom_bond_atom_site_label_1
_geom_bond_atom_site_label_2
_ccdc_geom_bond_type
C60   H16   S    
C117  C191  S    
C111  H23   S    
C184  O79   D    
C55   C59   A    
C173  O58   S    
C108  C120  A    
O54   H55   S    
C25   C177  S    
C174  O59   D    
C117  C163  S    
C76   O44   A    
C118  C164  S    
C95   H87   S    
C92   C184  S    
C89   C99   A    
C154  C158  S    
C191  O94   S    
C155  H111  S    
C82   O8    A    
C153  H109  S    
C29   C33   S    
C139  C152  A    
C50   H74   S    
O21   Zn1   S    
C116  C190  S    
C9    C13   A    
C3    O19   A    
C107  H91   S    
C12   C16   A    
C1    O17   A    
C168  H40   S    
O5    Zn9   S    
C91   C100  A    
C154  H42   S    
C140  C152  A    
C125  C185  S    
C180  O71   D    
C141  C145  A    
C70   O31   A    
C76   C146  S    
C4    C56   S    
C121  H93   S    
C141  H29   S    
C41   C49   A    
C147  H49   S    
C139  H27   S    
C63   C67   A    
C25   C29   A    
O46   Zn10  S    
C27   C31   A    
O68   H66   S    
O24   Zn2   S    
C28   C32   A    
C30   C34   S    
C6    H6    S    
C94   C97   A    
C8    H48   S    
C87   O13   A    
C7    C163  S    
C110  H22   S    
C17   C21   A    
C5    C161  S    
O6    Zn10  S    
C19   C23   A    
C10   C30   A    
O60   H58   S    
C144  H32   S    
C75   O42   A    
O37   Zn6   S    
C16   C20   A    
C150  C168  S    
C13   C173  S    
O86   H99   S    
C85   C117  S    
C77   O45   A    
C69   O29   A    
C99   C101  S    
C8    C164  S    
C189  O89   D    
C11   H11   S    
C43   H71   S    
O88   H100  S    
C107  C120  A    
C9    H9    S    
C49   H73   S    
C16   C176  S    
C71   C161  S    
C93   H85   S    
C78   O48   A    
C118  H36   S    
C166  C170  S    
O30   Zn6   S    
C27   C179  S    
O82   H97   S    
C57   C61   A    
C138  C151  A    
C190  O91   D    
C59   C63   A    
C60   C64   A    
C73   C163  S    
C74   C164  S    
O18   Zn3   S    
C49   C53   A    
C83   H1    S    
C51   C55   A    
C85   H79   S    
C45   O21   A    
C22   C26   A    
C173  O57   D    
C125  C129  A    
C132  C134  S    
C178  O67   D    
C6    H46   S    
C2    O2    A    
C115  C189  S    
C165  H37   S    
C71   O33   A    
C161  C165  S    
C108  H92   S    
C188  O88   S    
C47   O27   A    
C182  O75   D    
C20   C82   S    
C123  C132  A    
O3    Zn2   S    
O29   Zn5   S    
O76   H82   S    
C24   H64   S    
C112  C114  A    
C192  O95   D    
C47   C159  S    
C91   C183  S    
C48   C160  S    
C69   C113  S    
C168  C172  S    
C85   H3    S    
C86   H4    S    
C64   C68   A    
C83   H77   S    
C42   H70   S    
C84   H2    S    
O94   H103  S    
C46   C158  S    
C115  H33   S    
C92   C96   A    
C124  C132  A    
C179  O70   S    
C1    C53   S    
C94   H86   S    
C105  H89   S    
C147  C165  S    
C26   C178  S    
C139  C143  A    
C175  O62   S    
C96   C98   A    
O25   Zn3   S    
C77   C97   S    
O10   Zn9   S    
C14   C174  S    
C62   H18   S    
C44   C52   A    
C84   C116  S    
C4    O20   A    
C183  O78   S    
C11   C15   A    
O39   Zn8   S    
C176  O64   S    
O40   Zn7   S    
O20   Zn4   S    
C154  H110  S    
C62   C66   A    
C155  C159  S    
C83   C115  S    
C156  C160  S    
C45   C157  S    
C10   C14   A    
C84   C158  S    
C170  O52   S    
C90   C99   A    
O23   Zn2   S    
C115  C161  S    
C121  C125  A    
C172  O55   D    
C61   C65   A    
C140  H28   S    
C123  C127  A    
C61   H17   S    
C171  O53   D    
C59   H15   S    
C64   H20   S    
C42   C50   A    
C47   O23   A    
C12   H12   S    
C84   H78   S    
C26   C30   A    
O47   Zn11  S    
C41   H69   S    
C86   H80   S    
O41   Zn5   S    
C93   C97   A    
C122  C131  A    
O80   H84   S    
O43   Zn7   S    
C189  O90   S    
C52   H76   S    
O78   H83   S    
C21   C25   A    
C18   C22   A    
C5    H5    S    
C24   C28   A    
C72   O38   A    
C8    H8    S    
C134  C135  T    
C169  O50   S    
C166  H38   S    
O38   Zn5   S    
C63   H19   S    
C13   C17   A    
C87   C129  S    
C191  O93   D    
C28   C180  S    
C148  H50   S    
C149  H51   S    
C89   C93   A    
C102  C103  T    
C186  O84   S    
C91   C95   A    
C122  H94   S    
O50   H53   S    
C72   C162  S    
C80   O10   A    
C19   C81   S    
C70   O32   A    
C73   O35   A    
C58   C62   A    
C143  C146  A    
C21   H61   S    
C106  C119  A    
C124  H96   S    
C148  C166  S    
O16   Zn12  S    
C149  C167  S    
C48   O28   A    
C183  O77   D    
O84   H98   S    
C15   C19   A    
O13   Zn9   S    
C50   C54   A    
C150  C160  S    
C185  O82   S    
C54   C58   A    
C150  H108  S    
C51   H75   S    
C156  H112  S    
C106  H90   S    
C177  O66   S    
C71   O37   A    
C105  C109  A    
C136  C152  S    
C162  C166  S    
C2    O18   A    
C75   O41   A    
C4    O4    A    
C79   O5    A    
C181  O74   S    
C124  C128  A    
C138  H26   S    
C184  O80   S    
O14   Zn10  S    
C142  C145  A    
C107  C111  A    
C48   O24   A    
C90   C94   A    
C174  O60   S    
O8    Zn12  S    
C76   O43   A    
C77   O46   A    
O62   H59   S    
O33   Zn5   S    
O27   Zn4   S    
C144  C146  A    
C2    C54   S    
O56   H56   S    
C53   C57   A    
C127  C187  S    
C33   C37   T    
C108  C112  A    
O44   Zn8   S    
C35   C39   T    
O11   Zn12  S    
C170  O51   D    
C165  C169  S    
O17   Zn3   S    
O31   Zn7   S    
O52   H54   S    
O32   Zn8   S    
C164  C168  S    
C128  C188  S    
C86   C118  S    
O48   Zn12  S    
C6    C154  S    
C37   C65   S    
C148  H106  S    
C101  C104  T    
O1    Zn1   S    
C149  H107  S    
C138  C142  A    
C31   C35   S    
C46   O26   A    
C32   C36   S    
O74   H81   S    
C188  O87   D    
C137  C141  A    
C140  C144  A    
C128  C130  A    
C74   O36   A    
O92   H102  S    
C167  C171  S    
C87   O14   A    
C126  C129  A    
C58   H14   S    
C123  H95   S    
C96   H88   S    
O70   H67   S    
C153  H41   S    
C43   C51   A    
C82   O12   A    
C135  C151  S    
C111  C114  A    
C153  C157  S    
C179  O69   D    
O42   Zn6   S    
C150  H52   S    
O66   H65   S    
C56   C60   A    
C69   O30   A    
C88   O15   A    
C7    C155  S    
C3    O3    A    
C175  O61   D    
C40   C68   S    
C187  O86   S    
C105  C119  A    
C1    O1    A    
C85   C159  S    
C72   O34   A    
C86   C160  S    
C7    H47   S    
C104  C120  S    
O64   H60   S    
C156  H44   S    
O9    Zn10  S    
C14   C18   A    
O96   H104  S    
C88   C130  S    
O72   H68   S    
O4    Zn2   S    
C57   H13   S    
C95   C98   A    
O90   H101  S    
C176  O63   D    
C70   C114  S    
C190  O92   S    
C116  C162  S    
C112  H24   S    
O12   Zn11  S    
C89   C181  S    
C17   C79   S    
O2    Zn1   S    
C90   C182  S    
C73   O39   A    
C118  C192  S    
C6    C162  S    
C109  H21   S    
C178  O68   S    
C83   C157  S    
C78   C98   S    
C133  C136  T    
C23   C27   A    
C109  C113  A    
C11   C31   A    
C182  O76   S    
C12   C32   A    
C142  H30   S    
C3    C55   S    
C121  C131  A    
C126  C186  S    
C192  O96   S    
C15   C175  S    
C81   O7    A    
C137  H25   S    
C10   H10   S    
C20   C24   A    
C36   C40   T    
O35   Zn7   S    
O58   H57   S    
O36   Zn8   S    
C41   C65   A    
C169  O49   D    
C80   O6    A    
O45   Zn9   S    
C7    H7    S    
O28   Zn4   S    
C167  H39   S    
C122  C126  A    
C163  C167  S    
C22   H62   S    
C100  C102  S    
C180  O72   S    
O15   Zn11  S    
C148  C158  S    
O26   Zn3   S    
C23   H63   S    
C149  C159  S    
C110  C113  A    
C186  O83   D    
C43   C67   A    
C147  H105  S    
C44   C68   A    
O34   Zn6   S    
C147  C157  S    
C45   O25   A    
C92   C100  A    
C106  C110  A    
O19   Zn4   S    
C75   C145  S    
C38   C66   S    
C81   O11   A    
C88   O16   A    
C34   C38   T    
C39   C67   S    
O22   Zn1   S    
C103  C119  S    
C131  C133  S    
C116  H34   S    
C9    C29   A    
C143  H31   S    
C155  H43   S    
C127  C130  A    
C172  O56   S    
C185  O81   D    
C187  O85   D    
C5    C153  S    
C5    H45   S    
C171  O54   S    
C46   O22   A    
C177  O65   D    
C8    C156  S    
C78   O47   A    
C44   H72   S    
O7    Zn11  S    
C18   C80   S    
C42   C66   A    
C137  C151  A    
C181  O73   D    
C117  H35   S    
C79   O9    A    
C74   O40   A    
C52   C56   A    
