data_mof_unit_26621.cif
_audit_creation_date              2012-12-10T16:54:54-0500
_audit_creation_method            fapswitch 2.2
_symmetry_space_group_name_H-M    P1
_symmetry_Int_Tables_number       1
_space_group_crystal_system       triclinic
_cell_length_a                    7.770152
_cell_length_b                    8.578688
_cell_length_c                    15.721967
_cell_angle_alpha                 90.82475
_cell_angle_beta                  85.907493
_cell_angle_gamma                 93.625856
_cell_volume                      1043.17425288

loop_
_atom_site_label
_atom_site_type_symbol
_atom_type_description
_atom_site_fract_x
_atom_site_fract_y
_atom_site_fract_z
_atom_type_partial_charge
C1    C     C_R   0.545770 0.794731 0.497825 0.959870
C2    C     C_3   0.353921 0.598248 0.053037 -0.398829
C3    C     C_3   0.499524 0.501287 0.082731 0.322655
C4    C     C_3   0.474625 0.331634 0.048774 -0.385375
C5    C     C_3   0.474682 0.331347 0.950671 -0.352632
C6    C     C_1   0.494433 0.501146 0.174300 -0.116159
C7    C     C_1   0.508970 0.500039 0.825542 -0.128566
C8    C     C_1   0.506926 0.499917 0.750282 -0.171617
C9    C     C_2   0.569865 0.958199 0.496600 -0.379289
C10   C     C_2   0.430138 0.041802 0.503469 -0.379089
C11   C     C_R   0.502140 0.500046 0.661583 0.907112
C12   C     C_R   0.454231 0.205269 0.502202 0.962218
C13   C     C_R   0.497906 0.499974 0.338408 0.904513
C14   C     C_3   0.359781 0.598444 0.954735 -0.432711
C15   C     C_3   0.682765 0.575128 0.947410 -0.112133
C16   C     C_3   0.676820 0.573688 0.046328 -0.389426
C17   C     C_1   0.493865 0.500729 0.249664 -0.176938
C18   C     C_3   0.508644 0.500375 0.917129 0.304382
H1    H     H_    0.369341 0.720516 0.077341 0.169954
H2    H     H_    0.233583 0.549648 0.933448 0.202297
H3    H     H_    0.225535 0.548021 0.079008 0.185094
H4    H     H_    0.580433 0.261100 0.068221 0.186733
H5    H     H_    0.701844 0.009224 0.490052 0.181176
H6    H     H_    0.298160 0.990777 0.510023 0.181013
H7    H     H_    0.013430 0.382015 0.436581 0.192315
H8    H     H_    0.986569 0.617970 0.563429 0.191693
H9    H     H_    0.378637 0.720810 0.931582 0.168007
H10   H     H_    0.694994 0.699513 0.927130 0.088325
H11   H     H_    0.696901 0.695583 0.070655 0.144940
H12   H     H_    0.782500 0.507249 0.069555 0.197656
H13   H     H_    0.347175 0.281686 0.931426 0.177844
H14   H     H_    0.573512 0.253885 0.922487 0.207321
H15   H     H_    0.350281 0.275642 0.076363 0.169477
N1    N     N_2   0.950340 0.457950 0.477370 -0.172316
N2    N     N_2   0.049660 0.542050 0.522630 -0.172342
O1    O     O_R   0.389240 0.738570 0.505550 -0.613433
O2    O     O_R   0.678400 0.711630 0.491050 -0.631350
O3    O     O_R   0.355360 0.513470 0.630110 -0.611290
O4    O     O_R   0.644510 0.486530 0.615610 -0.622098
O5    O     O_R   0.321600 0.288370 0.508950 -0.630040
O6    O     O_R   0.610760 0.261430 0.494450 -0.612603
O7    O     O_R   0.355490 0.513470 0.384390 -0.622353
O8    O     O_R   0.644640 0.486530 0.369890 -0.612846
Zn1   Zn    Zn3+2 0.306930 0.517990 0.509680 0.946491
Zn2   Zn    Zn3+2 0.693070 0.482010 0.490320 0.945971
C19   C     C_2   0.840690 0.500376 0.907063 0.354832
H16   H     H_    0.917399 0.559238 0.855266 0.065321
O9    O     O_2   0.881329 0.373297 0.930180 -0.593774

loop_
_geom_bond_atom_site_label_1
_geom_bond_atom_site_label_2
_ccdc_geom_bond_type
C12   O5    A    
C11   O3    A    
O3    Zn1   S    
C12   O6    A    
C1    O2    A    
C14   H9    S    
C15   C18   S    
C4    H4    S    
C9    C10   D    
C14   C18   S    
C13   C17   S    
H7    N1    S    
O4    Zn2   S    
C3    C6    S    
C7    C18   S    
C2    H3    S    
C2    C3    S    
C16   H11   S    
C7    C8    T    
N1    Zn2   S    
C11   O4    A    
N2    Zn1   S    
O8    Zn2   S    
C15   H10   S    
O7    Zn1   S    
C8    C11   S    
C10   C12   S    
C13   O7    A    
C2    C14   S    
C19   O9    D    
O1    Zn1   S    
C16   H12   S    
C3    C4    S    
C14   H2    S    
H8    N2    S    
O5    Zn1   S    
C1    C9    S    
N1    N2    D    
C6    C17   T    
O6    Zn2   S    
C4    H15   S    
C9    H5    S    
C5    C18   S    
C13   O8    A    
C15   C19   S    
C10   H6    S    
C2    H1    S    
C19   H16   S    
O2    Zn2   S    
C5    H14   S    
C3    C16   S    
C15   C16   S    
C1    O1    A    
C4    C5    S    
C5    H13   S    
