data_mof_unit_16634.cif
_audit_creation_date              2012-12-11T14:14:05-0500
_audit_creation_method            fapswitch 2.2
_symmetry_space_group_name_H-M    P1
_symmetry_Int_Tables_number       1
_space_group_crystal_system       triclinic
_cell_length_a                    16.925459
_cell_length_b                    7.247437
_cell_length_c                    16.978933
_cell_angle_alpha                 90.002135
_cell_angle_beta                  99.420881
_cell_angle_gamma                 89.992179
_cell_volume                      2054.65031559

loop_
_atom_site_label
_atom_site_type_symbol
_atom_type_description
_atom_site_fract_x
_atom_site_fract_y
_atom_site_fract_z
_atom_type_partial_charge
O1    O     O_R   0.414560 0.494370 0.416770 -0.545543
O2    O     O_R   0.585440 0.994370 0.583230 -0.545504
O3    O     O_R   0.578370 0.819590 0.429320 -0.542075
O4    O     O_R   0.421630 0.319590 0.570680 -0.542197
C1    C     C_R   0.605761 0.654720 0.414836 0.730589
C2    C     C_R   0.394270 0.154754 0.585203 0.730943
O5    O     O_R   0.414740 0.823790 0.407360 -0.539734
O6    O     O_R   0.585260 0.323790 0.592640 -0.540008
O7    O     O_R   0.420650 0.998510 0.561120 -0.519327
O8    O     O_R   0.579350 0.498510 0.438880 -0.519361
C3    C     C_R   0.388074 0.654928 0.385086 0.753826
C4    C     C_R   0.611951 0.154927 0.614889 0.753733
O9    O     O_3   0.502130 0.662240 0.550470 -0.381881
O10   O     O_3   0.497870 0.162240 0.449530 -0.381738
V1    V     V_3+5 0.499600 0.935390 0.490640 1.430048
V2    V     V_3+5 0.500400 0.435390 0.509360 1.429550
C5    C     C_2   0.781851 0.270897 0.791554 -0.130949
C6    C     C_2   0.218406 0.770774 0.208172 -0.130719
C7    C     C_2   0.820120 0.113416 0.817789 -0.306914
C8    C     C_2   0.179959 0.613381 0.182134 -0.306959
H1    H     H_    0.801581 0.400450 0.820376 0.140381
H2    H     H_    0.198793 0.900259 0.179211 0.140350
H3    H     H_    0.801816 0.982216 0.790245 0.127693
H4    H     H_    0.198177 0.482227 0.209777 0.127513
C9    C     C_2   0.713040 0.283570 0.724408 -0.147403
C10   C     C_2   0.287260 0.783449 0.275273 -0.148081
C11   C     C_2   0.678857 0.138232 0.682590 -0.303179
C12   C     C_2   0.321197 0.638214 0.317359 -0.303478
H5    H     H_    0.690349 0.421217 0.708819 0.138125
H6    H     H_    0.310149 0.921027 0.290650 0.138445
H7    H     H_    0.699979 0.999570 0.697438 0.127230
H8    H     H_    0.299887 0.499609 0.302717 0.127307
C13   C     C_R   0.327897 0.139089 0.632726 -0.214272
C14   C     C_R   0.672113 0.638793 0.367290 -0.214666
C15   C     C_R   0.166763 0.130843 0.862107 -0.079489
C16   C     C_R   0.833238 0.631010 0.137917 -0.079989
C17   C     C_R   0.280806 0.301292 0.827896 -0.119066
C18   C     C_R   0.719862 0.803089 0.172728 -0.118323
C19   C     C_R   0.225934 0.267748 0.879438 -0.152214
C20   C     C_R   0.774602 0.769314 0.121080 -0.152098
C21   C     C_R   0.163801 0.026855 0.791824 -0.170811
C22   C     C_R   0.835693 0.525645 0.207764 -0.170565
C23   C     C_R   0.217221 0.064306 0.737639 -0.000223
C24   C     C_R   0.782343 0.563103 0.262028 -0.000597
C25   C     C_R   0.276595 0.202112 0.756454 0.093610
C26   C     C_R   0.723626 0.702597 0.243773 0.093815
C27   C     C_R   0.331691 0.237173 0.704487 -0.286513
C28   C     C_R   0.668674 0.737945 0.295852 -0.285691
C29   C     C_R   0.263884 0.012274 0.610256 0.335379
C30   C     C_R   0.735638 0.510421 0.389330 0.336313
C31   C     C_R   0.210669 0.970643 0.664089 0.352034
C32   C     C_R   0.788386 0.467790 0.335146 0.349945
H9    H     H_    0.379424 0.336427 0.721240 0.148725
H10   H     H_    0.621346 0.838384 0.279447 0.149095
H11   H     H_    0.325817 0.407301 0.843374 0.112411
H12   H     H_    0.675316 0.910298 0.157655 0.112587
H13   H     H_    0.229448 0.350221 0.933121 0.117393
H14   H     H_    0.771431 0.852798 0.067722 0.117808
H15   H     H_    0.117541 0.923232 0.777975 0.160087
H16   H     H_    0.881590 0.421042 0.221300 0.159786
O11   O     O_R   0.920750 0.773600 0.061260 -0.532112
O12   O     O_R   0.079250 0.273600 0.938740 -0.532027
O13   O     O_R   0.085340 0.439850 0.092570 -0.544356
O14   O     O_R   0.914660 0.939850 0.907430 -0.544270
C33   C     C_R   0.112408 0.608275 0.114519 0.730329
C34   C     C_R   0.887617 0.108289 0.885457 0.730267
O15   O     O_R   0.921720 0.444130 0.070790 -0.539546
O16   O     O_R   0.078280 0.944130 0.929210 -0.539445
O17   O     O_R   0.914480 0.269530 0.916840 -0.534157
O18   O     O_R   0.085520 0.769530 0.083160 -0.534122
C35   C     C_R   0.895943 0.613384 0.086324 0.682011
C36   C     C_R   0.104051 0.113357 0.913677 0.681898
O19   O     O_3   0.997840 0.601520 0.949550 -0.375797
O20   O     O_3   0.002160 0.101520 0.050450 -0.375878
V3    V     V_3+5 0.000400 0.328340 0.009360 1.408052
V4    V     V_3+5 0.999600 0.828340 0.990640 1.408373
O21   O     O_3   0.253621 0.920773 0.537409 -0.543390
C37   C     C_3   0.237243 0.048551 0.473396 0.090616
H17   H     H_    0.293013 0.074409 0.448636 0.138265
H18   H     H_    0.213437 0.183906 0.490656 0.090861
C38   C     C_3   0.175785 0.967301 0.406901 -0.736548
H19   H     H_    0.115020 0.974158 0.423070 0.191122
H20   H     H_    0.175237 0.047831 0.351160 0.183007
H21   H     H_    0.190521 0.821304 0.395891 0.246693
O22   O     O_3   0.745852 0.418589 0.462107 -0.544106
C39   C     C_3   0.762415 0.546035 0.526257 0.090102
H22   H     H_    0.706861 0.570633 0.551564 0.139226
H23   H     H_    0.785563 0.682059 0.508983 0.091524
C40   C     C_3   0.824656 0.465387 0.592219 -0.739996
H24   H     H_    0.885187 0.473827 0.575534 0.191083
H25   H     H_    0.825365 0.545382 0.648127 0.183693
H26   H     H_    0.810566 0.318990 0.603219 0.246572
O23   O     O_3   0.155451 0.828764 0.647777 -0.545329
C41   C     C_3   0.091668 0.881134 0.587230 0.153725
H27   H     H_    0.096527 0.800344 0.532744 0.164553
H28   H     H_    0.090280 0.031175 0.571791 0.091869
C42   C     C_3   0.012272 0.831799 0.612965 -0.779718
H29   H     H_    0.003481 0.915570 0.665583 0.215833
H30   H     H_    0.962238 0.860331 0.563434 0.183600
H31   H     H_    0.011387 0.683091 0.628600 0.232900
O24   O     O_3   0.842327 0.323048 0.350411 -0.545270
C43   C     C_3   0.906501 0.370614 0.411351 0.152145
H32   H     H_    0.899102 0.294147 0.466257 0.167174
H33   H     H_    0.911156 0.521347 0.425346 0.091767
C44   C     C_3   0.985097 0.308921 0.387163 -0.777144
H34   H     H_    0.996281 0.387084 0.333832 0.216576
H35   H     H_    0.035284 0.334778 0.436858 0.182054
H36   H     H_    0.982805 0.159097 0.373174 0.232167

loop_
_geom_bond_atom_site_label_1
_geom_bond_atom_site_label_2
_ccdc_geom_bond_type
O13   C33   A    
O23   C41   S    
C16   C22   A    
C6    C10   S    
O2    C4    A    
C38   H21   S    
C2    O7    A    
C42   H29   S    
O21   C37   S    
C28   H10   S    
C44   H35   S    
O24   C43   S    
C43   C44   S    
C15   C19   A    
C37   H18   S    
C34   O17   A    
C13   C29   A    
C33   O18   A    
C19   H13   S    
C7    C34   S    
C30   O22   S    
C38   H20   S    
C8    H4    S    
C29   C31   A    
O1    C3    A    
C30   C32   A    
C40   H25   S    
O15   C35   A    
C16   C35   S    
O16   C36   A    
C27   H9    S    
C24   C32   A    
O5    V1    S    
O6    V2    S    
C6    H2    S    
C21   C23   A    
C43   H32   S    
C22   C24   A    
C42   H30   S    
C24   C26   A    
C38   H19   S    
C25   C27   A    
O11   V4    S    
C9    H5    S    
C44   H36   S    
C26   C28   A    
C32   O24   S    
C14   C30   A    
C20   H14   S    
O20   V3    S    
C39   H23   S    
C11   H7    S    
C8    C33   S    
C12   H8    S    
C21   H15   S    
O4    C2    A    
C22   H16   S    
C39   H22   S    
C4    C11   S    
C41   C42   S    
O22   C39   S    
C5    H1    S    
O14   C34   A    
O4    V2    S    
C41   H28   S    
O5    C3    A    
C16   C20   A    
O6    C4    A    
C1    C14   S    
O14   V4    S    
O12   C36   A    
O1    V2    S    
C40   H26   S    
C43   H33   S    
O2    V1    S    
C23   C25   A    
C31   O23   S    
C15   C36   S    
C10   H6    S    
O18   V4    S    
C9    C11   D    
C13   C27   A    
O19   V4    S    
O12   V3    S    
O15   V3    S    
C17   C25   A    
C42   H31   S    
O3    V1    S    
C7    H3    S    
C37   H17   S    
O3    C1    A    
C39   C40   S    
O16   V4    S    
C18   H12   S    
C44   H34   S    
C10   C12   D    
C2    C13   S    
C5    C9    S    
O7    V1    S    
C1    O8    A    
C17   C19   A    
O8    V2    S    
C18   C20   A    
C37   C38   S    
O11   C35   A    
O13   V3    S    
C3    C12   S    
C23   C31   A    
C5    C7    D    
C29   O21   S    
O17   V3    S    
C6    C8    D    
C41   H27   S    
C15   C21   A    
C18   C26   A    
C17   H11   S    
C14   C28   A    
O9    V2    S    
O10   V1    S    
C40   H24   S    
