data_mof_unit_38124.cif
_audit_creation_date              2012-12-10T19:06:13-0500
_audit_creation_method            fapswitch 2.2
_symmetry_space_group_name_H-M    P1
_symmetry_Int_Tables_number       1
_space_group_crystal_system       triclinic
_cell_length_a                    30.318915
_cell_length_b                    30.318837
_cell_length_c                    30.319733
_cell_angle_alpha                 89.998615
_cell_angle_beta                  89.99924
_cell_angle_gamma                 90.000342
_cell_volume                      27870.9367678

loop_
_atom_site_label
_atom_site_type_symbol
_atom_type_description
_atom_site_fract_x
_atom_site_fract_y
_atom_site_fract_z
_atom_type_partial_charge
C1    C     C_R   0.500000 0.000000 0.913574 0.910528
C2    C     C_R   0.000001 0.500001 0.913799 0.945294
C3    C     C_R   0.040173 0.504794 0.341629 0.433805
C4    C     C_R   0.966784 0.342674 0.476954 0.420092
C5    C     C_R   0.959807 0.504687 0.658367 0.433689
C6    C     C_R   0.966782 0.657313 0.523085 0.420190
C7    C     C_R   0.959828 0.495196 0.341630 0.433804
C8    C     C_R   0.657331 0.522961 0.966707 0.420132
C9    C     C_R   0.495047 0.341631 0.959850 0.433798
C10   C     C_R   0.342669 0.477039 0.966709 0.420132
C11   C     C_R   0.504953 0.658369 0.959846 0.433798
C12   C     C_R   0.342668 0.522961 0.033290 0.420130
C13   C     C_R   0.913575 0.500000 0.999999 0.910170
C14   C     C_R   0.504955 0.341631 0.040154 0.433796
C15   C     C_R   0.657331 0.477037 0.033288 0.420129
C16   C     C_R   0.495044 0.658368 0.040150 0.433797
C17   C     C_R   0.522961 0.033289 0.342671 0.420120
C18   C     C_R   0.341631 0.040157 0.504917 0.433787
C19   C     C_R   0.477033 0.033290 0.657325 0.420140
C20   C     C_R   0.658369 0.040155 0.495061 0.433800
C21   C     C_R   0.522958 0.966709 0.657329 0.420123
C22   C     C_R   0.341632 0.959839 0.495094 0.433773
C23   C     C_R   0.477027 0.966714 0.342676 0.420146
C24   C     C_R   1.000000 0.499999 0.086202 0.945320
C25   C     C_R   0.658368 0.959845 0.504947 0.433798
C26   C     C_R   0.500001 0.134144 0.000001 -0.266685
C27   C     C_R   0.499999 0.999998 0.134796 -0.294971
C28   C     C_R   0.500000 0.865856 0.999999 -0.266684
C29   C     C_R   0.500000 0.000002 0.865204 -0.294972
C30   C     C_R   0.134147 0.999997 0.499999 -0.266748
C31   C     C_R   0.999993 0.865204 0.500003 -0.294980
C32   C     C_R   0.865853 0.000001 0.500001 -0.266748
C33   C     C_R   0.000011 0.134796 0.499999 -0.294988
C34   C     C_R   0.999999 0.500004 0.865856 -0.266746
C35   C     C_R   0.000000 0.499999 0.413574 0.911273
C36   C     C_R   0.865205 0.499999 0.999996 -0.295027
C37   C     C_R   0.000000 0.499998 0.134145 -0.266755
C38   C     C_R   0.134795 0.500000 0.999998 -0.295023
C39   C     C_R   0.000000 0.634138 0.500014 -0.266479
C40   C     C_R   0.999995 0.499994 0.634797 -0.294787
C41   C     C_R   0.000002 0.365861 0.500013 -0.266471
C42   C     C_R   0.000000 0.499997 0.365203 -0.294879
C43   C     C_R   0.634146 0.500000 0.999998 -0.266638
C44   C     C_R   0.500000 0.365204 0.000001 -0.294945
C45   C     C_R   0.365854 0.500000 0.000000 -0.266639
C46   C     C_R   0.000000 0.586199 0.500004 0.946642
C47   C     C_R   0.499999 0.634796 0.999998 -0.294945
C48   C     C_R   0.499995 0.000001 0.365857 -0.266614
C49   C     C_R   0.365204 0.999999 0.500004 -0.294931
C50   C     C_R   0.499996 0.999999 0.634143 -0.266614
C51   C     C_R   0.634796 0.000000 0.500003 -0.294953
C52   C     C_R   0.500002 0.225691 0.000003 0.019620
C53   C     C_R   0.499997 0.999996 0.226678 0.014613
C54   C     C_R   0.500000 0.774309 0.999997 0.019620
C55   C     C_R   0.500000 0.000007 0.773322 0.014611
C56   C     C_R   0.225694 0.999997 0.500001 0.019621
C57   C     C_R   0.999999 0.499997 0.586426 0.911645
C58   C     C_R   0.999978 0.773319 0.500009 0.014601
C59   C     C_R   0.774306 0.000000 0.500005 0.019609
C60   C     C_R   0.000035 0.226681 0.500000 0.014589
C61   C     C_R   0.999987 0.500018 0.774310 0.019728
C62   C     C_R   0.773323 0.499998 0.999993 0.014496
C63   C     C_R   1.000000 0.499995 0.225691 0.019679
C64   C     C_R   0.226677 0.500001 0.999998 0.014502
C65   C     C_R   0.999983 0.725685 0.500010 0.019590
C66   C     C_R   0.999989 0.500019 0.726678 0.014860
C67   C     C_R   0.000029 0.274314 0.500000 0.019586
C68   C     C_R   1.000000 0.413801 0.500005 0.946572
C69   C     C_R   0.000000 0.499994 0.273322 0.014741
C70   C     C_R   0.725693 0.499997 0.999994 0.019539
C71   C     C_R   0.500002 0.273322 0.000003 0.014641
C72   C     C_R   0.274307 0.500002 0.999998 0.019541
C73   C     C_R   0.499999 0.726678 0.999997 0.014641
C74   C     C_R   0.499996 0.999997 0.274310 0.019603
C75   C     C_R   0.273323 0.999997 0.500002 0.014646
C76   C     C_R   0.500000 0.000006 0.725690 0.019601
C77   C     C_R   0.726676 0.000000 0.500006 0.014615
C78   C     C_3   0.604672 0.132167 0.977595 0.134799
C79   C     C_R   0.500000 0.586425 0.999999 0.910760
C80   C     C_3   0.636152 0.170349 0.967072 -0.399638
C81   C     C_3   0.682814 0.160604 0.983218 -0.951744
C82   C     C_3   0.588948 0.945827 0.128123 0.163231
C83   C     C_3   0.614171 0.924045 0.166131 -0.409125
C84   C     C_3   0.630987 0.878459 0.153081 -0.927753
C85   C     C_3   0.604670 0.867834 0.022404 0.134798
C86   C     C_3   0.636150 0.829652 0.032927 -0.399636
C87   C     C_3   0.682812 0.839397 0.016779 -0.951741
C88   C     C_3   0.588952 0.054172 0.871877 0.163230
C89   C     C_3   0.614181 0.075951 0.833870 -0.409120
C90   C     C_R   0.586201 0.500000 1.000000 0.945911
C91   C     C_3   0.630998 0.121537 0.846920 -0.927759
C92   C     C_3   0.395329 0.867833 0.977596 0.134799
C93   C     C_3   0.363850 0.829651 0.967075 -0.399638
C94   C     C_3   0.317189 0.839393 0.983224 -0.951742
C95   C     C_3   0.411048 0.054167 0.128122 0.163232
C96   C     C_3   0.385818 0.075945 0.166128 -0.409122
C97   C     C_3   0.369002 0.121531 0.153078 -0.927754
C98   C     C_3   0.395330 0.132166 0.022405 0.134798
C99   C     C_3   0.363851 0.170349 0.032926 -0.399639
C100  C     C_3   0.317190 0.160606 0.016777 -0.951740
C101  C     C_R   0.500000 0.413575 0.000000 0.910758
C102  C     C_3   0.411052 0.945830 0.871877 0.163233
C103  C     C_3   0.385826 0.924051 0.833869 -0.409125
C104  C     C_3   0.369011 0.878463 0.846918 -0.927752
C105  C     C_3   0.132174 0.022223 0.395295 0.134810
C106  C     C_3   0.170381 0.032647 0.363813 -0.399723
C107  C     C_3   0.160644 0.016416 0.317180 -0.951679
C108  C     C_3   0.945621 0.871909 0.411191 0.163416
C109  C     C_3   0.923739 0.833893 0.386065 -0.409259
C110  C     C_3   0.878140 0.846983 0.369314 -0.927410
C111  C     C_3   0.867825 0.977759 0.395301 0.134806
C112  C     C_R   0.500000 0.086201 0.000000 0.945687
C113  C     C_R   0.413799 0.500000 0.000000 0.945907
C114  C     C_3   0.829617 0.967327 0.363824 -0.399719
C115  C     C_3   0.839354 0.983547 0.317186 -0.951687
C116  C     C_3   0.054396 0.128086 0.411195 0.163432
C117  C     C_3   0.076288 0.166104 0.386078 -0.409274
C118  C     C_3   0.121888 0.153010 0.369332 -0.927382
C119  C     C_3   0.867829 0.022247 0.604701 0.134814
C120  C     C_3   0.829627 0.032688 0.636184 -0.399713
C121  C     C_3   0.839365 0.016468 0.682821 -0.951689
C122  C     C_3   0.054370 0.871901 0.588809 0.163412
C123  C     C_3   0.076249 0.833879 0.613930 -0.409260
C124  C     C_R   0.586426 0.000000 0.500001 0.910806
C125  C     C_3   0.121851 0.846961 0.630677 -0.927398
C126  C     C_3   0.132170 0.977758 0.604703 0.134814
C127  C     C_3   0.170371 0.967317 0.636186 -0.399714
C128  C     C_3   0.160631 0.983535 0.682823 -0.951683
C129  C     C_3   0.945621 0.128103 0.588797 0.163412
C130  C     C_3   0.923735 0.166133 0.613898 -0.409277
C131  C     C_3   0.878128 0.153056 0.630640 -0.927386
C132  C     C_3   0.022170 0.604728 0.867847 0.134832
C133  C     C_3   0.032594 0.636234 0.829659 -0.399696
C134  C     C_3   0.016345 0.682858 0.839414 -0.951643
C135  C     C_R   0.499999 0.000001 0.413799 0.946014
C136  C     C_3   0.871908 0.588776 0.054415 0.163473
C137  C     C_3   0.833876 0.613854 0.076325 -0.409341
C138  C     C_3   0.846963 0.630582 0.121932 -0.927324
C139  C     C_3   0.977809 0.604713 0.132164 0.134817
C140  C     C_3   0.967387 0.636207 0.170360 -0.399703
C141  C     C_3   0.983636 0.682834 0.160616 -0.951655
C142  C     C_3   0.128088 0.588784 0.945587 0.163475
C143  C     C_3   0.166119 0.613865 0.923677 -0.409340
C144  C     C_3   0.153030 0.630600 0.878072 -0.927329
C145  C     C_3   0.022192 0.395282 0.132163 0.134817
C146  C     C_R   0.413574 1.000000 0.500001 0.910906
C147  C     C_3   0.032615 0.363787 0.170359 -0.399704
C148  C     C_3   0.016368 0.317160 0.160615 -0.951657
C149  C     C_3   0.871918 0.411227 0.945574 0.163495
C150  C     C_3   0.833889 0.386150 0.923657 -0.409349
C151  C     C_3   0.846983 0.369426 0.878050 -0.927305
C152  C     C_3   0.977839 0.395282 0.867837 0.134816
C153  C     C_3   0.967426 0.363786 0.829641 -0.399701
C154  C     C_3   0.983690 0.317164 0.839384 -0.951633
C155  C     C_3   0.128090 0.411214 0.054407 0.163467
C156  C     C_3   0.166120 0.386129 0.076314 -0.409335
C157  C     C_R   0.499999 0.999999 0.586201 0.945978
C158  C     C_3   0.153032 0.369396 0.121919 -0.927338
C159  C     C_3   0.104565 0.632181 0.477123 0.134738
C160  C     C_3   0.136008 0.670331 0.466378 -0.399431
C161  C     C_3   0.182748 0.660589 0.482298 -0.951943
C162  C     C_3   0.089438 0.446555 0.628225 0.162565
C163  C     C_3   0.115089 0.425166 0.666167 -0.408533
C164  C     C_3   0.132160 0.379641 0.653234 -0.928966
C165  C     C_3   0.104569 0.367854 0.522967 0.134763
C166  C     C_3   0.136038 0.329750 0.533798 -0.399355
C167  C     C_3   0.182788 0.339520 0.517925 -0.952007
C168  C     C_R   0.531584 0.203065 0.975507 -0.265927
C169  C     C_3   0.089300 0.553658 0.371801 0.162724
C170  C     C_3   0.114815 0.575165 0.333832 -0.408720
C171  C     C_3   0.131807 0.620711 0.346792 -0.928647
C172  C     C_3   0.895435 0.367815 0.477145 0.134733
C173  C     C_3   0.863994 0.329660 0.466414 -0.399439
C174  C     C_3   0.817258 0.339396 0.482351 -0.951934
C175  C     C_3   0.910495 0.553381 0.628214 0.162548
C176  C     C_3   0.884618 0.574659 0.666062 -0.408328
C177  C     C_3   0.867531 0.620176 0.653119 -0.929092
C178  C     C_3   0.895434 0.632159 0.522988 0.134730
C179  C     C_R   0.539792 0.996918 0.204069 -0.265797
C180  C     C_3   0.863992 0.670289 0.533803 -0.399389
C181  C     C_3   0.817224 0.660526 0.517978 -0.951992
C182  C     C_3   0.910704 0.446333 0.371813 0.162743
C183  C     C_3   0.885190 0.424819 0.333848 -0.408730
C184  C     C_3   0.868202 0.379273 0.346817 -0.928624
C185  C     C_3   0.632174 0.522568 0.895366 0.134788
C186  C     C_3   0.670349 0.533162 0.863901 -0.399577
C187  C     C_3   0.660609 0.517087 0.817215 -0.951883
C188  C     C_3   0.445996 0.371853 0.910940 0.163072
C189  C     C_3   0.424304 0.333854 0.885624 -0.409000
C190  C     C_R   0.531582 0.796935 0.024493 -0.265926
C191  C     C_3   0.378730 0.346874 0.868752 -0.928051
C192  C     C_3   0.367827 0.477436 0.895368 0.134788
C193  C     C_3   0.329652 0.466843 0.863904 -0.399581
C194  C     C_3   0.339392 0.482920 0.817217 -0.951872
C195  C     C_3   0.554002 0.628148 0.910934 0.163068
C196  C     C_3   0.575693 0.666146 0.885614 -0.408994
C197  C     C_3   0.621266 0.653127 0.868741 -0.928057
C198  C     C_3   0.367822 0.522562 0.104632 0.134780
C199  C     C_3   0.329645 0.533152 0.136094 -0.399581
C200  C     C_3   0.339382 0.517074 0.182781 -0.951860
C201  C     C_R   0.539795 0.003084 0.795931 -0.265796
C202  C     C_3   0.554004 0.371854 0.089063 0.163075
C203  C     C_3   0.575697 0.333857 0.114381 -0.409000
C204  C     C_3   0.621271 0.346879 0.131252 -0.928045
C205  C     C_3   0.632177 0.477433 0.104630 0.134780
C206  C     C_3   0.670355 0.466843 0.136091 -0.399583
C207  C     C_3   0.660619 0.482920 0.182778 -0.951861
C208  C     C_3   0.445993 0.628144 0.089060 0.163075
C209  C     C_3   0.424300 0.666141 0.114376 -0.409001
C210  C     C_3   0.378726 0.653119 0.131247 -0.928044
C211  C     C_3   0.522581 0.104633 0.367827 0.134774
C212  C     C_R   0.468419 0.796937 0.975501 -0.265927
C213  C     C_3   0.533185 0.136100 0.329658 -0.399552
C214  C     C_3   0.517118 0.182790 0.339400 -0.951841
C215  C     C_3   0.371846 0.089118 0.553920 0.163015
C216  C     C_3   0.333857 0.114483 0.575571 -0.408944
C217  C     C_3   0.346869 0.131383 0.621136 -0.928172
C218  C     C_3   0.477401 0.104633 0.632161 0.134783
C219  C     C_3   0.466777 0.136106 0.670318 -0.399540
C220  C     C_3   0.482834 0.182799 0.660566 -0.951857
C221  C     C_3   0.628151 0.089082 0.446023 0.163053
C222  C     C_3   0.666148 0.114413 0.424344 -0.408987
C223  C     C_R   0.500000 0.999999 0.086426 0.910525
C224  C     C_R   0.460203 0.003074 0.204069 -0.265791
C225  C     C_3   0.653133 0.131293 0.378773 -0.928093
C226  C     C_3   0.522566 0.895366 0.632174 0.134775
C227  C     C_3   0.533162 0.863899 0.670345 -0.399563
C228  C     C_3   0.517086 0.817211 0.660605 -0.951837
C229  C     C_3   0.371842 0.910863 0.446103 0.163002
C230  C     C_3   0.333872 0.885443 0.424484 -0.408887
C231  C     C_3   0.346880 0.868534 0.378922 -0.928224
C232  C     C_3   0.477387 0.895370 0.367836 0.134778
C233  C     C_3   0.466756 0.863900 0.329678 -0.399538
C234  C     C_3   0.482801 0.817204 0.339427 -0.951861
C235  C     C_R   0.468420 0.203063 0.024499 -0.265927
C236  C     C_3   0.628143 0.910921 0.553984 0.163065
C237  C     C_3   0.666137 0.885592 0.575669 -0.408995
C238  C     C_3   0.653116 0.868714 0.621240 -0.928073
C239  C     C_R   0.460206 0.996927 0.795932 -0.265792
C240  C     C_R   0.203069 0.024446 0.468383 -0.265966
C241  C     C_R   0.996803 0.795929 0.460221 -0.265813
C242  C     C_R   0.796931 0.975546 0.468392 -0.265964
C243  C     C_R   0.003211 0.204070 0.460214 -0.265811
C244  C     C_R   0.796932 0.024455 0.531616 -0.265966
C245  C     C_R   0.003159 0.795931 0.539793 -0.265792
C246  C     C_R   0.203066 0.975547 0.531617 -0.265974
C247  C     C_R   0.500000 0.913799 0.000000 0.945685
C248  C     C_R   0.996848 0.204069 0.539785 -0.265795
C249  C     C_R   0.024407 0.531657 0.796939 -0.266001
C250  C     C_R   0.795931 0.539785 0.003183 -0.265789
C251  C     C_R   0.975569 0.531627 0.203065 -0.265990
C252  C     C_R   0.204068 0.539788 0.996813 -0.265792
C253  C     C_R   0.024431 0.468364 0.203064 -0.265994
C254  C     C_R   0.795932 0.460212 0.996804 -0.265788
C255  C     C_R   0.975573 0.468371 0.796938 -0.266021
C256  C     C_R   0.204069 0.460214 0.003183 -0.265790
C257  C     C_R   0.031457 0.703061 0.475370 -0.265814
C258  C     C_R   0.000002 0.086425 0.499999 0.910221
C259  C     C_R   0.039808 0.497261 0.704071 -0.265784
C260  C     C_R   0.031493 0.296949 0.524644 -0.265795
C261  C     C_R   0.039812 0.502841 0.295930 -0.265784
C262  C     C_R   0.968549 0.296938 0.475368 -0.265814
C263  C     C_R   0.960171 0.502760 0.704067 -0.265699
C264  C     C_R   0.968522 0.703050 0.524659 -0.265820
C265  C     C_R   0.960189 0.497147 0.295931 -0.265783
C266  C     C_R   0.703067 0.524550 0.968457 -0.265873
C267  C     C_R   0.497000 0.295931 0.960203 -0.265789
C268  C     C_R   0.296934 0.475450 0.968461 -0.265873
C269  C     C_R   0.086202 0.999999 0.500000 0.945356
C270  C     C_R   0.503000 0.704070 0.960198 -0.265791
C271  C     C_R   0.296933 0.524552 0.031537 -0.265868
C272  C     C_R   0.503003 0.295930 0.039802 -0.265789
C273  C     C_R   0.703067 0.475445 0.031533 -0.265867
C274  C     C_R   0.496998 0.704069 0.039797 -0.265787
C275  C     C_R   0.524547 0.031538 0.296936 -0.265883
C276  C     C_R   0.295931 0.039801 0.502963 -0.265780
C277  C     C_R   0.475450 0.031545 0.703060 -0.265879
C278  C     C_R   0.704069 0.039802 0.497017 -0.265781
C279  C     C_R   0.524547 0.968462 0.703063 -0.265884
C280  C     C_R   0.999999 0.913575 0.500001 0.910241
C281  C     C_R   0.295931 0.960194 0.497044 -0.265765
C282  C     C_R   0.475443 0.968460 0.296941 -0.265880
C283  C     C_R   0.704069 0.960198 0.502995 -0.265780
C284  C     C_R   0.533331 0.157330 0.977095 0.420131
C285  C     C_R   0.540142 0.994967 0.158368 0.433796
C286  C     C_R   0.533329 0.842670 0.022905 0.420129
C287  C     C_R   0.540144 0.005033 0.841631 0.433795
C288  C     C_R   0.466671 0.842671 0.977092 0.420131
C289  C     C_R   0.459855 0.005027 0.158368 0.433793
C290  C     C_R   0.466672 0.157329 0.022908 0.420131
C291  C     C_R   0.913798 0.000000 0.500000 0.945371
C292  C     C_R   0.459857 0.994973 0.841632 0.433794
C293  C     C_R   0.157335 0.022851 0.466633 0.420134
C294  C     C_R   0.994862 0.841631 0.459875 0.433779
C295  C     C_R   0.842665 0.977142 0.466641 0.420138
C296  C     C_R   0.005149 0.158368 0.459870 0.433785
C297  C     C_R   0.842666 0.022860 0.533363 0.420135
C298  C     C_R   0.005115 0.841632 0.540134 0.433784
C299  C     C_R   0.157333 0.977142 0.533364 0.420141
C300  C     C_R   0.994886 0.158368 0.540129 0.433792
C301  C     C_R   0.022823 0.533392 0.842671 0.420137
C302  C     C_R   0.086425 0.500000 0.999999 0.910183
C303  C     C_R   0.841633 0.540128 0.005138 0.433794
C304  C     C_R   0.977162 0.533374 0.157332 0.420131
C305  C     C_R   0.158367 0.540131 0.994859 0.433796
C306  C     C_R   0.022838 0.466620 0.157331 0.420137
C307  C     C_R   0.841634 0.459870 0.994851 0.433794
C308  C     C_R   0.977170 0.466622 0.842669 0.420130
C309  C     C_R   0.158367 0.459871 0.005137 0.433792
C310  C     C_R   0.033217 0.657326 0.476951 0.420088
C311  C     C_R   0.040177 0.495302 0.658373 0.433753
C312  C     C_R   0.033227 0.342686 0.523076 0.420150
H1    H     H_    0.555347 0.221065 0.955825 0.159939
H2    H     H_    0.994535 0.777963 0.429396 0.163263
H3    H     H_    0.357312 0.945061 0.824405 0.237001
H4    H     H_    0.407876 0.920511 0.804840 0.214476
H5    H     H_    0.396935 0.856990 0.857019 0.280069
H6    H     H_    0.352030 0.863012 0.818390 0.262593
H7    H     H_    0.345153 0.881247 0.874579 0.263458
H8    H     H_    0.100718 0.031757 0.379135 0.158169
H9    H     H_    0.130072 0.985872 0.400998 0.131082
H10   H     H_    0.176297 0.068781 0.362913 0.239763
H11   H     H_    0.200889 0.016181 0.375568 0.213884
H12   H     H_    0.154699 0.980261 0.317293 0.266210
H13   H     H_    0.778930 0.955895 0.444605 0.159955
H14   H     H_    0.189280 0.023547 0.295490 0.269559
H15   H     H_    0.131204 0.033517 0.303635 0.260544
H16   H     H_    0.944533 0.901882 0.390182 0.172529
H17   H     H_    0.926415 0.879876 0.441609 0.144423
H18   H     H_    0.944682 0.824354 0.357527 0.237015
H19   H     H_    0.920199 0.804902 0.408167 0.214441
H20   H     H_    0.856739 0.857182 0.397256 0.280196
H21   H     H_    0.862607 0.818443 0.352427 0.262511
H22   H     H_    0.880926 0.874586 0.345390 0.263428
H23   H     H_    0.899281 0.968224 0.379142 0.158168
H24   H     H_    0.005484 0.222037 0.429388 0.163268
H25   H     H_    0.869925 0.014111 0.400996 0.131075
H26   H     H_    0.823701 0.931193 0.362934 0.239770
H27   H     H_    0.799109 0.983796 0.375575 0.213873
H28   H     H_    0.845300 0.019702 0.317287 0.266208
H29   H     H_    0.810717 0.976412 0.295499 0.269559
H30   H     H_    0.868793 0.966442 0.303643 0.260543
H31   H     H_    0.055484 0.098116 0.390182 0.172540
H32   H     H_    0.073593 0.120111 0.441615 0.144421
H33   H     H_    0.055352 0.175652 0.357538 0.237013
H34   H     H_    0.079829 0.195090 0.408185 0.214441
H35   H     H_    0.778933 0.044106 0.555404 0.159952
H36   H     H_    0.143282 0.142799 0.397276 0.280208
H37   H     H_    0.137430 0.181551 0.352454 0.262503
H38   H     H_    0.119102 0.125413 0.345401 0.263424
H39   H     H_    0.899289 0.031777 0.620855 0.158174
H40   H     H_    0.869920 0.985893 0.599009 0.131071
H41   H     H_    0.823720 0.068824 0.637073 0.239764
H42   H     H_    0.799114 0.016225 0.624438 0.213873
H43   H     H_    0.845302 0.980311 0.682720 0.266211
H44   H     H_    0.810734 0.023611 0.704512 0.269557
H45   H     H_    0.868811 0.033566 0.696358 0.260547
H46   H     H_    0.005426 0.777966 0.570620 0.163276
H47   H     H_    0.055467 0.901873 0.609819 0.172541
H48   H     H_    0.073572 0.879867 0.558388 0.144403
H49   H     H_    0.055307 0.824340 0.642470 0.237020
H50   H     H_    0.079781 0.804891 0.591826 0.214443
H51   H     H_    0.143250 0.857163 0.602734 0.280187
H52   H     H_    0.137383 0.818416 0.647559 0.262514
H53   H     H_    0.119072 0.874560 0.654605 0.263426
H54   H     H_    0.100710 0.968228 0.620858 0.158176
H55   H     H_    0.130079 0.014111 0.599008 0.131066
H56   H     H_    0.176280 0.931182 0.637075 0.239769
H57   H     H_    0.221065 0.955899 0.555409 0.159946
H58   H     H_    0.200884 0.983782 0.624439 0.213874
H59   H     H_    0.154692 0.019692 0.682722 0.266210
H60   H     H_    0.189263 0.976394 0.704513 0.269559
H61   H     H_    0.131187 0.966434 0.696361 0.260544
H62   H     H_    0.944518 0.098138 0.609818 0.172539
H63   H     H_    0.926427 0.120126 0.558375 0.144413
H64   H     H_    0.944669 0.175683 0.642439 0.237018
H65   H     H_    0.920206 0.195114 0.591782 0.214443
H66   H     H_    0.856737 0.142842 0.602696 0.280195
H67   H     H_    0.862591 0.181606 0.647506 0.262512
H68   H     H_    0.994579 0.222035 0.570612 0.163281
H69   H     H_    0.880903 0.125466 0.654581 0.263423
H70   H     H_    0.031690 0.620876 0.899313 0.158198
H71   H     H_    0.985820 0.599013 0.869935 0.131063
H72   H     H_    0.068730 0.637149 0.823755 0.239753
H73   H     H_    0.016142 0.624488 0.799141 0.213924
H74   H     H_    0.980187 0.682731 0.845349 0.266216
H75   H     H_    0.023475 0.704565 0.810792 0.269569
H76   H     H_    0.033432 0.696394 0.868865 0.260544
H77   H     H_    0.901866 0.609806 0.055518 0.172576
H78   H     H_    0.879899 0.558345 0.073590 0.144379
H79   H     H_    0.044028 0.555474 0.778942 0.159911
H80   H     H_    0.824307 0.642402 0.055407 0.237009
H81   H     H_    0.804905 0.591725 0.079855 0.214418
H82   H     H_    0.857201 0.602632 0.143306 0.280224
H83   H     H_    0.818410 0.647426 0.137489 0.262486
H84   H     H_    0.874539 0.654539 0.119155 0.263416
H85   H     H_    0.968283 0.620869 0.100703 0.158189
H86   H     H_    0.014159 0.599001 0.130069 0.131073
H87   H     H_    0.931252 0.637119 0.176267 0.239752
H88   H     H_    0.983842 0.624452 0.200874 0.213905
H89   H     H_    0.019793 0.682709 0.154679 0.266211
H90   H     H_    0.777963 0.570610 0.005458 0.163289
H91   H     H_    0.976506 0.704533 0.189244 0.269565
H92   H     H_    0.966547 0.696379 0.131170 0.260548
H93   H     H_    0.098130 0.609813 0.944486 0.172582
H94   H     H_    0.120096 0.558355 0.926410 0.144366
H95   H     H_    0.175689 0.642410 0.944597 0.237011
H96   H     H_    0.195090 0.591737 0.920143 0.214417
H97   H     H_    0.142789 0.602653 0.856696 0.280217
H98   H     H_    0.181582 0.647445 0.862515 0.262488
H99   H     H_    0.125455 0.654557 0.880853 0.263417
H100  H     H_    0.031717 0.379128 0.100702 0.158188
H101  H     H_    0.955937 0.555432 0.221063 0.159932
H102  H     H_    0.985842 0.400994 0.130070 0.131070
H103  H     H_    0.068750 0.362875 0.176265 0.239753
H104  H     H_    0.016159 0.375539 0.200873 0.213904
H105  H     H_    0.980211 0.317283 0.154679 0.266211
H106  H     H_    0.023498 0.295460 0.189242 0.269566
H107  H     H_    0.033457 0.303617 0.131168 0.260547
H108  H     H_    0.901877 0.390198 0.944472 0.172596
H109  H     H_    0.879911 0.441661 0.926403 0.144365
H110  H     H_    0.824317 0.357601 0.944572 0.237009
H111  H     H_    0.804918 0.408280 0.920125 0.214415
H112  H     H_    0.570624 0.994730 0.222035 0.163224
H113  H     H_    0.222036 0.570614 0.994540 0.163288
H114  H     H_    0.857227 0.397378 0.856680 0.280231
H115  H     H_    0.818433 0.352584 0.862488 0.262479
H116  H     H_    0.874558 0.345468 0.880829 0.263415
H117  H     H_    0.968318 0.379124 0.899297 0.158198
H118  H     H_    0.014187 0.401006 0.869930 0.131076
H119  H     H_    0.931292 0.362861 0.823734 0.239747
H120  H     H_    0.983878 0.375546 0.799126 0.213922
H121  H     H_    0.019847 0.317300 0.845319 0.266213
H122  H     H_    0.976567 0.295463 0.810756 0.269567
H123  H     H_    0.966606 0.303613 0.868831 0.260547
H124  H     H_    0.044063 0.444558 0.221061 0.159931
H125  H     H_    0.098130 0.390186 0.055508 0.172569
H126  H     H_    0.120101 0.441643 0.073587 0.144387
H127  H     H_    0.175685 0.357584 0.055392 0.237009
H128  H     H_    0.195093 0.408255 0.079845 0.214420
H129  H     H_    0.142798 0.397343 0.143297 0.280219
H130  H     H_    0.181582 0.352545 0.137473 0.262489
H131  H     H_    0.125453 0.345443 0.119141 0.263418
H132  H     H_    0.120630 0.600685 0.467566 0.158068
H133  H     H_    0.099114 0.630182 0.513518 0.131055
H134  H     H_    0.136656 0.676154 0.430224 0.239934
H135  H     H_    0.777964 0.429386 0.994527 0.163291
H136  H     H_    0.124398 0.700892 0.482847 0.213789
H137  H     H_    0.182890 0.654737 0.518468 0.266234
H138  H     H_    0.204414 0.689185 0.474939 0.269601
H139  H     H_    0.196142 0.631092 0.465178 0.260397
H140  H     H_    0.110281 0.445621 0.598131 0.171534
H141  H     H_    0.059231 0.426911 0.620520 0.144923
H142  H     H_    0.143505 0.446444 0.675324 0.236967
H143  H     H_    0.093271 0.421602 0.695366 0.214610
H144  H     H_    0.104315 0.357883 0.643536 0.279593
H145  H     H_    0.149535 0.364504 0.681693 0.262890
H146  H     H_    0.955951 0.444557 0.778941 0.159913
H147  H     H_    0.155729 0.382443 0.625327 0.263573
H148  H     H_    0.120592 0.399379 0.532502 0.158092
H149  H     H_    0.099160 0.369800 0.486563 0.130943
H150  H     H_    0.136645 0.323972 0.569959 0.239984
H151  H     H_    0.124479 0.299156 0.517352 0.213748
H152  H     H_    0.182971 0.345329 0.481748 0.266232
H153  H     H_    0.204474 0.310956 0.525347 0.269618
H154  H     H_    0.196131 0.369052 0.535026 0.260363
H155  H     H_    0.110194 0.554629 0.401857 0.171686
H156  H     H_    0.059045 0.573198 0.379579 0.144897
H157  H     H_    0.222037 0.429389 0.005455 0.163286
H158  H     H_    0.143260 0.553969 0.324577 0.236970
H159  H     H_    0.092921 0.578720 0.304688 0.214576
H160  H     H_    0.103936 0.642383 0.356609 0.279741
H161  H     H_    0.149062 0.635941 0.318308 0.262808
H162  H     H_    0.155464 0.617920 0.374624 0.263547
H163  H     H_    0.879364 0.399308 0.467588 0.158067
H164  H     H_    0.900896 0.369817 0.513538 0.131063
H165  H     H_    0.863334 0.323837 0.430261 0.239930
H166  H     H_    0.875614 0.299101 0.482881 0.213793
H167  H     H_    0.817128 0.345248 0.518521 0.266233
H168  H     H_    0.055127 0.721063 0.455579 0.159929
H169  H     H_    0.795593 0.310797 0.475001 0.269602
H170  H     H_    0.803854 0.368891 0.465234 0.260398
H171  H     H_    0.889788 0.554303 0.598027 0.171588
H172  H     H_    0.940689 0.573110 0.620670 0.144756
H173  H     H_    0.856194 0.553316 0.675040 0.236975
H174  H     H_    0.906282 0.578209 0.695376 0.214599
H175  H     H_    0.895388 0.642007 0.643620 0.279469
H176  H     H_    0.849966 0.635224 0.681509 0.262915
H177  H     H_    0.844126 0.617385 0.625074 0.263614
H178  H     H_    0.879393 0.600650 0.532541 0.158058
H179  H     H_    0.070657 0.495339 0.722037 0.163052
H180  H     H_    0.900839 0.630192 0.486585 0.130936
H181  H     H_    0.863416 0.676106 0.569960 0.240030
H182  H     H_    0.875552 0.700860 0.517314 0.213732
H183  H     H_    0.817013 0.654665 0.481810 0.266228
H184  H     H_    0.795562 0.689114 0.525373 0.269629
H185  H     H_    0.803876 0.631027 0.535133 0.260341
H186  H     H_    0.889812 0.445364 0.401871 0.171698
H187  H     H_    0.940961 0.426796 0.379593 0.144898
H188  H     H_    0.856743 0.446012 0.324592 0.236969
H189  H     H_    0.907083 0.421263 0.304704 0.214576
H190  H     H_    0.055167 0.278953 0.544434 0.159907
H191  H     H_    0.896075 0.357605 0.356637 0.279755
H192  H     H_    0.850948 0.364038 0.318337 0.262802
H193  H     H_    0.844545 0.382066 0.374650 0.263542
H194  H     H_    0.600696 0.532112 0.879257 0.158116
H195  H     H_    0.630130 0.486194 0.900938 0.131046
H196  H     H_    0.676212 0.569308 0.863129 0.239850
H197  H     H_    0.700888 0.516698 0.875581 0.213805
H198  H     H_    0.654718 0.480923 0.817198 0.266218
H199  H     H_    0.689222 0.524340 0.795535 0.269562
H200  H     H_    0.631137 0.534194 0.803749 0.260478
H201  H     H_    0.070656 0.504841 0.277963 0.163101
H202  H     H_    0.444966 0.401865 0.889984 0.172088
H203  H     H_    0.426621 0.379728 0.941275 0.144678
H204  H     H_    0.445375 0.324457 0.857133 0.236987
H205  H     H_    0.420759 0.304788 0.907625 0.214508
H206  H     H_    0.357193 0.356884 0.896658 0.279972
H207  H     H_    0.363351 0.318359 0.851684 0.262661
H208  H     H_    0.381517 0.374591 0.844958 0.263485
H209  H     H_    0.399305 0.467893 0.879259 0.158117
H210  H     H_    0.369871 0.513810 0.900940 0.131047
H211  H     H_    0.323790 0.430697 0.863132 0.239851
H212  H     H_    0.944877 0.278936 0.455580 0.159933
H213  H     H_    0.299113 0.483306 0.875584 0.213807
H214  H     H_    0.345283 0.519085 0.817201 0.266218
H215  H     H_    0.310780 0.475669 0.795538 0.269566
H216  H     H_    0.368866 0.465815 0.803751 0.260478
H217  H     H_    0.555032 0.598136 0.889980 0.172086
H218  H     H_    0.573379 0.620274 0.941268 0.144680
H219  H     H_    0.554621 0.675543 0.857124 0.236986
H220  H     H_    0.579238 0.695213 0.907613 0.214508
H221  H     H_    0.642805 0.643118 0.896646 0.279971
H222  H     H_    0.636645 0.681642 0.851670 0.262661
H223  H     H_    0.555344 0.778935 0.044175 0.159939
H224  H     H_    0.929320 0.504679 0.722031 0.162983
H225  H     H_    0.618479 0.625409 0.844949 0.263485
H226  H     H_    0.399299 0.532106 0.120743 0.158117
H227  H     H_    0.369868 0.486188 0.099058 0.131049
H228  H     H_    0.323782 0.569297 0.136868 0.239850
H229  H     H_    0.299108 0.516688 0.124412 0.213809
H230  H     H_    0.345274 0.480909 0.182796 0.266218
H231  H     H_    0.310768 0.524323 0.204459 0.269569
H232  H     H_    0.368854 0.534179 0.196250 0.260477
H233  H     H_    0.555033 0.401867 0.110017 0.172086
H234  H     H_    0.573379 0.379731 0.058728 0.144683
H235  H     H_    0.944853 0.721046 0.544455 0.159912
H236  H     H_    0.554627 0.324459 0.142873 0.236985
H237  H     H_    0.579242 0.304791 0.092382 0.214509
H238  H     H_    0.642808 0.356889 0.103345 0.279976
H239  H     H_    0.636651 0.318365 0.148321 0.262659
H240  H     H_    0.618484 0.374596 0.155043 0.263485
H241  H     H_    0.600701 0.467889 0.120742 0.158116
H242  H     H_    0.630131 0.513808 0.099056 0.131051
H243  H     H_    0.676219 0.430698 0.136865 0.239851
H244  H     H_    0.700892 0.483307 0.124408 0.213809
H245  H     H_    0.654726 0.519084 0.182793 0.266218
H246  H     H_    0.929344 0.495146 0.277966 0.163104
H247  H     H_    0.689233 0.475670 0.204455 0.269569
H248  H     H_    0.631147 0.465813 0.196248 0.260477
H249  H     H_    0.444964 0.598132 0.110016 0.172088
H250  H     H_    0.426620 0.620268 0.058725 0.144681
H251  H     H_    0.445369 0.675540 0.142868 0.236987
H252  H     H_    0.420755 0.695208 0.092376 0.214509
H253  H     H_    0.357190 0.643109 0.103341 0.279975
H254  H     H_    0.363344 0.681634 0.148315 0.262660
H255  H     H_    0.381512 0.625402 0.155041 0.263485
H256  H     H_    0.532123 0.120735 0.399307 0.158119
H257  H     H_    0.721068 0.544275 0.944730 0.159957
H258  H     H_    0.486204 0.099067 0.369866 0.131054
H259  H     H_    0.569332 0.136866 0.323801 0.239856
H260  H     H_    0.516724 0.124427 0.299117 0.213830
H261  H     H_    0.480952 0.182813 0.345286 0.266222
H262  H     H_    0.524378 0.204473 0.310792 0.269582
H263  H     H_    0.534222 0.196250 0.368876 0.260465
H264  H     H_    0.401870 0.110058 0.554933 0.172013
H265  H     H_    0.379699 0.058800 0.573333 0.144695
H266  H     H_    0.324493 0.142965 0.554473 0.236983
H267  H     H_    0.304772 0.092508 0.579121 0.214516
H268  H     H_    0.494876 0.277964 0.929368 0.163187
H269  H     H_    0.356837 0.103484 0.642703 0.279921
H270  H     H_    0.318362 0.148495 0.636484 0.262690
H271  H     H_    0.374612 0.155145 0.618344 0.263497
H272  H     H_    0.467864 0.120726 0.600673 0.158127
H273  H     H_    0.513779 0.099076 0.630134 0.131026
H274  H     H_    0.430629 0.136863 0.676165 0.239870
H275  H     H_    0.483233 0.124446 0.700867 0.213819
H276  H     H_    0.519001 0.182831 0.654690 0.266222
H277  H     H_    0.475560 0.204486 0.689166 0.269586
H278  H     H_    0.465734 0.196246 0.631082 0.260457
H279  H     H_    0.278933 0.455726 0.944734 0.159956
H280  H     H_    0.598136 0.110033 0.444997 0.172056
H281  H     H_    0.620282 0.058751 0.426638 0.144680
H282  H     H_    0.675535 0.142902 0.445422 0.236983
H283  H     H_    0.695220 0.092420 0.420800 0.214504
H284  H     H_    0.643136 0.103387 0.357228 0.279954
H285  H     H_    0.681646 0.148374 0.363403 0.262669
H286  H     H_    0.625408 0.155077 0.381558 0.263490
H287  H     H_    0.532109 0.879259 0.600695 0.158119
H288  H     H_    0.486191 0.900937 0.630131 0.131059
H289  H     H_    0.569308 0.863127 0.676205 0.239854
H290  H     H_    0.505125 0.722037 0.929362 0.163185
H291  H     H_    0.516700 0.875576 0.700885 0.213832
H292  H     H_    0.480921 0.817194 0.654717 0.266223
H293  H     H_    0.524340 0.795529 0.689215 0.269581
H294  H     H_    0.534191 0.803746 0.631131 0.260467
H295  H     H_    0.401888 0.889954 0.445089 0.172024
H296  H     H_    0.379655 0.941176 0.426667 0.144657
H297  H     H_    0.324550 0.856961 0.445603 0.236987
H298  H     H_    0.304760 0.907382 0.420939 0.214511
H299  H     H_    0.356800 0.896434 0.357333 0.279881
H300  H     H_    0.318387 0.851377 0.363600 0.262701
H301  H     H_    0.278931 0.544276 0.055263 0.159957
H302  H     H_    0.374656 0.844810 0.381710 0.263508
H303  H     H_    0.467850 0.879276 0.399323 0.158120
H304  H     H_    0.513766 0.900922 0.369860 0.131017
H305  H     H_    0.430607 0.863152 0.323831 0.239881
H306  H     H_    0.483216 0.875559 0.299129 0.213815
H307  H     H_    0.518968 0.817163 0.345304 0.266223
H308  H     H_    0.475523 0.795520 0.310825 0.269589
H309  H     H_    0.465696 0.803759 0.368910 0.260451
H310  H     H_    0.598128 0.889969 0.555008 0.172064
H311  H     H_    0.620271 0.941252 0.573367 0.144683
H312  H     H_    0.505128 0.277963 0.070638 0.163186
H313  H     H_    0.675528 0.857102 0.554594 0.236984
H314  H     H_    0.695208 0.907586 0.579215 0.214505
H315  H     H_    0.643115 0.896620 0.642782 0.279964
H316  H     H_    0.681627 0.851635 0.636614 0.262665
H317  H     H_    0.625392 0.844929 0.618452 0.263488
H318  H     H_    0.721068 0.455720 0.055259 0.159958
H319  H     H_    0.570628 0.005272 0.777964 0.163223
H320  H     H_    0.494872 0.722036 0.070633 0.163188
H321  H     H_    0.544271 0.055266 0.278936 0.159936
H322  H     H_    0.277963 0.070639 0.505055 0.163172
H323  H     H_    0.455728 0.055275 0.721058 0.159931
H324  H     H_    0.722038 0.070639 0.494903 0.163183
H325  H     H_    0.544268 0.944731 0.721063 0.159938
H326  H     H_    0.277964 0.929355 0.494954 0.163154
H327  H     H_    0.455718 0.944732 0.278944 0.159930
H328  H     H_    0.722036 0.929362 0.505110 0.163186
H329  H     H_    0.620798 0.100694 0.968060 0.158149
H330  H     H_    0.444656 0.778938 0.955819 0.159939
H331  H     H_    0.599040 0.130103 0.013958 0.131057
H332  H     H_    0.636983 0.176230 0.930931 0.239814
H333  H     H_    0.624443 0.200878 0.983530 0.213858
H334  H     H_    0.682771 0.154694 0.019379 0.266217
H335  H     H_    0.704504 0.189221 0.976016 0.269578
H336  H     H_    0.696310 0.131140 0.966121 0.260503
H337  H     H_    0.609932 0.944771 0.098132 0.172290
H338  H     H_    0.558574 0.926532 0.120201 0.144551
H339  H     H_    0.642685 0.945055 0.175598 0.236998
H340  H     H_    0.592120 0.920503 0.195159 0.214477
H341  H     H_    0.429370 0.005262 0.222034 0.163225
H342  H     H_    0.603063 0.856987 0.142978 0.280072
H343  H     H_    0.647966 0.863005 0.181609 0.262592
H344  H     H_    0.654846 0.881245 0.125421 0.263459
H345  H     H_    0.620796 0.899306 0.031939 0.158151
H346  H     H_    0.599039 0.869898 0.986041 0.131058
H347  H     H_    0.636981 0.823770 0.069067 0.239813
H348  H     H_    0.624442 0.799122 0.016468 0.213858
H349  H     H_    0.682770 0.845307 0.980618 0.266217
H350  H     H_    0.704502 0.810780 0.023980 0.269577
H351  H     H_    0.696309 0.868861 0.033877 0.260503
H352  H     H_    0.444657 0.221062 0.044181 0.159939
H353  H     H_    0.609932 0.055228 0.901869 0.172292
H354  H     H_    0.558578 0.073469 0.879795 0.144546
H355  H     H_    0.642695 0.054940 0.824407 0.236999
H356  H     H_    0.592134 0.079493 0.804839 0.214476
H357  H     H_    0.603074 0.143011 0.857018 0.280068
H358  H     H_    0.647982 0.136988 0.818393 0.262593
H359  H     H_    0.654853 0.118751 0.874582 0.263459
H360  H     H_    0.379202 0.899306 0.968063 0.158149
H361  H     H_    0.400962 0.869895 0.013960 0.131057
H362  H     H_    0.363018 0.823772 0.930934 0.239812
H363  H     H_    0.429373 0.994739 0.777966 0.163228
H364  H     H_    0.375560 0.799120 0.983533 0.213858
H365  H     H_    0.317232 0.845300 0.019385 0.266217
H366  H     H_    0.295499 0.810775 0.976023 0.269578
H367  H     H_    0.303690 0.868857 0.966128 0.260504
H368  H     H_    0.390068 0.055225 0.098129 0.172295
H369  H     H_    0.441422 0.073464 0.120204 0.144550
H370  H     H_    0.357304 0.054933 0.175590 0.237001
H371  H     H_    0.407865 0.079486 0.195159 0.214477
H372  H     H_    0.396926 0.143006 0.142979 0.280069
H373  H     H_    0.352017 0.136981 0.181604 0.262593
H374  H     H_    0.221070 0.044092 0.444591 0.159951
H375  H     H_    0.345147 0.118746 0.125415 0.263458
H376  H     H_    0.379202 0.100694 0.031939 0.158149
H377  H     H_    0.400963 0.130104 0.986041 0.131058
H378  H     H_    0.363019 0.176229 0.069066 0.239813
H379  H     H_    0.375562 0.200879 0.016467 0.213858
H380  H     H_    0.317234 0.154698 0.980616 0.266217
H381  H     H_    0.295500 0.189225 0.023978 0.269577
H382  H     H_    0.303691 0.131143 0.033875 0.260503
H383  H     H_    0.390069 0.944770 0.901869 0.172297
H384  H     H_    0.441426 0.926534 0.879797 0.144550
O1    O     O_R   0.463050 0.000010 0.934540 -0.594163
O2    O     O_R   0.065460 0.999990 0.536950 -0.624907
O3    O     O_R   0.999990 0.934540 0.536950 -0.594108
O4    O     O_R   0.934540 0.000010 0.536950 -0.624907
O5    O     O_R   0.999990 0.065460 0.463050 -0.594107
O6    O     O_R   0.934540 0.999990 0.463050 -0.624915
O7    O     O_R   0.000010 0.934540 0.463050 -0.594112
O8    O     O_R   0.065460 0.000010 0.463050 -0.624913
O9    O     O_R   0.065460 0.463050 0.999990 -0.594111
O10   O     O_R   0.999990 0.463050 0.934540 -0.624900
O11   O     O_R   0.934540 0.463050 0.000010 -0.594107
O12   O     O_R   0.463050 0.065460 0.000010 -0.624971
O13   O     O_R   0.000010 0.463050 0.065460 -0.624905
O14   O     O_R   0.065460 0.536950 0.000010 -0.594109
O15   O     O_R   0.999990 0.536950 0.065460 -0.624904
O16   O     O_R   0.934540 0.536950 0.999990 -0.594109
O17   O     O_R   0.000010 0.536950 0.934540 -0.624899
O18   O     O_R   0.963050 0.500010 0.434540 -0.594286
O19   O     O_R   0.963050 0.565460 0.500010 -0.625152
O20   O     O_R   0.963050 0.499990 0.565460 -0.594358
O21   O     O_R   0.963050 0.434540 0.499990 -0.625109
O22   O     O_R   0.036950 0.499990 0.434540 -0.594286
O23   O     O_R   0.463050 0.999990 0.065460 -0.594165
O24   O     O_R   0.036950 0.434540 0.500010 -0.625154
O25   O     O_R   0.036950 0.500010 0.565460 -0.594364
O26   O     O_R   0.036950 0.565460 0.499990 -0.625112
O27   O     O_R   0.500010 0.565460 0.036950 -0.594196
O28   O     O_R   0.565460 0.499990 0.036950 -0.625015
O29   O     O_R   0.499990 0.434540 0.036950 -0.594198
O30   O     O_R   0.434540 0.500010 0.036950 -0.625014
O31   O     O_R   0.499990 0.565460 0.963050 -0.594197
O32   O     O_R   0.434540 0.499990 0.963050 -0.625013
O33   O     O_R   0.500010 0.434540 0.963050 -0.594195
O34   O     O_R   0.463050 0.934540 0.999990 -0.624969
O35   O     O_R   0.565460 0.500010 0.963050 -0.625014
O36   O     O_R   0.565460 0.963050 0.499990 -0.594211
O37   O     O_R   0.499990 0.963050 0.434540 -0.625035
O38   O     O_R   0.434540 0.963050 0.500010 -0.594228
O39   O     O_R   0.500010 0.963050 0.565460 -0.625023
O40   O     O_R   0.565460 0.036950 0.500010 -0.594211
O41   O     O_R   0.499990 0.036950 0.565460 -0.625036
O42   O     O_R   0.434540 0.036950 0.499990 -0.594234
O43   O     O_R   0.500010 0.036950 0.434540 -0.625025
O44   O     O_3   0.565172 0.135459 0.952762 -0.658274
O45   O     O_R   0.536950 0.999990 0.934540 -0.594166
O46   O     O_3   0.580437 0.990841 0.137339 -0.630589
O47   O     O_3   0.565170 0.864541 0.047238 -0.658277
O48   O     O_3   0.580439 0.009158 0.862661 -0.630589
O49   O     O_3   0.434829 0.864544 0.952762 -0.658277
O50   O     O_3   0.419560 0.009153 0.137338 -0.630589
O51   O     O_3   0.434829 0.135456 0.047239 -0.658276
O52   O     O_3   0.419562 0.990844 0.862662 -0.630588
O53   O     O_3   0.135468 0.047129 0.434748 -0.658363
O54   O     O_3   0.990649 0.862662 0.419590 -0.630646
O55   O     O_3   0.864533 0.952859 0.434759 -0.658354
O56   O     O_R   0.536950 0.934540 0.000010 -0.624972
O57   O     O_3   0.009367 0.137337 0.419587 -0.630649
O58   O     O_3   0.864536 0.047144 0.565242 -0.658356
O59   O     O_3   0.009339 0.862664 0.580417 -0.630643
O60   O     O_3   0.135462 0.952859 0.565246 -0.658347
O61   O     O_3   0.990654 0.137337 0.580412 -0.630644
O62   O     O_3   0.047091 0.565285 0.864539 -0.658356
O63   O     O_3   0.862663 0.580411 0.009381 -0.630659
O64   O     O_3   0.952891 0.565266 0.135465 -0.658364
O65   O     O_3   0.137336 0.580414 0.990619 -0.630657
O66   O     O_3   0.047109 0.434729 0.135463 -0.658362
O67   O     O_R   0.536950 0.000010 0.065460 -0.594166
O68   O     O_3   0.862665 0.419588 0.990607 -0.630661
O69   O     O_3   0.952909 0.434721 0.864536 -0.658366
O70   O     O_3   0.137336 0.419587 0.009375 -0.630657
O71   O     O_3   0.064946 0.635449 0.452477 -0.658105
O72   O     O_3   0.080507 0.491508 0.637347 -0.630392
O73   O     O_3   0.064928 0.364577 0.547575 -0.657979
O74   O     O_3   0.080492 0.508686 0.362656 -0.630434
O75   O     O_3   0.935048 0.364550 0.452488 -0.658108
O76   O     O_3   0.919479 0.508438 0.637332 -0.630382
O77   O     O_3   0.935082 0.635422 0.547587 -0.657895
O78   O     O_R   0.536950 0.065460 0.999990 -0.624970
O79   O     O_3   0.919509 0.491304 0.362659 -0.630437
O80   O     O_3   0.635455 0.547341 0.934904 -0.658224
O81   O     O_3   0.490996 0.362661 0.919547 -0.630539
O82   O     O_3   0.364545 0.452662 0.934906 -0.658224
O83   O     O_3   0.509002 0.637340 0.919544 -0.630539
O84   O     O_3   0.364543 0.547338 0.065095 -0.658226
O85   O     O_3   0.509004 0.362660 0.080456 -0.630540
O86   O     O_3   0.635456 0.452659 0.065093 -0.658227
O87   O     O_3   0.490994 0.637339 0.080453 -0.630538
O88   O     O_3   0.547346 0.065089 0.364544 -0.658213
O89   O     O_R   0.000010 0.065460 0.536950 -0.594103
O90   O     O_3   0.362660 0.080464 0.508928 -0.630519
O91   O     O_3   0.452643 0.065084 0.635448 -0.658181
O92   O     O_3   0.637340 0.080460 0.491021 -0.630532
O93   O     O_3   0.547338 0.934905 0.635456 -0.658217
O94   O     O_3   0.362663 0.919532 0.491093 -0.630517
O95   O     O_3   0.452634 0.934922 0.364554 -0.658157
O96   O     O_3   0.637338 0.919541 0.508987 -0.630533
Zn1   Zn    Zn3+2 0.450650 0.000000 0.000000 0.949917
Zn2   Zn    Zn3+2 0.500000 0.500000 0.950650 0.949889
Zn3   Zn    Zn3+2 0.500000 0.950650 0.500000 0.949868
Zn4   Zn    Zn3+2 0.500000 0.049350 0.500000 0.949870
Zn5   Zn    Zn3+2 0.549350 0.000000 0.000000 0.949911
Zn6   Zn    Zn3+2 0.000000 1.000000 0.549350 0.949969
Zn7   Zn    Zn3+2 0.000000 0.000000 0.450650 0.949949
Zn8   Zn    Zn3+2 1.000000 0.450650 0.000000 0.949954
Zn9   Zn    Zn3+2 1.000000 0.549350 0.000000 0.949952
Zn10  Zn    Zn3+2 0.950650 0.500000 0.500000 0.949775
Zn11  Zn    Zn3+2 0.049350 0.500000 0.500000 0.949795
Zn12  Zn    Zn3+2 0.500000 0.500000 0.049350 0.949890

loop_
_geom_bond_atom_site_label_1
_geom_bond_atom_site_label_2
_ccdc_geom_bond_type
C286  O47   S    
C226  H287  S    
C126  C127  S    
C37   C306  A    
C215  O90   S    
C294  O54   S    
C139  H85   S    
C48   C135  S    
C293  O53   S    
C121  H43   S    
C17   C48   A    
C114  C115  S    
C14   O85   S    
C239  H363  S    
C203  H237  S    
C271  H301  S    
C218  O91   S    
C116  H31   S    
C152  H117  S    
C232  O95   S    
C164  H147  S    
C202  O85   S    
C110  H21   S    
C129  H62   S    
C69   C265  A    
C23   C282  A    
C194  H216  S    
C4    C41   A    
C84   H344  S    
C231  H299  S    
C143  C144  S    
C230  H298  S    
C108  C109  S    
C62   C70   S    
C302  O9    A    
C7    C42   A    
C35   C42   S    
C182  C183  S    
C291  O4    A    
C91   H358  S    
C251  H101  S    
C11   C47   A    
C19   O91   S    
C239  C292  A    
C140  H88   S    
C24   O15   A    
C205  H242  S    
C3    C261  A    
C242  H13   S    
O16   Zn9   S    
C111  H25   S    
C7    O79   S    
C220  H277  S    
C237  H313  S    
C292  O52   S    
C10   O82   S    
C34   C308  A    
C67   C260  A    
O28   Zn12  S    
C297  O58   S    
C167  H152  S    
C2    C34   S    
C253  H124  S    
C79   O31   A    
C174  H170  S    
C160  H134  S    
C199  C200  S    
C106  H10   S    
C70   C273  A    
C122  H47   S    
C30   C269  S    
C228  H293  S    
C17   O88   S    
C176  H173  S    
O8    Zn7   S    
C26   C290  A    
C280  O7    A    
C192  H209  S    
C78   O44   S    
C38   C302  S    
C220  H278  S    
C138  H83   S    
C161  H137  S    
C85   H346  S    
C241  C294  A    
C23   O95   S    
C206  C207  S    
C69   C261  A    
C166  H150  S    
C187  H200  S    
C178  O77   S    
C289  O50   S    
C164  H144  S    
C37   C304  A    
C28   C247  S    
C94   H367  S    
C65   C257  A    
C78   H331  S    
C12   O84   S    
C229  C230  S    
C307  O68   S    
C175  C176  S    
C44   C101  S    
C215  H265  S    
C147  H103  S    
C284  O44   S    
C177  H176  S    
C1    C29   S    
O31   Zn2   S    
C38   C305  A    
C192  O82   S    
C172  O75   S    
C90   O35   A    
C269  O8    A    
C234  H308  S    
C22   C49   A    
C201  H319  S    
C126  H55   S    
C16   C274  A    
C262  H212  S    
C254  H135  S    
C11   C270  A    
C302  O14   A    
C65   C264  A    
C121  H45   S    
C87   H349  S    
C66   C263  A    
C100  H380  S    
O13   Zn8   S    
C175  H171  S    
C161  H139  S    
C204  H239  S    
C183  H189  S    
C32   C295  A    
C130  H64   S    
C270  H290  S    
C60   C243  A    
C159  O71   S    
C141  H92   S    
C236  O96   S    
C145  H100  S    
C27   C223  S    
C120  H41   S    
C56   C240  A    
C58   C245  A    
C206  H243  S    
C196  C197  S    
C234  H309  S    
C86   H348  S    
C114  H27   S    
C139  C140  S    
C194  H214  S    
C20   C51   A    
C3    O74   S    
C186  H196  S    
C296  O57   S    
C196  H220  S    
C188  O81   S    
C225  H286  S    
C305  O65   S    
C88   H353  S    
C229  H295  S    
C156  C158  S    
C130  C131  S    
C243  C296  A    
C104  H6    S    
C117  H34   S    
C159  H132  S    
C243  H24   S    
C9    O81   S    
C185  O80   S    
C138  H82   S    
C240  C293  A    
C182  H186  S    
C143  H95   S    
C49   C146  S    
O36   Zn3   S    
C80   H333  S    
C195  C196  S    
C193  H211  S    
C101  O33   A    
C62   C250  A    
C125  H53   S    
C88   C89   S    
C160  H136  S    
C186  H197  S    
C4    C262  A    
C98   C99   S    
C106  C107  S    
C155  C156  S    
C5    C263  A    
C134  H75   S    
C232  H303  S    
C6    C264  A    
O67   Zn5   S    
C186  C187  S    
C123  H49   S    
C169  H156  S    
C219  H275  S    
C252  H113  S    
C18   C49   A    
C18   O90   S    
C264  H235  S    
C277  H323  S    
C124  O36   A    
C13   O16   A    
C95   C96   S    
C74   C275  A    
C147  C148  S    
C12   C271  A    
O7    Zn7   S    
C256  H157  S    
C287  O48   S    
C195  H218  S    
C149  C150  S    
C81   H334  S    
C125  H52   S    
C85   C86   S    
C267  H268  S    
C187  H198  S    
C99   H379  S    
C9    C267  A    
C252  C305  A    
C171  H161  S    
C127  H58   S    
C10   C268  A    
C273  H318  S    
C221  O92   S    
O19   Zn10  S    
C197  H222  S    
C212  H330  S    
C143  H96   S    
C78   H329  S    
C20   C278  A    
C291  O6    A    
C21   C279  A    
C152  O69   S    
C184  H191  S    
C78   C80   S    
O30   Zn12  S    
C183  H188  S    
C235  H352  S    
C55   C201  A    
O14   Zn9   S    
C245  H46   S    
C72   C268  A    
C103  H3    S    
C236  C237  S    
C272  H312  S    
O41   Zn4   S    
C189  C191  S    
C112  O12   A    
C269  O2    A    
C68   O21   A    
C64   C252  A    
C148  H107  S    
C233  H305  S    
C207  H248  S    
C15   O86   S    
C63   C69   S    
C115  H30   S    
C101  O29   A    
C96   H371  S    
C108  H16   S    
C236  H311  S    
C170  H158  S    
C95   O50   S    
C25   C283  A    
C195  O83   S    
C233  C234  S    
C201  C287  A    
C91   H359  S    
C246  H57   S    
C175  O76   S    
C191  H208  S    
C142  H94   S    
C28   C286  A    
C82   O46   S    
O45   Zn5   S    
C304  O64   S    
C56   C75   S    
C237  C238  S    
C260  C312  A    
C145  H102  S    
C2    O17   A    
C180  H181  S    
C46   O19   A    
C25   O96   S    
C150  H111  S    
C53   C179  A    
C16   C47   A    
C261  H201  S    
C83   H340  S    
C17   C275  A    
C70   C266  A    
C18   C276  A    
C128  H60   S    
C249  C301  A    
C97   H373  S    
C98   O51   S    
C238  H316  S    
C228  H292  S    
C162  O72   S    
C162  H140  S    
C202  H234  S    
O29   Zn12  S    
C206  H244  S    
C208  C209  S    
C89   H356  S    
C222  C225  S    
C136  H77   S    
C221  H280  S    
C210  H255  S    
C179  C285  A    
C59   C244  A    
C2    O10   A    
O32   Zn2   S    
C77   C278  A    
C247  O34   A    
C147  H104  S    
C257  C310  A    
C20   O92   S    
C221  C222  S    
C31   C280  S    
C1    O45   A    
O23   Zn1   S    
C193  H213  S    
C310  O71   S    
C159  H133  S    
C58   C65   S    
C83   C84   S    
C162  H141  S    
C258  O5    A    
C73   C274  A    
C260  H190  S    
C158  H131  S    
C10   C45   A    
C295  O55   S    
C209  C210  S    
O4    Zn6   S    
C155  H126  S    
C118  H37   S    
C217  H270  S    
C153  H120  S    
C115  H29   S    
C200  H231  S    
C280  O3    A    
C88   O48   S    
C222  H282  S    
C250  H90   S    
C126  O60   S    
C211  O88   S    
C139  H86   S    
C133  H72   S    
C137  H80   S    
C109  H19   S    
C120  C121  S    
C81   H336  S    
C157  O39   A    
C129  C130  S    
C144  H97   S    
C226  H288  S    
C116  O57   S    
C176  C177  S    
C214  H261  S    
C54   C190  A    
C185  H194  S    
C198  H226  S    
C104  H7    S    
C163  H142  S    
C108  O54   S    
O38   Zn3   S    
C204  H238  S    
C122  O59   S    
C168  H1    S    
C1    O1    A    
C119  H39   S    
C99   C100  S    
C141  H89   S    
C116  H32   S    
C152  H118  S    
O5    Zn7   S    
C135  O43   A    
C15   C43   A    
O22   Zn11  S    
C110  H22   S    
C225  H285  S    
C117  C118  S    
C223  O23   A    
C216  H267  S    
C93   H362  S    
C231  H302  S    
C128  H61   S    
C156  H127  S    
C102  C103  S    
C199  H229  S    
C91   H357  S    
C127  H56   S    
C191  H206  S    
C28   C288  A    
O78   Zn5   S    
C152  C153  S    
C30   C293  A    
O35   Zn2   S    
C205  H241  S    
C226  C227  S    
C11   O83   S    
C150  C151  S    
C248  C300  A    
C177  H177  S    
O1    Zn1   S    
C151  H116  S    
C150  H110  S    
C92   H361  S    
C213  H259  S    
C63   C251  A    
C3    C42   A    
C106  H11   S    
C97   H375  S    
C213  H260  S    
C122  H48   S    
O20   Zn10  S    
C53   C74   S    
C85   O47   S    
C8    C43   A    
C228  H294  S    
C281  H326  S    
C176  H174  S    
O43   Zn4   S    
C67   C262  A    
C189  H205  S    
C192  H210  S    
C213  C214  S    
C311  O72   S    
O34   Zn1   S    
C193  C194  S    
C210  H253  S    
C93   C94   S    
C138  H84   S    
C76   C277  A    
C36   C303  A    
C59   C242  A    
C237  H314  S    
C181  H184  S    
C92   C93   S    
C85   H345  S    
C82   H337  S    
C73   C270  A    
O3    Zn6   S    
C14   C272  A    
C185  H195  S    
C123  C125  S    
C166  H151  S    
C187  H199  S    
C158  H129  S    
C274  H320  S    
C229  O94   S    
C283  H328  S    
C7    C265  A    
C45   C113  S    
C275  H321  S    
C189  H204  S    
C259  H179  S    
O33   Zn2   S    
C170  C171  S    
C124  O40   A    
C71   C272  A    
C177  H175  S    
C72   C271  A    
C190  C286  A    
C211  H258  S    
C278  H324  S    
O11   Zn8   S    
C132  H70   S    
C6    O77   S    
C148  H106  S    
C208  H249  S    
C144  H99   S    
C132  H71   S    
C29   C287  A    
C142  O65   S    
C87   H351  S    
C95   H368  S    
C258  O89   A    
C105  H9    S    
O89   Zn6   S    
C114  H26   S    
C121  H44   S    
C113  O30   A    
C199  H228  S    
C188  H203  S    
C83   H339  S    
C145  C147  S    
C161  H138  S    
C204  H240  S    
C41   C68   S    
O39   Zn3   S    
C282  H327  S    
C135  O37   A    
C43   C90   S    
C141  H91   S    
C120  H42   S    
C145  O66   S    
C242  C295  A    
C99   H378  S    
C8    C266  A    
O12   Zn1   S    
C202  C203  S    
C219  C220  S    
C34   C301  A    
C86   C87   S    
C136  C137  S    
C194  H215  S    
C84   H343  S    
C231  H300  S    
C205  C206  S    
C165  H149  S    
C230  H297  S    
C111  O55   S    
C32   C291  S    
C61   C249  A    
C215  H264  S    
C244  H35   S    
C88   H354  S    
C107  H14   S    
O27   Zn12  S    
O24   Zn11  S    
C117  H33   S    
C8    O80   S    
C31   C298  A    
C111  H23   S    
C27   C285  A    
C54   C73   S    
C35   O22   A    
C159  C160  S    
C140  H87   S    
O37   Zn3   S    
C208  O87   S    
C182  H187  S    
O10   Zn8   S    
C214  H263  S    
C167  H154  S    
C77   C283  A    
C98   H377  S    
C172  H163  S    
C105  H8    S    
C151  H114  S    
C255  C308  A    
C300  O61   S    
C110  H20   S    
C19   C277  A    
C165  H148  S    
C236  H310  S    
C285  O46   S    
C257  H168  S    
C129  H63   S    
C133  C134  S    
O2    Zn6   S    
C232  H304  S    
O26   Zn11  S    
C102  H383  S    
C127  C128  S    
C169  H155  S    
C268  H279  S    
C26   C112  S    
C298  O59   S    
C200  H230  S    
C180  C181  S    
C229  H296  S    
C14   C44   A    
C162  C163  S    
C6    C39   A    
C210  H254  S    
C205  O86   S    
C71   C267  A    
C40   C57   S    
O15   Zn9   S    
C76   C279  A    
C220  H276  S    
C195  H217  S    
C178  C180  S    
C119  C120  S    
C22   O94   S    
C125  H51   S    
C105  C106  S    
C93   H364  S    
C92   H360  S    
C102  H384  S    
C154  H122  S    
C98   H376  S    
C224  H341  S    
C163  H143  S    
C265  H246  S    
C52   C71   S    
C109  C110  S    
C192  C193  S    
C184  H192  S    
C19   C50   A    
C132  O62   S    
C185  C186  S    
O40   Zn4   S    
C29   C292  A    
C182  O79   S    
C232  C233  S    
C181  H185  S    
C211  H256  S    
C111  C114  S    
C21   C50   A    
C288  O49   S    
C230  C231  S    
C197  H225  S    
C33   C296  A    
C234  H307  S    
C126  H54   S    
C207  H247  S    
C149  H109  S    
C74   C282  A    
C82   C83   S    
C309  O70   S    
C5    C40   A    
C253  C306  A    
O18   Zn10  S    
C142  C143  S    
C170  H159  S    
C113  O32   A    
C175  H172  S    
C52   C235  A    
C112  O78   A    
C203  H236  S    
C191  H207  S    
C308  O69   S    
C131  H69   S    
C41   C312  A    
C102  O52   S    
C165  C166  S    
C80   H332  S    
C75   C276  A    
C169  C170  S    
C163  C164  S    
C180  H182  S    
C215  C216  S    
C40   C311  A    
C86   H347  S    
C94   H366  S    
C59   C77   S    
C133  H73   S    
C212  C288  A    
C149  H108  S    
C129  O61   S    
C173  C174  S    
C116  C117  S    
C53   C224  A    
C79   O27   A    
C97   H372  S    
C171  H160  S    
C246  C299  A    
C238  H317  S    
C107  H12   S    
C196  H219  S    
C221  H281  S    
C146  O38   A    
C155  O70   S    
C30   C299  A    
C89   H355  S    
C218  H272  S    
C173  H166  S    
C136  H78   S    
C250  C303  A    
C92   O49   S    
C27   C289  A    
C224  C289  A    
C134  H76   S    
C154  H123  S    
O21   Zn10  S    
C227  C228  S    
C103  C104  S    
C15   C273  A    
C33   C300  A    
C259  C311  A    
C61   C66   S    
C174  H167  S    
C227  H289  S    
C132  C133  S    
C301  O62   S    
C240  H374  S    
C131  H66   S    
C198  C199  S    
C299  O60   S    
C118  H38   S    
C149  O68   S    
C217  H269  S    
C153  H119  S    
C51   C124  S    
C209  H252  S    
C157  O41   A    
C218  H273  S    
C184  H193  S    
C47   C79   S    
C222  H283  S    
C178  H180  S    
O56   Zn5   S    
O25   Zn11  S    
C38   C309  A    
C139  O64   S    
C245  C298  A    
C303  O63   S    
C109  H18   S    
C244  C297  A    
C81   H335  S    
C50   C157  S    
C144  H98   S    
C57   O25   A    
C247  O56   A    
C214  H262  S    
C171  H162  S    
C164  H145  S    
C256  C309  A    
C198  H227  S    
C94   H365  S    
C248  H68   S    
C197  H221  S    
C216  C217  S    
C60   C67   S    
C13   C36   S    
C24   C37   S    
C66   C259  A    
C154  H121  S    
C188  H202  S    
C216  H266  S    
C168  C284  A    
C146  O42   A    
C46   O26   A    
C56   C246  A    
C87   H350  S    
C5    O76   S    
C179  H112  S    
C103  H4    S    
C136  O63   S    
C188  C189  S    
C226  O93   S    
C33   C258  S    
C58   C241  A    
C25   C51   A    
C183  C184  S    
C198  O84   S    
C225  H284  S    
C21   O93   S    
C95   H369  S    
C233  H306  S    
C207  H245  S    
C312  O73   S    
C84   H342  S    
C173  H165  S    
C96   C97   S    
C155  H125  S    
C251  C304  A    
C156  H128  S    
C254  C307  A    
C172  H164  S    
C151  H115  S    
C107  H15   S    
C100  H381  S    
C209  H251  S    
C279  H325  S    
C108  H17   S    
C36   C307  A    
C39   C46   S    
C55   C76   S    
C142  H93   S    
C115  H28   S    
C119  H40   S    
C211  C213  S    
C131  H67   S    
C24   O13   A    
C60   C248  A    
C4    O75   S    
O9    Zn8   S    
C166  C167  S    
C255  H146  S    
C39   C310  A    
C89   C91   S    
C148  H105  S    
C123  H50   S    
C16   O87   S    
C100  H382  S    
C172  C173  S    
C223  O67   A    
C62   C254  A    
C128  H59   S    
C104  H5    S    
C9    C44   A    
O17   Zn9   S    
C23   C48   A    
O6    Zn7   S    
C26   C284  A    
C238  H315  S    
C174  H169  S    
C227  H291  S    
C80   C81   S    
C22   C281  A    
C200  H232  S    
C202  H233  S    
C32   C297  A    
C31   C294  A    
C35   O18   A    
C68   O24   A    
C12   C45   A    
C137  C138  S    
C75   C281  A    
C276  H322  S    
C306  O66   S    
C134  H74   S    
C235  C290  A    
C160  C161  S    
C181  H183  S    
C122  C123  S    
C82   H338  S    
C52   C168  A    
C90   O28   A    
C218  C219  S    
C169  O74   S    
C61   C255  A    
C63   C253  A    
C140  C141  S    
C241  H2    S    
C158  H130  S    
C57   O20   A    
C54   C212  A    
C96   H370  S    
C165  O73   S    
C64   C72   S    
C118  H36   S    
C217  H271  S    
C119  O58   S    
O42   Zn4   S    
C219  H274  S    
C190  H223  S    
C266  H257  S    
C290  O51   S    
C13   O11   A    
C130  H65   S    
C178  H178  S    
C105  O53   S    
C203  C204  S    
C55   C239  A    
C153  C154  S    
C137  H81   S    
C249  H79   S    
C167  H153  S    
C263  H224  S    
C64   C256  A    
C208  H250  S    
