data_mof_unit_35651.cif
_audit_creation_date              2012-12-10T17:38:08-0500
_audit_creation_method            fapswitch 2.2
_symmetry_space_group_name_H-M    P1
_symmetry_Int_Tables_number       1
_space_group_crystal_system       triclinic
_cell_length_a                    11.99183
_cell_length_b                    12.882909
_cell_length_c                    19.129236
_cell_angle_alpha                 91.144153
_cell_angle_beta                  86.184201
_cell_angle_gamma                 93.709756
_cell_volume                      2942.17494104

loop_
_atom_site_label
_atom_site_type_symbol
_atom_type_description
_atom_site_fract_x
_atom_site_fract_y
_atom_site_fract_z
_atom_type_partial_charge
C1    C     C_R   0.522353 0.700361 0.500127 0.970083
C2    C     C_R   0.518908 0.131380 0.543628 0.127546
C3    C     C_R   0.459300 0.973920 0.480181 -0.076625
C4    C     C_R   0.512956 0.022150 0.537693 -0.035657
C5    C     C_R   0.953143 0.393393 0.439298 0.097898
C6    C     C_R   0.045887 0.602979 0.563518 0.087286
C7    C     C_R   0.836653 0.405940 0.443919 0.308527
C8    C     C_R   0.162904 0.592789 0.557138 0.309305
C9    C     C_R   0.858527 0.546038 0.525267 -0.125590
C10   C     C_R   0.141384 0.454173 0.474521 -0.125405
C11   C     C_R   0.975739 0.537642 0.522650 -0.039220
C12   C     C_R   0.477404 0.299840 0.499111 0.914135
C13   C     C_R   0.023886 0.461128 0.478255 -0.046680
C14   C     C_R   0.499704 0.495332 0.634379 0.867772
C15   C     C_R   0.499724 0.500466 0.365460 0.878183
C16   C     C_R   0.400454 0.457348 0.749249 -0.278357
C17   C     C_R   0.594959 0.517697 0.247716 -0.276827
C18   C     C_R   0.401325 0.443138 0.821090 0.215850
C19   C     C_R   0.594442 0.506016 0.175439 0.228630
C20   C     C_R   0.503802 0.454016 0.853298 0.020095
C21   C     C_R   0.493131 0.475806 0.144985 0.010789
C22   C     C_R   0.605952 0.473701 0.813056 0.081987
C23   C     C_R   0.461271 0.188477 0.497505 -0.220065
C24   C     C_R   0.391987 0.457669 0.186715 0.072529
C25   C     C_R   0.602403 0.487936 0.741329 -0.230044
C26   C     C_R   0.396077 0.468571 0.259418 -0.220969
C27   C     C_R   0.500296 0.481829 0.709616 -0.099765
C28   C     C_R   0.497045 0.496557 0.289660 -0.103420
C29   C     C_R   0.493420 0.469542 0.069302 0.291679
C30   C     C_R   0.501353 0.458035 0.928907 0.299774
C31   C     C_3   0.010226 0.216942 0.429805 -0.821142
C32   C     C_3   0.950913 0.641831 0.676212 -0.804673
C33   C     C_3   0.258662 0.315696 0.863448 -0.778051
C34   C     C_R   0.534613 0.811700 0.507920 -0.200155
C35   C     C_3   0.752341 0.431340 0.113341 -0.793625
C36   C     C_3   0.719585 0.482029 0.844206 -0.421628
C37   C     C_3   0.790807 0.392277 0.818486 -0.336961
C38   C     C_3   0.905563 0.401625 0.848984 -0.889046
C39   C     C_3   0.282275 0.428775 0.152558 -0.394596
C40   C     C_3   0.175792 0.421575 0.202277 -0.374368
C41   C     C_3   0.071103 0.398188 0.161998 -0.874324
C42   C     C_3   0.707703 0.190005 0.576213 -0.705550
C43   C     C_3   0.362926 0.765039 0.380140 -0.673838
C44   C     C_3   0.399870 0.223169 0.335406 -0.807439
C45   C     C_R   0.563371 0.960458 0.585792 0.248164
C46   C     C_3   0.583789 0.747900 0.671193 -0.779422
C47   C     C_3   0.499918 0.020494 0.701935 -0.771707
C48   C     C_3   0.200832 0.957113 0.438186 -0.800729
C49   C     C_3   0.234962 0.651616 0.668362 -0.723428
C50   C     C_3   0.776361 0.353487 0.328938 -0.752145
C51   C     C_R   0.389691 0.031306 0.440995 0.216325
C52   C     C_R   0.579195 0.856026 0.568882 0.061747
C53   C     C_R   0.394425 0.139067 0.447382 0.110686
C54   C     C_R   0.477564 0.869965 0.462526 0.140418
H1    H     H_    0.321678 0.448434 0.724618 0.160897
H2    H     H_    0.074521 0.228248 0.468943 0.238305
H3    H     H_    0.952812 0.730780 0.586386 0.217854
H4    H     H_    0.870460 0.596767 0.668974 0.228186
H5    H     H_    0.934289 0.708618 0.712109 0.239956
H6    H     H_    0.007344 0.590974 0.701302 0.248959
H7    H     H_    0.236685 0.470867 0.847952 0.221235
H8    H     H_    0.237148 0.287686 0.810367 0.227132
H9    H     H_    0.182530 0.306506 0.899682 0.240528
H10   H     H_    0.323443 0.267412 0.882580 0.259839
H11   H     H_    0.750233 0.581172 0.153786 0.223071
H12   H     H_    0.672280 0.542302 0.271064 0.157113
H13   H     H_    0.778650 0.392911 0.160546 0.235193
H14   H     H_    0.827891 0.452153 0.078459 0.239569
H15   H     H_    0.696482 0.376136 0.084393 0.256443
H16   H     H_    0.951837 0.475571 0.832557 0.259049
H17   H     H_    0.896291 0.399413 0.907119 0.264857
H18   H     H_    0.955063 0.335761 0.829595 0.249873
H19   H     H_    0.746958 0.316957 0.834510 0.229112
H20   H     H_    0.803351 0.392215 0.760399 0.222361
H21   H     H_    0.763634 0.557590 0.828837 0.204035
H22   H     H_    0.712188 0.481189 0.902260 0.220554
H23   H     H_    0.680030 0.505499 0.710332 0.158353
H24   H     H_    0.061416 0.461242 0.124516 0.262414
H25   H     H_    0.076358 0.323050 0.132835 0.264688
H26   H     H_    0.996058 0.392753 0.199359 0.247370
H27   H     H_    0.181019 0.358105 0.240226 0.215000
H28   H     H_    0.167061 0.496488 0.231389 0.225718
H29   H     H_    0.271239 0.488056 0.112529 0.211190
H30   H     H_    0.289491 0.352281 0.125343 0.217920
H31   H     H_    0.557468 0.249910 0.617736 0.221097
H32   H     H_    0.750663 0.165931 0.622293 0.232618
H33   H     H_    0.738185 0.271104 0.563660 0.235926
H34   H     H_    0.321500 0.453464 0.293439 0.156553
H35   H     H_    0.730864 0.138390 0.530979 0.216982
H36   H     H_    0.487637 0.881757 0.353227 0.223561
H37   H     H_    0.316595 0.798669 0.338549 0.221106
H38   H     H_    0.305498 0.755924 0.427921 0.254626
H39   H     H_    0.387723 0.688009 0.360745 0.240044
H40   H     H_    0.290309 0.254827 0.421478 0.246167
H41   H     H_    0.470367 0.280143 0.346030 0.241116
H42   H     H_    0.344592 0.257558 0.299076 0.239881
H43   H     H_    0.433879 0.152898 0.309515 0.239378
H44   H     H_    0.699098 0.750532 0.584911 0.240014
H45   H     H_    0.181500 0.397682 0.440865 0.142940
H46   H     H_    0.639949 0.697781 0.697153 0.232909
H47   H     H_    0.510459 0.700146 0.653905 0.235876
H48   H     H_    0.555137 0.806319 0.710307 0.248756
H49   H     H_    0.658177 0.968096 0.674363 0.245297
H50   H     H_    0.531627 0.054440 0.751177 0.234581
H51   H     H_    0.449706 0.946920 0.714038 0.227439
H52   H     H_    0.444234 0.076037 0.680758 0.248280
H53   H     H_    0.298606 0.013627 0.352111 0.246034
H54   H     H_    0.143604 0.911623 0.404070 0.232910
H55   H     H_    0.162005 0.030298 0.455081 0.244382
H56   H     H_    0.818478 0.604439 0.557353 0.149801
H57   H     H_    0.212199 0.910088 0.484985 0.242152
H58   H     H_    0.232563 0.739795 0.578580 0.207972
H59   H     H_    0.179918 0.707811 0.695615 0.233386
H60   H     H_    0.320691 0.668517 0.685536 0.231357
H61   H     H_    0.206251 0.571257 0.684091 0.222879
H62   H     H_    0.760111 0.263335 0.418331 0.221980
H63   H     H_    0.840630 0.302965 0.305044 0.234396
H64   H     H_    0.800859 0.435687 0.315547 0.229222
H65   H     H_    0.695428 0.330693 0.306195 0.239789
H66   H     H_    0.064662 0.337090 0.361915 0.217834
H67   H     H_    0.037456 0.157609 0.390509 0.248268
H68   H     H_    0.929606 0.187584 0.456524 0.240500
N1    N     N_R   0.529890 0.549003 0.961698 -0.183194
N2    N     N_2   0.696215 0.524506 0.133452 -0.298382
N3    N     N_2   0.587710 0.184494 0.593141 -0.266049
N4    N     N_2   0.462741 0.830563 0.392906 -0.312744
N5    N     N_2   0.335956 0.196016 0.399942 -0.313969
N6    N     N_2   0.644296 0.797628 0.611836 -0.320235
N7    N     N_2   0.593547 0.001838 0.652308 -0.273651
N8    N     N_2   0.307335 0.980266 0.399803 -0.290845
N9    N     N_2   0.235747 0.663467 0.593222 -0.248585
N10   N     N_2   0.764054 0.340306 0.404111 -0.244311
N11   N     N_R   0.464560 0.378509 0.036533 -0.195025
N12   N     N_R   0.526443 0.554585 0.031045 -0.151395
N13   N     N_R   0.468145 0.372883 0.967062 -0.164392
N14   N     N_R   0.207800 0.519350 0.512860 -0.130505
N15   N     N_R   0.792200 0.480650 0.487140 -0.135186
N16   N     N_2   0.996729 0.313477 0.394932 -0.308809
N17   N     N_2   0.001484 0.680254 0.609931 -0.308040
N18   N     N_2   0.298287 0.424095 0.861471 -0.302964
O1    O     O_R   0.421690 0.658830 0.503430 -0.603737
O2    O     O_R   0.578310 0.341170 0.496570 -0.599830
O3    O     O_R   0.609320 0.646410 0.495180 -0.635091
O4    O     O_R   0.390680 0.353590 0.504820 -0.634784
O5    O     O_R   0.406160 0.506220 0.605990 -0.596580
O6    O     O_R   0.593840 0.493780 0.394010 -0.588521
O7    O     O_R   0.593780 0.493810 0.597740 -0.627745
O8    O     O_R   0.406220 0.506190 0.402260 -0.637335
Zn1   Zn    Zn3+2 0.374720 0.508290 0.505510 0.937064
Zn2   Zn    Zn3+2 0.625280 0.491710 0.494490 0.942100

loop_
_geom_bond_atom_site_label_1
_geom_bond_atom_site_label_2
_ccdc_geom_bond_type
C49   H59   S    
C37   H20   S    
C38   H16   S    
C44   N5    S    
C45   N7    S    
C8    N14   A    
C50   H63   S    
H31   N3    S    
C32   H4    S    
C41   H26   S    
N14   Zn1   S    
C52   N6    S    
O1    Zn1   S    
C5    N16   S    
C20   C30   S    
H40   N5    S    
C46   H48   S    
C14   O5    A    
C17   H12   S    
C37   C38   S    
C47   N7    S    
C25   H23   S    
C46   N6    S    
C36   C37   S    
C19   C21   A    
C10   N14   A    
C39   H30   S    
C15   O8    A    
C3    C54   A    
C33   N18   S    
C24   C39   S    
H3    N17   S    
H11   N2    S    
C6    N17   S    
C46   H46   S    
C36   H22   S    
C42   N3    S    
C17   C19   A    
O6    Zn2   S    
C9    N15   A    
O3    Zn2   S    
C33   H8    S    
C47   H51   S    
C22   C25   A    
H62   N10   S    
C42   H32   S    
C14   C27   S    
C53   N5    S    
C5    C13   A    
C16   C27   A    
H44   N6    S    
C49   H60   S    
C48   N8    S    
H49   N7    S    
H53   N8    S    
C43   N4    S    
C51   N8    S    
C1    C34   S    
C23   C53   A    
C4    C45   A    
C46   H47   S    
C38   H18   S    
C19   N2    S    
N1    N12   A    
C50   H65   S    
C41   H24   S    
C40   H28   S    
O7    Zn2   S    
O8    Zn1   S    
C31   H67   S    
C32   N17   S    
C6    C11   A    
C5    C7    A    
C3    C51   A    
C6    C8    A    
C45   C52   A    
C21   C29   S    
C14   O7    A    
C43   H37   S    
C12   O4    A    
C51   C53   A    
C2    C4    A    
O4    Zn1   S    
C44   H42   S    
C36   H21   S    
C49   N9    S    
C44   H43   S    
C12   C23   S    
C35   H13   S    
C33   H9    S    
C47   H52   S    
C8    N9    S    
C29   N11   A    
H36   N4    S    
C31   N16   S    
C18   N18   S    
C9    C11   A    
C7    N10   S    
C50   N10   S    
C16   C18   A    
C40   C41   S    
C49   H61   S    
C20   C22   A    
C34   C54   A    
C31   H2    S    
N15   Zn2   S    
H66   N16   S    
C32   H6    S    
C3    C4    A    
C39   C40   S    
C7    N15   A    
C9    H56   S    
C37   H19   S    
C38   H17   S    
C35   N2    S    
C47   H50   S    
C50   H64   S    
C17   C28   A    
C26   C28   A    
C40   H27   S    
C31   H68   S    
C24   C26   A    
C10   C13   A    
C41   H25   S    
C15   O6    A    
H7    N18   S    
C1    O3    A    
C25   C27   A    
C22   C36   S    
C34   C52   A    
C43   H38   S    
C42   H35   S    
O2    Zn2   S    
C16   H1    S    
C39   H29   S    
C44   H41   S    
C29   N12   A    
C11   C13   A    
C15   C28   S    
C48   H54   S    
C35   H14   S    
C33   H10   S    
C43   H39   S    
C12   O2    A    
C48   H55   S    
C18   C20   A    
H58   N9    S    
C10   H45   S    
C1    O1    A    
C54   N4    S    
C2    N3    S    
C48   H57   S    
C30   N1    A    
C35   H15   S    
C26   H34   S    
C30   N13   A    
C21   C24   A    
C2    C23   A    
N11   N13   A    
C42   H33   S    
C32   H5    S    
O5    Zn1   S    
