data_mof_unit_10270.cif
_audit_creation_date              2013-03-05T16:31:07-0500
_audit_creation_method            fapswitch 2.2
_symmetry_space_group_name_H-M    P1
_symmetry_Int_Tables_number       1
_space_group_crystal_system       triclinic
_cell_length_a                    10.774502
_cell_length_b                    10.852305
_cell_length_c                    9.543088
_cell_angle_alpha                 90.027615
_cell_angle_beta                  90.05072
_cell_angle_gamma                 90.066613
_cell_volume                      1115.8546083

loop_
_atom_site_label
_atom_site_type_symbol
_atom_site_description
_atom_site_fract_x
_atom_site_fract_y
_atom_site_fract_z
_atom_type_partial_charge
O1    O     O_R   0.500000 0.319640 0.618810 -0.599935
O2    O     O_R   0.500010 0.319680 0.381230 -0.592214
C1    C     C_R   0.500672 0.262718 0.499854 0.778139
O3    O     O_R   0.319640 0.499980 0.618820 -0.561733
O4    O     O_R   0.319650 0.500020 0.381230 -0.576840
C2    C     C_R   0.262599 0.495365 0.500008 0.804709
Cu1   Cu    Cu3+1 0.499990 0.499980 0.640670 0.968470
Cu2   Cu    Cu3+1 0.500010 0.500020 0.359330 0.954339
O5    O     O_R   0.499990 0.680320 0.618770 -0.562367
O6    O     O_R   0.500000 0.680360 0.381190 -0.583718
O7    O     O_R   0.680350 0.499980 0.618770 -0.594661
O8    O     O_R   0.680360 0.500020 0.381180 -0.583927
C3    C     C_R   0.500802 0.737291 0.499886 0.823793
C4    C     C_R   0.737391 0.495415 0.500080 0.783896
H1    H     H_    0.112729 0.639004 0.355503 0.166887
C5    C     C_R   0.129462 0.302334 0.653501 -0.183510
H2    H     H_    0.229487 0.295418 0.652174 0.139079
C6    C     C_R   0.064544 0.213205 0.728954 -0.107976
H3    H     H_    0.114644 0.142654 0.785773 0.171222
C7    C     C_R   0.935466 0.213425 0.729367 -0.129591
H4    H     H_    0.885370 0.142966 0.786420 0.139244
C8    C     C_R   0.870496 0.302781 0.654342 -0.193665
H5    H     H_    0.770415 0.296267 0.653885 0.150426
C9    C     C_R   0.934331 0.395740 0.579292 0.097967
C10   C     C_R   0.065615 0.395573 0.578986 0.099772
C11   C     C_R   0.128885 0.486312 0.499828 -0.097037
C12   C     C_R   0.063952 0.570739 0.417562 -0.166379
H6    H     H_    0.887265 0.639044 0.355620 0.150804
C13   C     C_R   0.936019 0.570786 0.417667 -0.204533
C14   C     C_R   0.871080 0.486476 0.500138 -0.099218
C15   C     C_R   0.493039 0.062251 0.620761 0.068706
C16   C     C_R   0.504088 0.130165 0.498403 -0.070759
C17   C     C_R   0.518630 0.064599 0.371649 -0.202233
H7    H     H_    0.528968 0.112417 0.272738 0.163582
C18   C     C_R   0.518778 0.935335 0.371693 -0.194094
H8    H     H_    0.529297 0.887427 0.272809 0.169487
C19   C     C_R   0.504239 0.869885 0.498484 -0.104297
C20   C     C_R   0.492960 0.938043 0.620750 0.061551
C21   C     C_3   0.468797 0.930204 0.774537 0.183248
C22   C     C_3   0.468656 0.072453 0.774157 -0.538291
H9    H     H_    0.546379 0.888100 0.834724 0.081031
H10   H     H_    0.377008 0.115041 0.796709 0.211502
H11   H     H_    0.548466 0.113631 0.831402 0.171285
C23   C     C_R   0.559825 0.591018 0.073717 0.292062
N1    N     N_R   0.500790 0.500930 0.147930 -0.192792
C24   C     C_R   0.431125 0.417419 0.074316 -0.064913
H12   H     H_    0.377309 0.349033 0.130057 0.142894
C25   C     C_R   0.431039 0.417474 0.925399 -0.054124
H13   H     H_    0.377034 0.349268 0.869493 0.131069
N2    N     N_R   0.500790 0.500890 0.852020 -0.188583
C26   C     C_R   0.559967 0.590867 0.926385 0.321183
C27   C     C_3   0.694878 0.621115 0.920624 -0.513165
C28   C     C_3   0.694749 0.621455 0.079694 -0.526677
H14   H     H_    0.751709 0.545377 0.875672 0.228470
H15   H     H_    0.712171 0.713571 0.874516 0.194953
H16   H     H_    0.751687 0.546035 0.125124 0.227481
H17   H     H_    0.711801 0.714158 0.125475 0.194610
N3    N     N_R   0.347115 0.876984 0.806106 0.157481
O9    O     O_R   0.337106 0.794149 0.903865 -0.371458
O10   O     O_R   0.248658 0.910104 0.736462 -0.370653

loop_
_geom_bond_atom_site_label_1
_geom_bond_atom_site_label_2
_geom_bond_distance
_ccdc_geom_bond_type
O4    Cu2   1.954679 S    
C9    C10   1.414529 A    
C15   C20   1.347942 A    
C19   C20   1.386695 A    
C12   C13   1.378427 A    
C1    C16   1.439082 S    
C3    C19   1.439452 S    
C15   C16   1.386249 A    
C27   H15   1.111399 S    
O8    C4    1.290920 A    
Cu2   O8    1.954155 S    
C16   C17   1.412017 A    
C22   H10   1.111909 S    
O2    C1    1.290107 A    
N3    O9    1.300326 A    
Cu1   Cu2   2.684853 S    
C21   H9    1.112523 S    
C5    C6    1.394025 A    
C2    C11   1.443932 S    
N1    C24   1.369359 A    
C23   N1    1.364557 A    
Cu1   O7    1.954679 S    
C11   C12   1.395163 A    
C13   C14   1.395093 A    
C4    C14   1.443807 S    
O3    Cu1   1.954152 S    
C23   C26   1.405995 A    
C25   N2    1.369162 A    
H6    C13   1.084456 S    
C17   C18   1.402820 A    
C27   H14   1.111682 S    
N2    C26   1.364087 A    
C8    C9    1.415517 A    
O1    Cu1   1.968092 S    
O4    C2    1.290915 A    
O7    C4    1.290100 A    
C9    C14   1.416334 A    
O3    C2    1.290130 A    
Cu2   N1    2.017462 S    
C7    C8    1.394402 A    
N3    O10   1.302346 A    
C26   C27   1.490898 S    
C24   C25   1.421134 A    
C21   C22   1.543739 S    
C17   H7    1.083149 S    
C7    H4    1.082775 S    
C6    C7    1.390769 A    
Cu2   O6    1.968092 S    
C6    H3    1.082788 S    
C28   H16   1.111427 S    
C5    C10   1.415697 A    
Cu1   O5    1.968332 S    
C28   H17   1.111640 S    
C8    H5    1.080554 S    
C25   H13   1.081286 S    
O5    C3    1.292337 A    
C15   C22   1.491573 S    
C18   C19   1.412091 A    
C10   C11   1.416032 A    
C24   H12   1.081610 S    
C21   N3    1.463670 S    
H1    C12   1.084366 S    
C23   C28   1.491459 S    
C22   H11   1.111587 S    
O2    Cu2   1.968333 S    
C18   H8    1.083281 S    
Cu1   N2    2.016963 S    
C27   C28   1.518023 S    
C5    H2    1.080505 S    
O1    C1    1.292164 A    
O6    C3    1.290024 A    
C20   C21   1.493196 S    
