data_mof_unit_24351.cif
_audit_creation_date              2012-12-10T17:56:17-0500
_audit_creation_method            fapswitch 2.2
_symmetry_space_group_name_H-M    P1
_symmetry_Int_Tables_number       1
_space_group_crystal_system       triclinic
_cell_length_a                    13.004735
_cell_length_b                    10.873949
_cell_length_c                    9.503911
_cell_angle_alpha                 90.923343
_cell_angle_beta                  96.005947
_cell_angle_gamma                 90.113236
_cell_volume                      1336.41525896

loop_
_atom_site_label
_atom_site_type_symbol
_atom_type_description
_atom_site_fract_x
_atom_site_fract_y
_atom_site_fract_z
_atom_type_partial_charge
C1    C     C_R   0.499930 0.262064 0.498541 0.825508
C2    C     C_R   0.500072 0.737936 0.501459 0.825503
C3    C     C_R   0.500871 0.871796 0.504096 -0.099701
C4    C     C_R   0.499134 0.128204 0.495906 -0.099703
C5    C     C_R   0.425316 0.438197 0.062605 -0.018941
C6    C     C_R   0.574684 0.561801 0.937396 -0.018929
C7    C     C_R   0.425527 0.437872 0.913762 -0.032576
C8    C     C_R   0.574474 0.562128 0.086238 -0.032570
C9    C     C_R   0.300425 0.499829 0.473790 0.801335
C10   C     C_R   0.699575 0.500171 0.526210 0.801331
C11   C     C_R   0.812291 0.500350 0.541359 -0.048391
C12   C     C_R   0.187709 0.499650 0.458640 -0.048392
C13   C     C_R   0.024445 0.498614 0.310765 -0.218110
C14   C     C_R   0.975555 0.501385 0.689235 -0.218109
C15   C     C_R   0.131913 0.498657 0.323955 -0.199674
C16   C     C_R   0.868087 0.501343 0.676045 -0.199676
C17   C     C_R   0.135317 0.500487 0.580185 -0.267845
C18   C     C_R   0.864683 0.499513 0.419815 -0.267846
C19   C     C_R   0.027927 0.500464 0.567886 0.175841
C20   C     C_R   0.972073 0.499536 0.432113 0.175841
C21   C     C_R   0.523032 0.059465 0.376334 0.263920
C22   C     C_R   0.476977 0.940536 0.623670 0.263928
C23   C     C_R   0.524537 0.932062 0.382453 -0.307093
C24   C     C_R   0.475469 0.067938 0.617549 -0.307107
Cu1   Cu    Cu3+1 0.500000 0.500020 0.640660 0.949818
Cu2   Cu    Cu3+1 0.500000 0.499980 0.359340 0.949820
H1    H     H_    0.822144 0.498791 0.315366 0.149541
H2    H     H_    0.177856 0.501209 0.684634 0.149542
H3    H     H_    0.828810 0.502101 0.771090 0.151698
H4    H     H_    0.171190 0.497899 0.228910 0.151699
H5    H     H_    0.982414 0.497865 0.206066 0.130683
H6    H     H_    0.017586 0.502135 0.793934 0.130683
H7    H     H_    0.544008 0.880321 0.290490 0.165546
H8    H     H_    0.456000 0.119679 0.709513 0.165546
H9    H     H_    0.365499 0.388720 0.109209 0.111524
H10   H     H_    0.634504 0.611275 0.890792 0.111513
H11   H     H_    0.366110 0.387599 0.848307 0.114231
H12   H     H_    0.633891 0.612399 0.151693 0.114229
N1    N     N_R   0.500030 0.500030 0.852080 -0.149404
N2    N     N_R   0.499970 0.499970 0.147920 -0.149406
O1    O     O_R   0.499990 0.319660 0.618740 -0.595531
O2    O     O_R   0.500010 0.680340 0.381260 -0.595529
O3    O     O_R   0.499990 0.319630 0.381170 -0.543705
O4    O     O_R   0.500010 0.680370 0.618830 -0.543707
O5    O     O_R   0.349000 0.499990 0.599490 -0.590059
O6    O     O_R   0.651000 0.500010 0.400510 -0.590061
O7    O     O_R   0.348990 0.499960 0.361920 -0.595857
O8    O     O_R   0.651010 0.500040 0.638080 -0.595861
N3    N     N_2   0.547684 0.116878 0.250577 -0.399435
H13   H     H_    0.613570 0.081786 0.213430 0.240563
C25   C     C_3   0.462260 0.120404 0.140192 -0.677767
H14   H     H_    0.439714 0.025661 0.103371 0.212361
H15   H     H_    0.485663 0.172375 0.049038 0.219396
H16   H     H_    0.394595 0.166889 0.179554 0.232143
N4    N     N_2   0.452337 0.883126 0.749434 -0.399429
H17   H     H_    0.386464 0.918232 0.786604 0.240563
C26   C     C_3   0.537777 0.879583 0.859794 -0.677807
H18   H     H_    0.560365 0.974320 0.896577 0.212373
H19   H     H_    0.605414 0.833050 0.820422 0.232158
H20   H     H_    0.514376 0.827653 0.950974 0.219382

loop_
_geom_bond_atom_site_label_1
_geom_bond_atom_site_label_2
_ccdc_geom_bond_type
C12   C17   A    
C10   O6    A    
C2    O4    A    
N4    H17   S    
C11   C18   A    
C9    O5    A    
C22   N4    S    
C1    O3    A    
C11   C16   A    
C3    C23   A    
C19   C20   A    
C12   C15   A    
C1    C4    S    
C25   H16   S    
C22   C24   A    
C21   N3    S    
C2    C3    S    
C7    H11   S    
Cu1   Cu2   S    
Cu1   N1    S    
C4    C21   A    
Cu1   O8    S    
Cu2   N2    S    
C26   H18   S    
C8    H12   S    
Cu2   O7    S    
C2    O2    A    
C5    H9    S    
Cu1   O4    S    
C1    O1    A    
C17   C19   A    
C6    H10   S    
Cu2   O3    S    
C9    O7    A    
C18   C20   A    
N4    C26   S    
C13   C15   A    
C10   O8    A    
C4    C24   A    
C9    C12   S    
C14   C16   A    
C26   H19   S    
C10   C11   S    
Cu2   O6    S    
C25   H14   S    
Cu1   O5    S    
C26   H20   S    
Cu2   O2    S    
C15   H4    S    
N3    H13   S    
C5    N2    A    
Cu1   O1    S    
C5    C7    A    
C7    N1    A    
C6    N1    A    
C14   C19   A    
C3    C22   A    
C6    C8    A    
C8    N2    A    
C13   C20   A    
C25   H15   S    
C16   H3    S    
C17   H2    S    
C21   C23   A    
C13   H5    S    
C24   H8    S    
C18   H1    S    
N3    C25   S    
C14   H6    S    
C23   H7    S    
