data_mof_unit_47823.cif
_audit_creation_date              2012-12-10T17:20:54-0500
_audit_creation_method            fapswitch 2.2
_symmetry_space_group_name_H-M    P1
_symmetry_Int_Tables_number       1
_space_group_crystal_system       triclinic
_cell_length_a                    14.333967
_cell_length_b                    10.792946
_cell_length_c                    9.640062
_cell_angle_alpha                 90.619893
_cell_angle_beta                  89.830014
_cell_angle_gamma                 93.654192
_cell_volume                      1488.24974275

loop_
_atom_site_label
_atom_site_type_symbol
_atom_type_description
_atom_site_fract_x
_atom_site_fract_y
_atom_site_fract_z
_atom_type_partial_charge
C1    C     C_R   0.496969 0.262540 0.499405 0.820219
C2    C     C_1   0.771044 0.499295 0.499393 -0.236771
C3    C     C_R   0.352201 0.119069 0.652854 -0.151694
C4    C     C_R   0.285505 0.050157 0.730292 -0.139967
C5    C     C_R   0.286294 0.921545 0.733403 -0.134035
C6    C     C_R   0.353613 0.861050 0.658761 -0.147224
C7    C     C_R   0.423216 0.929124 0.581517 0.095023
C8    C     C_R   0.422868 0.060096 0.578955 0.036688
C9    C     C_R   0.490988 0.127950 0.498237 -0.204011
C10   C     C_R   0.555427 0.066859 0.416472 0.435748
C11   C     C_R   0.552829 0.938162 0.416080 -0.305479
C12   C     C_R   0.331248 0.499375 0.500196 0.770352
C13   C     C_R   0.490533 0.869986 0.501405 -0.158335
C14   C     C_R   0.636988 0.643196 0.151321 -0.127632
C15   C     C_R   0.719075 0.686554 0.091015 -0.290951
C16   C     C_R   0.727837 0.681694 0.950066 -0.291143
C17   C     C_R   0.650065 0.643660 0.866024 0.500953
C18   C     C_R   0.571730 0.569940 0.927505 0.115576
C19   C     C_R   0.568780 0.570116 0.077138 0.162622
C20   C     C_R   0.434653 0.432715 0.072913 -0.033463
C21   C     C_R   0.434307 0.433288 0.925545 -0.057659
C22   C     C_R   0.496469 0.736793 0.500588 0.819401
C23   C     C_R   0.668655 0.498996 0.499721 0.808939
C24   C     C_1   0.228863 0.499659 0.500532 -0.199835
C25   C     C_1   0.143400 0.499924 0.500511 -0.014333
C26   C     C_1   0.042689 0.500189 0.500255 -0.003565
C27   C     C_1   0.957226 0.500277 0.499968 -0.005457
C28   C     C_1   0.856516 0.499926 0.499591 -0.023190
Cu1   Cu    Cu3+1 0.499990 0.499990 0.640660 0.959803
Cu2   Cu    Cu3+1 0.500010 0.500010 0.359340 0.949556
H1    H     H_    0.791756 0.726213 0.910354 0.156937
H2    H     H_    0.380392 0.378226 0.870399 0.128264
H3    H     H_    0.345998 0.218220 0.649408 0.134134
H4    H     H_    0.232069 0.096688 0.786383 0.130019
H5    H     H_    0.233487 0.868190 0.791944 0.134668
H6    H     H_    0.348709 0.760822 0.660089 0.144814
H7    H     H_    0.601344 0.891034 0.350697 0.148590
H8    H     H_    0.381007 0.377060 0.127051 0.131949
H9    H     H_    0.631226 0.669409 0.257090 0.195334
H10   H     H_    0.773940 0.732639 0.153461 0.167261
N1    N     N_R   0.500820 0.501210 0.147910 -0.180139
N2    N     N_R   0.500850 0.501290 0.852040 -0.180007
O1    O     O_R   0.499990 0.319640 0.618810 -0.590166
O2    O     O_R   0.500000 0.319660 0.381240 -0.527490
O3    O     O_R   0.376050 0.499990 0.618810 -0.580214
O4    O     O_R   0.376060 0.500010 0.381240 -0.560339
O5    O     O_R   0.500000 0.680340 0.618760 -0.511909
O6    O     O_R   0.500010 0.680360 0.381190 -0.600252
O7    O     O_R   0.623940 0.499990 0.618760 -0.522508
O8    O     O_R   0.623950 0.500010 0.381190 -0.577532
O9    O     O_3   0.617534 0.133690 0.330849 -0.587535
C29   C     C_3   0.709149 0.127503 0.382621 0.035069
H11   H     H_    0.730667 0.030252 0.380338 0.138416
H12   H     H_    0.713803 0.164866 0.490898 0.138876
C30   C     C_3   0.776817 0.205241 0.291063 -0.298059
H13   H     H_    0.771545 0.170220 0.182311 0.223364
H14   H     H_    0.757607 0.303329 0.292814 0.235001
C31   C     C_3   0.877454 0.199105 0.340563 -0.921499
H15   H     H_    0.884067 0.230506 0.450385 0.264119
H16   H     H_    0.924567 0.260282 0.275677 0.261923
H17   H     H_    0.899528 0.102530 0.331557 0.251544
O10   O     O_3   0.639992 0.699110 0.738227 -0.567484
C32   C     C_3   0.719930 0.760543 0.676427 0.067051
H18   H     H_    0.708955 0.757473 0.562381 0.127756
H19   H     H_    0.784836 0.711305 0.691636 0.127500
C33   C     C_3   0.729056 0.898256 0.719033 -0.364534
H20   H     H_    0.670488 0.946491 0.673041 0.219075
H21   H     H_    0.724441 0.909390 0.833361 0.230565
C34   C     C_3   0.821649 0.960090 0.669255 -0.943255
H22   H     H_    0.880870 0.919184 0.722460 0.261346
H23   H     H_    0.823917 0.061057 0.693465 0.259214
H24   H     H_    0.829570 0.947336 0.555507 0.249994

loop_
_geom_bond_atom_site_label_1
_geom_bond_atom_site_label_2
_ccdc_geom_bond_type
C34   H24   S    
C22   O6    A    
C30   H13   S    
C32   H19   S    
Cu2   N1    S    
Cu1   Cu2   S    
C6    H6    S    
Cu1   N2    S    
C20   H8    S    
C9    C10   A    
C12   C24   S    
C1    O2    A    
C33   H21   S    
C24   C25   T    
C29   C30   S    
Cu2   O4    S    
C31   H17   S    
C18   N2    A    
C17   C18   A    
Cu2   O8    S    
C32   C33   S    
C7    C8    A    
Cu1   O7    S    
C4    C5    A    
C29   H11   S    
C16   H1    S    
C5    C6    A    
C11   C13   A    
Cu2   O2    S    
C26   C27   T    
O10   C32   S    
Cu1   O5    S    
C20   N1    A    
C10   O9    S    
C5    H5    S    
Cu2   O6    S    
C29   H12   S    
C13   C22   S    
C33   H20   S    
C6    C7    A    
C4    H4    S    
C30   H14   S    
C34   H22   S    
C14   H9    S    
C21   H2    S    
C22   O5    A    
C15   H10   S    
C23   O7    A    
C33   C34   S    
C34   H23   S    
C10   C11   A    
C3    H3    S    
C31   H16   S    
O9    C29   S    
C17   O10   S    
C19   N1    A    
C7    C13   A    
C1    C9    S    
C20   C21   A    
C12   O4    A    
C3    C8    A    
C30   C31   S    
C2    C23   S    
C11   H7    S    
C18   C19   A    
C14   C15   A    
C8    C9    A    
C23   O8    A    
C2    C28   T    
C21   N2    A    
C25   C26   S    
C32   H18   S    
C31   H15   S    
C14   C19   A    
C1    O1    A    
Cu1   O1    S    
C3    C4    A    
C15   C16   A    
C16   C17   A    
Cu1   O3    S    
C12   O3    A    
C27   C28   S    
