data_mof_unit_34322.cif
_audit_creation_date              2012-12-10T16:34:44-0500
_audit_creation_method            fapswitch 2.2
_symmetry_space_group_name_H-M    P1
_symmetry_Int_Tables_number       1
_space_group_crystal_system       triclinic
_cell_length_a                    28.219577
_cell_length_b                    18.39183
_cell_length_c                    17.07546
_cell_angle_alpha                 90.056642
_cell_angle_beta                  60.784258
_cell_angle_gamma                 90.235715
_cell_volume                      7734.86348544

loop_
_atom_site_label
_atom_site_type_symbol
_atom_type_description
_atom_site_fract_x
_atom_site_fract_y
_atom_site_fract_z
_atom_type_partial_charge
C1    C     C_R   0.701906 0.268839 0.675733 0.837502
C2    C     C_R   0.298136 0.731240 0.324237 0.874202
C3    C     C_R   0.298265 0.268503 0.324097 0.898697
C4    C     C_R   0.701021 0.733114 0.676196 0.857330
C5    C     C_R   0.201777 0.768588 0.675809 0.901756
C6    C     C_R   0.798221 0.231392 0.324189 0.928568
C7    C     C_R   0.798256 0.768517 0.324126 0.902304
C8    C     C_R   0.201790 0.231390 0.675870 0.862729
C9    C     C_R   0.899398 0.493723 0.501775 0.069150
C10   C     C_R   0.091207 0.493030 0.527906 0.062477
C11   C     C_R   0.404037 0.997398 0.490059 0.061791
C12   C     C_R   0.581241 0.999070 0.557525 0.060234
C13   C     C_R   0.069843 0.371042 0.590785 -0.224584
C14   C     C_R   0.924093 0.611163 0.427612 -0.239741
C15   C     C_R   0.877327 0.373217 0.569538 -0.227176
C16   C     C_R   0.116534 0.609450 0.451885 -0.231741
C17   C     C_R   0.579565 0.867574 0.555584 -0.223975
C18   C     C_R   0.381006 0.118744 0.552323 -0.228499
C19   C     C_R   0.422583 0.870711 0.445736 -0.223498
C20   C     C_R   0.570484 0.128969 0.584219 -0.227407
C21   C     C_R   0.721557 0.266062 0.952708 0.115384
C22   C     C_R   0.278960 0.734827 0.046780 0.114837
C23   C     C_R   0.279430 0.265138 0.046202 0.115896
C24   C     C_R   0.719961 0.737771 0.953757 0.112620
C25   C     C_R   0.220206 0.763676 0.953956 0.113498
C26   C     C_R   0.780198 0.236945 0.045639 0.113944
C27   C     C_R   0.778975 0.764535 0.046675 0.113966
C28   C     C_R   0.221356 0.233675 0.952997 0.115205
C29   C     C_R   0.778720 0.266460 0.907174 -0.177543
C30   C     C_R   0.221800 0.734380 0.092366 -0.178202
C31   C     C_R   0.255819 0.196351 0.053380 -0.179293
C32   C     C_R   0.777073 0.736805 0.908118 -0.176278
C33   C     C_R   0.277354 0.764096 0.908401 -0.177796
C34   C     C_R   0.723055 0.236573 0.091103 -0.175485
C35   C     C_R   0.721850 0.765530 0.092291 -0.175369
C36   C     C_R   0.245002 0.302439 0.945769 -0.181882
C37   C     C_R   0.807593 0.252090 0.952963 -0.177994
C38   C     C_R   0.192875 0.748616 0.046639 -0.180997
C39   C     C_R   0.227331 0.180764 0.007236 -0.175534
C40   C     C_R   0.806137 0.749959 0.953911 -0.178572
C41   C     C_R   0.306272 0.749883 0.954113 -0.181831
C42   C     C_R   0.694196 0.250915 0.045343 -0.178916
C43   C     C_R   0.692790 0.752320 0.046506 -0.179555
C44   C     C_R   0.273481 0.318027 0.991911 -0.176514
C45   C     C_R   0.644247 0.327478 0.945273 -0.204285
C46   C     C_R   0.356229 0.673316 0.054278 -0.205301
C47   C     C_R   0.357131 0.325384 0.053632 -0.205214
C48   C     C_R   0.642898 0.675493 0.946214 -0.202307
C49   C     C_R   0.143221 0.825769 0.946187 -0.205674
C50   C     C_R   0.857045 0.174613 0.053571 -0.203927
C51   C     C_R   0.856554 0.825719 0.053947 -0.203478
C52   C     C_R   0.143399 0.173799 0.945928 -0.202957
C53   C     C_R   0.616941 0.347674 0.897937 -0.067285
C54   C     C_R   0.383412 0.652887 0.101739 -0.066573
C55   C     C_R   0.384066 0.346129 0.101282 -0.065746
C56   C     C_R   0.615611 0.654810 0.898993 -0.064588
C57   C     C_R   0.116336 0.846746 0.898440 -0.066138
C58   C     C_R   0.883777 0.153386 0.101472 -0.065828
C59   C     C_R   0.883777 0.846323 0.101338 -0.064740
C60   C     C_R   0.116181 0.153534 0.898551 -0.066010
C61   C     C_R   0.633566 0.322628 0.812838 -0.270080
C62   C     C_R   0.366790 0.677976 0.186849 -0.264801
C63   C     C_R   0.367367 0.321058 0.186423 -0.262129
C64   C     C_R   0.631479 0.681174 0.814552 -0.276644
C65   C     C_R   0.133066 0.821871 0.813194 -0.261305
C66   C     C_R   0.866954 0.178097 0.186815 -0.259816
C67   C     C_R   0.867236 0.821166 0.186384 -0.267705
C68   C     C_R   0.132755 0.178819 0.813546 -0.265667
C69   C     C_R   0.679919 0.282051 0.770492 -0.033482
C70   C     C_R   0.320384 0.718485 0.229257 -0.047705
C71   C     C_R   0.320786 0.280486 0.228873 -0.057813
C72   C     C_R   0.678121 0.721739 0.771718 -0.049160
C73   C     C_R   0.179316 0.781027 0.770935 -0.056877
C74   C     C_R   0.820741 0.219017 0.229022 -0.062144
C75   C     C_R   0.820597 0.780781 0.229046 -0.055103
C76   C     C_R   0.179451 0.219134 0.770960 -0.045655
C77   C     C_R   0.708298 0.260952 0.816190 -0.207847
C78   C     C_R   0.292155 0.739832 0.183394 -0.206696
C79   C     C_R   0.292529 0.258941 0.182848 -0.196710
C80   C     C_R   0.706412 0.743489 0.817507 -0.196582
C81   C     C_R   0.207214 0.759085 0.817119 -0.200135
C82   C     C_R   0.792972 0.241166 0.182705 -0.196201
C83   C     C_R   0.792207 0.759228 0.183310 -0.195678
C84   C     C_R   0.207985 0.240194 0.816687 -0.204284
C85   C     C_R   0.690260 0.129677 0.538729 0.888589
C86   C     C_R   0.309227 0.870547 0.464293 0.886230
C87   C     C_R   0.304988 0.127622 0.477457 0.914926
C88   C     C_R   0.691045 0.870679 0.536419 0.906004
C89   C     C_R   0.194533 0.627333 0.523873 0.892568
C90   C     C_R   0.796234 0.369384 0.501582 0.901940
C91   C     C_R   0.805833 0.627319 0.474784 0.902917
C92   C     C_R   0.190501 0.369891 0.538501 0.901872
C93   C     C_R   0.690532 0.283624 0.904715 0.072725
C94   C     C_R   0.309998 0.717286 0.094777 0.074730
C95   C     C_R   0.310539 0.281856 0.094242 0.073221
C96   C     C_R   0.688768 0.720497 0.905941 0.073289
C97   C     C_R   0.189272 0.781462 0.905849 0.074486
C98   C     C_R   0.811028 0.218976 0.093866 0.074159
C99   C     C_R   0.810170 0.781663 0.094577 0.072685
C100  C     C_R   0.190101 0.217111 0.905171 0.073850
C101  C     C_R   0.073782 0.100008 0.934189 0.911091
C102  C     C_R   0.926078 0.900112 0.065902 0.911426
C103  C     C_R   0.925993 0.099707 0.066046 0.910260
C104  C     C_R   0.074047 0.900335 0.933918 0.909149
C105  C     C_R   0.573880 0.600027 0.934076 0.906360
C106  C     C_R   0.426285 0.399914 0.065758 0.912612
C107  C     C_R   0.425900 0.599597 0.066124 0.910880
C108  C     C_R   0.574231 0.400588 0.933751 0.909750
C109  C     C_R   0.522301 0.127225 0.578647 0.107098
C110  C     C_R   0.462247 0.869044 0.472225 0.106418
C111  C     C_R   0.427456 0.122089 0.562034 0.106638
C112  C     C_R   0.541069 0.867400 0.527218 0.104197
C113  C     C_R   0.070205 0.608507 0.441152 0.110111
C114  C     C_R   0.925099 0.372307 0.575200 0.111585
C115  C     C_R   0.973617 0.609442 0.429114 0.117874
C116  C     C_R   0.021680 0.371130 0.585770 0.114344
C117  C     C_R   0.488884 0.188620 0.598996 -0.209873
C118  C     C_R   0.487500 0.803619 0.472585 -0.212115
C119  C     C_R   0.441064 0.185456 0.593055 -0.205352
C120  C     C_R   0.525086 0.802343 0.503503 -0.210984
C121  C     C_R   0.059695 0.665473 0.396984 -0.212922
C122  C     C_R   0.937397 0.312894 0.613598 -0.214144
C123  C     C_R   0.011769 0.666071 0.391333 -0.210500
C124  C     C_R   0.985432 0.312169 0.618472 -0.210777
C125  C     C_R   0.460891 0.061054 0.540475 0.030060
C126  C     C_R   0.517961 0.933242 0.523155 0.028863
C127  C     C_R   0.506746 0.062568 0.553159 0.027806
C128  C     C_R   0.476064 0.933413 0.500972 0.025638
C129  C     C_R   0.984999 0.550785 0.470361 0.027517
C130  C     C_R   0.009316 0.431318 0.547911 0.026760
C131  C     C_R   0.033127 0.550469 0.476700 0.028489
C132  C     C_R   0.961143 0.431751 0.542066 0.026758
C133  C     C_R   0.948538 0.492128 0.504653 -0.043823
C134  C     C_R   0.044625 0.491545 0.517266 -0.041032
C135  C     C_R   0.447338 0.997488 0.509545 -0.042351
C136  C     C_R   0.535400 0.998458 0.544477 -0.042847
C137  C     C_R   0.865011 0.432744 0.530432 0.038401
C138  C     C_R   0.124949 0.555086 0.502991 0.020641
C139  C     C_R   0.105280 0.431512 0.560951 0.023123
C140  C     C_R   0.884626 0.555507 0.469032 0.010336
C141  C     C_R   0.390700 0.933531 0.459070 0.039426
C142  C     C_R   0.602518 0.065617 0.568386 0.036883
C143  C     C_R   0.605913 0.932941 0.558302 0.013213
C144  C     C_R   0.372213 0.060014 0.506033 0.005223
C145  C     C_R   0.818203 0.434217 0.520675 -0.170541
C146  C     C_R   0.164290 0.560313 0.533385 -0.171707
C147  C     C_R   0.154434 0.433315 0.564412 -0.124083
C148  C     C_R   0.829720 0.559719 0.484168 -0.138328
C149  C     C_R   0.344954 0.934512 0.444570 -0.177438
C150  C     C_R   0.653261 0.065390 0.568494 -0.185525
C151  C     C_R   0.654881 0.934430 0.563870 -0.130572
C152  C     C_R   0.334470 0.061819 0.472143 -0.124179
C153  C     C_R   0.794601 0.499801 0.523123 0.080497
C154  C     C_R   0.173586 0.499997 0.574971 0.065422
C155  C     C_R   0.327046 0.000380 0.430132 0.067144
C156  C     C_R   0.672050 0.999865 0.585097 0.074205
H1    H     H_    0.994142 0.265581 0.648083 0.137693
H2    H     H_    0.004189 0.711425 0.358564 0.138591
H3    H     H_    0.909948 0.266829 0.639557 0.134170
H4    H     H_    0.087996 0.710425 0.368465 0.135223
H5    H     H_    0.543029 0.750993 0.505906 0.136079
H6    H     H_    0.415613 0.233255 0.610099 0.137658
H7    H     H_    0.476819 0.753213 0.452011 0.136109
H8    H     H_    0.499379 0.238747 0.620383 0.137489
H9    H     H_    0.078177 0.325259 0.622034 0.159059
H10   H     H_    0.917151 0.656007 0.393667 0.166098
H11   H     H_    0.848838 0.328608 0.599138 0.162084
H12   H     H_    0.145557 0.652621 0.418887 0.175020
H13   H     H_    0.586369 0.815881 0.577951 0.177911
H14   H     H_    0.352547 0.162577 0.582422 0.180538
H15   H     H_    0.417766 0.822753 0.413589 0.169891
H16   H     H_    0.580652 0.178904 0.606183 0.169323
H17   H     H_    0.650265 0.249169 0.082457 0.131679
H18   H     H_    0.350202 0.751630 0.916938 0.131040
H19   H     H_    0.290162 0.372120 0.986092 0.132700
H20   H     H_    0.648875 0.754296 0.083685 0.130949
H21   H     H_    0.148943 0.746941 0.083810 0.129476
H22   H     H_    0.851528 0.253710 0.915853 0.130178
H23   H     H_    0.850045 0.747869 0.916713 0.131734
H24   H     H_    0.210617 0.126688 0.013080 0.132509
H25   H     H_    0.801272 0.279313 0.836315 0.127408
H26   H     H_    0.199278 0.721561 0.163230 0.127566
H27   H     H_    0.260179 0.154087 0.093490 0.129460
H28   H     H_    0.799406 0.724290 0.837204 0.134021
H29   H     H_    0.299880 0.776952 0.837558 0.134652
H30   H     H_    0.700481 0.223633 0.161916 0.134075
H31   H     H_    0.699488 0.778049 0.163198 0.134151
H32   H     H_    0.240628 0.344721 0.905692 0.130285
H33   H     H_    0.631051 0.348752 0.011912 0.149637
H34   H     H_    0.369428 0.652055 0.987632 0.147885
H35   H     H_    0.371669 0.344668 0.985746 0.147044
H36   H     H_    0.630167 0.653515 0.012412 0.148460
H37   H     H_    0.129965 0.846885 0.012916 0.147310
H38   H     H_    0.870382 0.153635 0.986756 0.147826
H39   H     H_    0.869761 0.847099 0.987328 0.149256
H40   H     H_    0.128968 0.154360 0.013723 0.148697
H41   H     H_    0.612363 0.338967 0.777160 0.175124
H42   H     H_    0.387937 0.661535 0.222579 0.175027
H43   H     H_    0.388491 0.337767 0.222217 0.176698
H44   H     H_    0.610131 0.664704 0.779044 0.173860
H45   H     H_    0.112162 0.838768 0.777237 0.176885
H46   H     H_    0.887753 0.161018 0.222873 0.177600
H47   H     H_    0.888501 0.837711 0.222009 0.174630
H48   H     H_    0.111416 0.162505 0.777961 0.174446
H49   H     H_    0.744673 0.228334 0.782443 0.146977
H50   H     H_    0.255786 0.772458 0.217132 0.146510
H51   H     H_    0.255188 0.227887 0.217187 0.152371
H52   H     H_    0.742835 0.776407 0.783705 0.150524
H53   H     H_    0.243446 0.726187 0.783511 0.148824
H54   H     H_    0.756759 0.274101 0.216284 0.150640
H55   H     H_    0.755603 0.726679 0.217257 0.149909
H56   H     H_    0.245419 0.271043 0.782212 0.148665
O1    O     O_R   0.746490 0.236330 0.638080 -0.663428
O2    O     O_R   0.253510 0.763670 0.361920 -0.650600
O3    O     O_R   0.253510 0.236330 0.361920 -0.630932
O4    O     O_R   0.746490 0.763670 0.638080 -0.636632
O5    O     O_R   0.246490 0.736330 0.638080 -0.637439
O6    O     O_R   0.753510 0.263670 0.361920 -0.628410
O7    O     O_R   0.753510 0.736330 0.361920 -0.633444
O8    O     O_R   0.246490 0.263670 0.638080 -0.651170
O9    O     O_R   0.674170 0.186160 0.516270 -0.626473
O10   O     O_R   0.325830 0.813840 0.483730 -0.631237
O11   O     O_R   0.325830 0.186160 0.483730 -0.644159
O12   O     O_R   0.674170 0.813840 0.516270 -0.644083
O13   O     O_R   0.174170 0.686160 0.516270 -0.631532
O14   O     O_R   0.825830 0.313840 0.483730 -0.624640
O15   O     O_R   0.825830 0.686160 0.483730 -0.634167
O16   O     O_R   0.174170 0.313840 0.516270 -0.630652
O17   O     O_R   0.739960 0.127620 0.525000 -0.629743
O18   O     O_R   0.260040 0.872380 0.475000 -0.625745
O19   O     O_R   0.260040 0.127620 0.475000 -0.626668
O20   O     O_R   0.739960 0.872380 0.525000 -0.620546
O21   O     O_R   0.239960 0.627620 0.525000 -0.637050
O22   O     O_R   0.760040 0.372380 0.475000 -0.628077
O23   O     O_R   0.760040 0.627620 0.475000 -0.625304
O24   O     O_R   0.239960 0.372380 0.525000 -0.618185
O25   O     O_R   0.680700 0.294870 0.629350 -0.655120
O26   O     O_R   0.319300 0.705130 0.370650 -0.633016
O27   O     O_R   0.319300 0.294870 0.370650 -0.622626
O28   O     O_R   0.680700 0.705130 0.629350 -0.631585
O29   O     O_R   0.180700 0.794870 0.629350 -0.620633
O30   O     O_R   0.819300 0.205130 0.370650 -0.617595
O31   O     O_R   0.819300 0.794870 0.370650 -0.629741
O32   O     O_R   0.180700 0.205130 0.629350 -0.636512
O33   O     O_R   0.062020 0.072840 0.007170 -0.627553
O34   O     O_R   0.937980 0.927160 0.992830 -0.627081
O35   O     O_R   0.937980 0.072840 0.992830 -0.628340
O36   O     O_R   0.062020 0.927160 0.007170 -0.628966
O37   O     O_R   0.562020 0.572840 0.007170 -0.626077
O38   O     O_R   0.437980 0.427160 0.992830 -0.628458
O39   O     O_R   0.437980 0.572840 0.992830 -0.627942
O40   O     O_R   0.562020 0.427160 0.007170 -0.626664
O41   O     O_R   0.947860 0.073950 0.109290 -0.622001
O42   O     O_R   0.052140 0.926050 0.890710 -0.622716
O43   O     O_R   0.052140 0.073950 0.890710 -0.624534
O44   O     O_R   0.947860 0.926050 0.109290 -0.623987
O45   O     O_R   0.447860 0.573950 0.109290 -0.623381
O46   O     O_R   0.552140 0.426050 0.890710 -0.626054
O47   O     O_R   0.552140 0.573950 0.890710 -0.627593
O48   O     O_R   0.447860 0.426050 0.109290 -0.622575
Zn1   Zn    Zn3+2 0.792340 0.208750 0.507670 0.927610
Zn2   Zn    Zn3+2 0.207660 0.791250 0.492330 0.932474
Zn3   Zn    Zn3+2 0.207660 0.208750 0.492330 0.938412
Zn4   Zn    Zn3+2 0.792340 0.791250 0.507670 0.938486
Zn5   Zn    Zn3+2 0.292340 0.708750 0.507670 0.927740
Zn6   Zn    Zn3+2 0.707660 0.291250 0.492330 0.926460
Zn7   Zn    Zn3+2 0.707660 0.708750 0.492330 0.923295
Zn8   Zn    Zn3+2 0.292340 0.291250 0.507670 0.930222
Zn9   Zn    Zn3+2 0.505960 0.500000 0.080520 0.932140
Zn10  Zn    Zn3+2 0.494040 0.500000 0.919480 0.922064
Zn11  Zn    Zn3+2 0.005960 0.000000 0.080520 0.932028
Zn12  Zn    Zn3+2 0.994040 1.000000 0.919480 0.931558
C157  C     C_3   0.733052 0.504877 0.584938 -0.357751
C158  C     C_3   0.720133 0.544695 0.671453 -0.822267
H57   H     H_    0.740669 0.598245 0.656999 0.261523
H58   H     H_    0.675599 0.552226 0.712441 0.250221
H59   H     H_    0.734213 0.512149 0.710929 0.248442
H60   H     H_    0.711322 0.528378 0.551914 0.230070
H61   H     H_    0.714238 0.450310 0.607136 0.201178
C159  C     C_3   0.199906 0.506013 0.634791 -0.337739
C160  C     C_3   0.171697 0.458980 0.719607 -0.892039
H62   H     H_    0.127467 0.470552 0.756403 0.262945
H63   H     H_    0.177967 0.400235 0.703303 0.255276
H64   H     H_    0.188889 0.471589 0.764355 0.246997
H65   H     H_    0.243622 0.491895 0.596196 0.227536
H66   H     H_    0.196554 0.562296 0.660324 0.214730
C161  C     C_3   0.303590 0.003096 0.366076 -0.345895
C162  C     C_3   0.337204 0.051985 0.284858 -0.858817
H67   H     H_    0.335747 0.109696 0.304477 0.256049
H68   H     H_    0.380176 0.033874 0.249572 0.257164
H69   H     H_    0.320923 0.048421 0.237452 0.241985
H70   H     H_    0.304499 0.948379 0.337748 0.199505
H71   H     H_    0.260329 0.019354 0.401093 0.229459
C163  C     C_3   0.705442 0.000501 0.633690 -0.342743
C164  C     C_3   0.679968 0.952930 0.718076 -0.870054
H72   H     H_    0.637506 0.970198 0.763601 0.258498
H73   H     H_    0.680014 0.894688 0.701442 0.254829
H74   H     H_    0.703566 0.958851 0.754115 0.245875
H75   H     H_    0.748077 0.984391 0.588260 0.229654
H76   H     H_    0.706907 0.055954 0.658146 0.209580

loop_
_geom_bond_atom_site_label_1
_geom_bond_atom_site_label_2
_ccdc_geom_bond_type
C81   H53   S    
C41   H18   S    
C34   C42   A    
C44   H19   S    
C16   C113  A    
C110  C118  A    
O12   Zn7   S    
C39   H24   S    
C160  H64   S    
C37   H22   S    
C27   C99   S    
C54   C107  S    
C13   C139  A    
O33   Zn11  S    
O34   Zn12  S    
C24   C96   S    
C8    O32   A    
C3    O3    A    
C30   C38   A    
C158  H57   S    
O48   Zn9   S    
C34   H30   S    
C159  H65   S    
C87   O11   A    
C109  C127  A    
C5    O5    A    
C52   H40   S    
C111  C125  A    
C125  C135  A    
C143  C151  A    
C126  C136  A    
C19   C141  A    
C92   C147  S    
C30   H26   S    
C130  C134  A    
C73   C81   A    
O15   Zn4   S    
C18   H14   S    
C115  C123  A    
C84   C100  A    
C162  H69   S    
C85   O17   A    
C127  C136  A    
C128  C135  A    
C61   H41   S    
C112  C120  A    
C27   C35   A    
C21   C29   A    
C92   O24   A    
C103  O35   A    
C36   H32   S    
C23   C31   A    
C24   C32   A    
C77   H49   S    
C146  C154  A    
O32   Zn3   S    
O47   Zn10  S    
C129  C133  A    
C20   H16   S    
C63   C71   A    
C2    O2    A    
C64   H44   S    
C36   C44   A    
C148  C153  A    
C57   C104  S    
C48   C96   A    
C59   C102  S    
C90   O14   A    
C16   C138  A    
C3    C71   S    
C156  C163  S    
C157  H60   S    
C106  O38   A    
C117  C119  A    
C149  C155  A    
C51   H39   S    
O35   Zn12  S    
C53   C108  S    
O36   Zn11  S    
C21   C93   S    
C78   C94   A    
C79   H51   S    
C18   C144  A    
O6    Zn6   S    
C23   C95   S    
O27   Zn8   S    
C118  C120  A    
C121  C123  A    
C67   H47   S    
C49   C97   A    
C21   C42   A    
C116  C130  A    
C125  C127  A    
C24   C43   A    
C153  C157  S    
C10   C138  A    
C110  C128  A    
C15   C137  A    
C9    C133  A    
C4    O4    A    
C68   H48   S    
C69   C77   A    
C45   C93   A    
C71   C79   A    
C67   C75   A    
C164  H73   S    
C62   C70   A    
C108  O40   A    
C101  O43   A    
C9    C140  A    
O40   Zn9   S    
C66   C74   A    
C91   O23   A    
C8    C76   S    
C49   C57   A    
C111  C119  A    
C89   O21   A    
C52   C60   A    
C59   C67   A    
C53   C61   A    
C55   C63   A    
C56   C64   A    
C14   H10   S    
C35   C43   A    
O16   Zn3   S    
C45   C53   A    
C38   H21   S    
C22   C94   S    
C15   H11   S    
O43   Zn12  S    
O23   Zn7   S    
O44   Zn11  S    
C50   C98   A    
C28   C36   A    
C159  C160  S    
C1    O25   A    
C52   C100  A    
C161  H71   S    
O1    Zn1   S    
C162  H68   S    
C25   C38   A    
C46   C94   A    
C27   C40   A    
C57   C65   A    
C11   C141  A    
O14   Zn1   S    
C60   C68   A    
O11   Zn8   S    
C25   C97   S    
C102  O34   A    
C80   H52   S    
C14   C140  A    
C87   C152  S    
C88   C151  S    
O45   Zn9   S    
C122  C124  A    
O19   Zn3   S    
C126  C128  A    
C22   C30   A    
O17   Zn1   S    
C160  H63   S    
C12   C143  A    
C107  O45   A    
C163  H75   S    
C144  C152  A    
C138  C146  A    
C102  O44   A    
C5    C73   S    
C159  H66   S    
O21   Zn5   S    
C66   H46   S    
C113  C121  A    
C12   C136  A    
C161  H70   S    
C6    O30   A    
C85   O9    A    
C25   C33   A    
C82   H54   S    
O18   Zn2   S    
C158  H59   S    
C82   C98   A    
C131  C134  A    
C101  O33   A    
C76   C84   A    
C109  C117  A    
O7    Zn7   S    
C137  C145  A    
C90   C145  S    
C163  C164  S    
C22   C41   A    
C14   C115  A    
O39   Zn10  S    
C85   C150  S    
C6    O6    A    
C9    C137  A    
C104  O36   A    
C121  H4    S    
C122  H3    S    
O20   Zn4   S    
C112  C126  A    
C83   C99   A    
C74   C82   A    
C119  H6    S    
C6    C74   S    
C117  H8    S    
C118  H7    S    
C55   C106  S    
C141  C149  A    
C86   O18   A    
O3    Zn3   S    
O4    Zn4   S    
C164  H72   S    
C54   C62   A    
C28   C39   A    
C1    C69   S    
C23   C44   A    
C72   C80   A    
O25   Zn6   S    
C50   C58   A    
C130  C132  A    
C78   H50   S    
C79   C95   A    
O37   Zn9   S    
C40   H23   S    
C43   H20   S    
C13   H9    S    
C161  C162  S    
C152  C155  A    
C124  H1    S    
C46   C54   A    
C4    O28   A    
C151  C156  A    
C18   C111  A    
O42   Zn12  S    
O5    Zn5   S    
O29   Zn2   S    
C1    O1    A    
C103  O41   A    
C68   C76   A    
C10   C139  A    
C4    C72   S    
C116  C124  A    
C91   O15   A    
O2    Zn2   S    
C89   O13   A    
C84   H56   S    
C26   C37   A    
C107  O39   A    
C17   C143  A    
C33   C41   A    
C142  C150  A    
C154  C159  S    
C105  O37   A    
C50   H38   S    
C75   C83   A    
O41   Zn11  S    
C77   C93   A    
C12   C142  A    
C47   H35   S    
O46   Zn10  S    
C56   C105  S    
C48   H36   S    
C13   C116  A    
C92   O16   A    
C35   H31   S    
C29   C37   A    
O24   Zn8   S    
C33   H29   S    
C2    C70   S    
C3    O27   A    
C70   C78   A    
C108  O46   A    
C140  C148  A    
C104  O42   A    
C139  C147  A    
C157  H61   S    
C29   H25   S    
C19   H15   S    
C11   C135  A    
C17   H13   S    
O22   Zn6   S    
C65   C73   A    
C90   O22   A    
C147  C154  A    
O9    Zn6   S    
C26   C34   A    
C63   H43   S    
C132  C133  A    
C80   C96   A    
C11   C144  A    
C158  H58   S    
C7    O7    A    
C28   C100  S    
C32   C40   A    
C105  O47   A    
C150  C156  A    
C106  O48   A    
O28   Zn7   S    
O13   Zn2   S    
C46   H34   S    
C91   C148  S    
C58   C66   A    
C164  H74   S    
C51   C99   A    
C89   C146  S    
C20   C142  A    
C62   H42   S    
C86   C149  S    
O10   Zn5   S    
C2    O26   A    
C7    C75   S    
C160  H62   S    
C49   H37   S    
C163  H76   S    
C8    O8    A    
C88   O12   A    
C157  C158  S    
C15   C114  A    
C120  H5    S    
C26   C98   S    
C45   H33   S    
C51   C59   A    
O31   Zn4   S    
O38   Zn10  S    
C155  C161  S    
C60   C101  S    
O8    Zn8   S    
C17   C112  A    
C47   C55   A    
C115  C129  A    
C19   C110  A    
C61   C69   A    
C48   C56   A    
C113  C131  A    
C31   H27   S    
C114  C132  A    
C32   H28   S    
O26   Zn5   S    
C10   C134  A    
C42   H17   S    
C123  H2    S    
C162  H67   S    
C145  C153  A    
C81   C97   A    
C16   H12   S    
C87   O19   A    
O30   Zn1   S    
C31   C39   A    
C64   C72   A    
C88   O20   A    
C20   C109  A    
C114  C122  A    
C65   H45   S    
C7    O31   A    
C47   C95   A    
C58   C103  S    
C86   O10   A    
C5    O29   A    
C83   H55   S    
C129  C131  A    
