data_mof_unit_44315.cif
_audit_creation_date              2012-12-10T16:47:17-0500
_audit_creation_method            fapswitch 2.2
_symmetry_space_group_name_H-M    P1
_symmetry_Int_Tables_number       1
_space_group_crystal_system       triclinic
_cell_length_a                    11.86281
_cell_length_b                    12.381567
_cell_length_c                    7.950696
_cell_angle_alpha                 90.446983
_cell_angle_beta                  94.286323
_cell_angle_gamma                 90.080238
_cell_volume                      1164.49556183

loop_
_atom_site_label
_atom_site_type_symbol
_atom_type_description
_atom_site_fract_x
_atom_site_fract_y
_atom_site_fract_z
_atom_type_partial_charge
C1    C     C_R   0.354820 0.851263 0.455773 0.942085
C2    C     C_2   0.729065 0.771947 0.567450 -0.373165
C3    C     C_2   0.725802 0.231727 0.567240 -0.377072
C4    C     C_2   0.274198 0.768274 0.432759 -0.377071
C5    C     C_2   0.770934 0.728052 0.432550 -0.373164
C6    C     C_2   0.229065 0.271947 0.567450 -0.373165
C7    C     C_2   0.225802 0.731727 0.567240 -0.377072
C8    C     C_2   0.774198 0.268274 0.432759 -0.377071
C9    C     C_3   0.740474 0.976361 0.104711 -0.705555
C10   C     C_3   0.259526 0.023638 0.895288 -0.705564
C11   C     C_3   0.240474 0.476361 0.104711 -0.705555
C12   C     C_R   0.645180 0.148736 0.544226 0.942085
C13   C     C_3   0.759526 0.523638 0.895288 -0.705564
C14   C     C_R   0.645666 0.851888 0.543851 0.945218
C15   C     C_R   0.354334 0.148111 0.456149 0.945218
C16   C     C_R   0.854820 0.351263 0.455773 0.942085
C17   C     C_R   0.145180 0.648736 0.544226 0.942085
C18   C     C_R   0.145666 0.351888 0.543851 0.945218
C19   C     C_R   0.854334 0.648111 0.456149 0.945218
C20   C     C_2   0.270934 0.228052 0.432550 -0.373164
H1    H     H_    0.742971 0.749301 0.303979 0.174522
H2    H     H_    0.821040 0.996093 0.048873 0.196516
H3    H     H_    0.732416 0.887204 0.108452 0.224281
H4    H     H_    0.746133 0.011105 0.232967 0.276496
H5    H     H_    0.343320 0.997876 0.120774 0.280668
H6    H     H_    0.178959 0.003899 0.951121 0.196519
H7    H     H_    0.253871 0.988899 0.767030 0.276501
H8    H     H_    0.267579 0.112795 0.891556 0.224279
H9    H     H_    0.156680 0.502124 0.879226 0.280668
H10   H     H_    0.321041 0.496093 0.048873 0.196516
H11   H     H_    0.232416 0.387204 0.108451 0.224281
H12   H     H_    0.257028 0.250698 0.696021 0.174524
H13   H     H_    0.246133 0.511105 0.232967 0.276496
H14   H     H_    0.843320 0.497876 0.120774 0.280668
H15   H     H_    0.678959 0.503899 0.951121 0.196519
H16   H     H_    0.753871 0.488899 0.767030 0.276501
H17   H     H_    0.767579 0.612795 0.891556 0.224279
H18   H     H_    0.244999 0.762553 0.694688 0.194807
H19   H     H_    0.755001 0.237447 0.305312 0.194806
H20   H     H_    0.242971 0.249301 0.303979 0.174522
H21   H     H_    0.757029 0.750698 0.696021 0.174524
H22   H     H_    0.744999 0.262553 0.694688 0.194807
H23   H     H_    0.255001 0.737447 0.305312 0.194806
H24   H     H_    0.656680 0.002124 0.879226 0.280668
N1    N     N_2   0.541470 0.000000 0.055820 0.022673
N2    N     N_2   0.458530 1.000000 0.944180 0.022673
N3    N     N_2   0.041470 0.500000 0.055820 0.022673
N4    N     N_2   0.958530 0.500000 0.944180 0.022673
N5    N     N_2   0.647184 0.021142 0.001335 -0.224771
N6    N     N_2   0.352816 0.978858 0.998665 -0.224770
N7    N     N_2   0.147184 0.521142 0.001335 -0.224771
N8    N     N_2   0.852816 0.478858 0.998665 -0.224770
O1    O     O_R   0.375700 0.885870 0.609240 -0.612717
O2    O     O_R   0.597720 0.114130 0.675960 -0.645391
O3    O     O_R   0.597720 0.885870 0.675960 -0.652382
O4    O     O_R   0.402280 0.114130 0.324040 -0.652383
O5    O     O_R   0.902280 0.385870 0.324040 -0.645391
O6    O     O_R   0.097720 0.614130 0.675960 -0.645391
O7    O     O_R   0.097720 0.385870 0.675960 -0.652382
O8    O     O_R   0.902280 0.614130 0.324040 -0.652383
O9    O     O_R   0.624300 0.114130 0.390760 -0.612716
O10   O     O_R   0.624300 0.885870 0.390760 -0.616576
O11   O     O_R   0.375700 0.114130 0.609240 -0.616577
O12   O     O_R   0.875700 0.385870 0.609240 -0.612717
O13   O     O_R   0.124300 0.614130 0.390760 -0.612716
O14   O     O_R   0.124300 0.385870 0.390760 -0.616576
O15   O     O_R   0.875700 0.614130 0.609240 -0.616577
O16   O     O_R   0.402280 0.885870 0.324040 -0.645391
Zn1   Zn    Zn3+2 0.482250 1.000000 0.690430 0.950363
Zn2   Zn    Zn3+2 0.517750 0.000000 0.309570 0.950363
Zn3   Zn    Zn3+2 0.982250 0.500000 0.690430 0.950363
Zn4   Zn    Zn3+2 0.017750 0.500000 0.309570 0.950363

loop_
_geom_bond_atom_site_label_1
_geom_bond_atom_site_label_2
_ccdc_geom_bond_type
H24   N5    S    
C10   H7    S    
C6    H12   S    
C9    H4    S    
C19   O15   A    
C5    C19   S    
C8    H19   S    
N3    N7    S    
C19   O8    A    
C18   O14   A    
O13   Zn4   S    
C6    C20   D    
N2    N6    S    
H14   N8    S    
N3    N4    D    
N4    Zn3   S    
C20   H20   S    
N1    N5    S    
C17   O6    A    
C1    C4    S    
O1    Zn1   S    
C15   O4    A    
C10   H6    S    
C13   H17   S    
C14   O3    A    
C11   H11   S    
C8    C16   S    
O9    Zn2   S    
N1    N2    D    
C12   O9    A    
O3    Zn1   S    
O2    Zn1   S    
C13   N8    S    
C4    C7    D    
C6    C18   S    
C4    H23   S    
C7    H18   S    
C13   H15   S    
O15   Zn3   S    
C16   O5    A    
O5    Zn4   S    
C15   C20   S    
C2    C14   S    
O14   Zn4   S    
C9    H2    S    
C2    C5    D    
C11   N7    S    
O6    Zn3   S    
O8    Zn4   S    
C2    H21   S    
C10   H8    S    
C10   N6    S    
O4    Zn2   S    
C18   O7    A    
N4    N8    S    
C3    H22   S    
C9    N5    S    
N3    Zn4   S    
O10   Zn2   S    
C13   H16   S    
O16   Zn2   S    
C3    C8    D    
H9    N7    S    
O12   Zn3   S    
C11   H13   S    
C1    O16   A    
C1    O1    A    
H5    N6    S    
C9    H3    S    
N2    Zn1   S    
C15   O11   A    
C3    C12   S    
C16   O12   A    
N1    Zn2   S    
C17   O13   A    
C12   O2    A    
O11   Zn1   S    
C11   H10   S    
O7    Zn3   S    
C7    C17   S    
C5    H1    S    
C14   O10   A    
