data_mof_unit_51541.cif
_audit_creation_date              2012-12-10T18:16:17-0500
_audit_creation_method            fapswitch 2.2
_symmetry_space_group_name_H-M    P1
_symmetry_Int_Tables_number       1
_space_group_crystal_system       triclinic
_cell_length_a                    18.287476
_cell_length_b                    18.411251
_cell_length_c                    18.365768
_cell_angle_alpha                 119.740549
_cell_angle_beta                  59.992233
_cell_angle_gamma                 119.821428
_cell_volume                      4386.66864788

loop_
_atom_site_label
_atom_site_type_symbol
_atom_type_description
_atom_site_fract_x
_atom_site_fract_y
_atom_site_fract_z
_atom_type_partial_charge
C1    C     C_R   0.390497 0.110510 0.608420 0.777285
C2    C     C_R   0.009380 0.965781 0.909853 0.584997
C3    C     C_R   0.900446 0.468593 0.435748 -0.125089
C4    C     C_R   0.899732 0.444996 0.351104 -0.169823
C5    C     C_R   0.958326 0.402515 0.275604 -0.117944
C6    C     C_R   0.035761 0.631162 0.741640 0.173722
C7    C     C_R   0.091634 0.630859 0.773098 -0.125189
C8    C     C_R   0.159685 0.593888 0.713725 -0.171096
C9    C     C_R   0.169409 0.552614 0.623429 -0.133784
C10   C     C_R   0.113192 0.551163 0.591719 -0.177713
C11   C     C_R   0.047289 0.591220 0.650387 -0.102562
C12   C     C_R   0.973373 0.379703 0.831355 0.098004
C13   C     C_R   0.946224 0.944781 0.052271 -0.288000
C14   C     C_R   0.889249 0.313908 0.832297 -0.169110
C15   C     C_R   0.865841 0.268620 0.755393 -0.116480
C16   C     C_R   0.925729 0.289595 0.677642 -0.022430
C17   C     C_R   0.010230 0.353338 0.675553 -0.001093
C18   C     C_R   0.033993 0.398158 0.752110 -0.059612
C19   C     C_R   0.023583 0.617720 0.169227 0.116174
C20   C     C_R   0.104581 0.688394 0.169946 -0.171419
C21   C     C_R   0.127216 0.735550 0.247370 -0.130180
C22   C     C_R   0.069396 0.712030 0.324059 -0.016989
C23   C     C_R   0.987618 0.643571 0.324575 -0.016453
C24   C     C_R   0.053153 0.055735 0.947854 -0.282888
C25   C     C_R   0.965063 0.595743 0.247113 -0.089391
C26   C     C_R   0.959115 0.909392 0.960028 -0.170033
C27   C     C_R   0.042184 0.090944 0.039615 -0.169353
C28   C     C_R   0.989901 0.440560 0.916434 -0.008106
C29   C     C_R   0.008232 0.557540 0.083722 -0.009322
C30   C     C_R   0.939823 0.497388 0.972313 -0.234955
C31   C     C_R   0.058793 0.501286 0.027737 -0.241698
C32   C     C_R   0.947911 0.555535 0.055476 -0.061864
C33   C     C_R   0.609310 0.889467 0.390570 0.777294
C34   C     C_R   0.050950 0.443284 0.944431 -0.059693
C35   C     C_R   0.021304 0.091937 0.532683 0.572210
C36   C     C_R   0.975973 0.907505 0.470180 0.575261
C37   C     C_R   0.107810 0.387974 0.889561 0.785471
C38   C     C_R   0.891792 0.611601 0.110391 0.786277
C39   C     C_R   0.962374 0.040027 0.485204 -0.215859
C40   C     C_R   0.035432 0.959463 0.517155 -0.214871
C41   C     C_R   0.941409 0.946707 0.451097 -0.264699
C42   C     C_R   0.056804 0.052879 0.550732 -0.263461
C43   C     C_R   0.539148 0.089568 0.503294 0.002951
C44   C     C_R   0.030669 0.240083 0.153125 -0.049196
C45   C     C_R   0.458905 0.909179 0.489705 -0.001236
C46   C     C_R   0.590671 0.034316 0.453971 -0.281523
C47   C     C_R   0.408293 0.965166 0.541819 -0.287133
C48   C     C_R   0.551819 0.944501 0.446451 -0.034841
C49   C     C_R   0.447315 0.055068 0.550059 -0.035180
C50   C     C_R   0.412401 0.446907 0.500294 0.470884
C51   C     C_R   0.587579 0.553052 0.499707 0.475328
C52   C     C_R   0.465909 0.500071 0.446679 0.463971
C53   C     C_R   0.534088 0.499854 0.553292 0.468812
C54   C     C_R   0.553755 0.553649 0.446185 -0.473165
C55   C     C_R   0.996186 0.769311 0.854066 -0.065894
C56   C     C_R   0.446233 0.446306 0.553801 -0.474983
C57   C     C_R   0.411590 0.498074 0.034287 0.494336
C58   C     C_R   0.588149 0.501177 0.965994 0.478725
C59   C     C_R   0.464762 0.551154 0.087846 0.515277
C60   C     C_R   0.535021 0.448205 0.912380 0.509296
C61   C     C_R   0.390204 0.390179 0.890064 0.961938
C62   C     C_R   0.609773 0.609695 0.109961 0.963084
C63   C     C_R   0.553490 0.553263 0.054005 -0.498375
C64   C     C_R   0.446366 0.446260 0.946150 -0.503343
C65   C     C_R   0.111588 0.109921 0.608358 0.867286
C66   C     C_R   0.070641 0.325644 0.206661 -0.176023
C67   C     C_R   0.888021 0.890005 0.392046 0.864830
C68   C     C_R   0.390134 0.390201 0.609897 0.953500
C69   C     C_R   0.609861 0.609774 0.390088 0.954547
C70   C     C_R   0.109863 0.110551 0.890474 0.860094
C71   C     C_R   0.890232 0.889545 0.109487 0.858180
C72   C     C_R   0.215672 0.304080 0.121149 -0.183076
C73   C     C_R   0.816400 0.676959 0.863005 -0.163524
C74   C     C_R   0.176118 0.218445 0.071436 -0.241693
C75   C     C_R   0.842362 0.766516 0.913031 -0.230059
C76   C     C_R   0.084023 0.185757 0.086572 0.213002
C77   C     C_R   0.969531 0.678404 0.802672 -0.182565
C78   C     C_R   0.931540 0.812953 0.910017 0.213748
C79   C     C_R   0.921737 0.086307 0.476249 0.229816
C80   C     C_R   0.830406 0.076544 0.521838 -0.136546
C81   C     C_R   0.792548 0.121237 0.514207 -0.139812
C82   C     C_R   0.845712 0.176510 0.461918 -0.142233
C83   C     C_R   0.936727 0.186838 0.416870 -0.115772
C84   C     C_R   0.974724 0.141887 0.423841 -0.030558
C85   C     C_R   0.077441 0.913601 0.525050 0.226912
C86   C     C_R   0.026949 0.860667 0.580123 -0.028497
C87   C     C_R   0.067245 0.817984 0.587433 -0.105414
C88   C     C_R   0.163472 0.357036 0.189055 0.708885
C89   C     C_R   0.157862 0.827611 0.539636 -0.142169
C90   C     C_R   0.208323 0.879907 0.484450 -0.141434
C91   C     C_R   0.168374 0.922668 0.476931 -0.146725
C92   C     C_R   0.582327 0.180573 0.499126 0.124736
C93   C     C_R   0.646225 0.243880 0.540944 -0.132251
C94   C     C_R   0.687330 0.329584 0.536159 -0.083999
C95   C     C_R   0.665031 0.352405 0.489480 -0.029446
C96   C     C_R   0.601598 0.289601 0.447529 -0.117298
C97   C     C_R   0.560345 0.203823 0.452154 -0.160842
C98   C     C_R   0.411586 0.814212 0.480328 0.120167
C99   C     C_R   0.879215 0.632958 0.808154 0.683549
C100  C     C_R   0.414293 0.778222 0.530388 -0.167799
C101  C     C_R   0.374276 0.687117 0.516533 -0.083292
C102  C     C_R   0.331092 0.631933 0.453201 -0.033134
C103  C     C_R   0.326644 0.667777 0.404583 -0.069205
C104  C     C_R   0.366892 0.758678 0.417910 -0.136047
C105  C     C_R   0.933531 0.206052 0.166971 0.129983
C106  C     C_R   0.905397 0.188013 0.099427 -0.184166
C107  C     C_R   0.814144 0.156985 0.112552 -0.146792
C108  C     C_R   0.750452 0.143840 0.193078 -0.114351
C109  C     C_R   0.777949 0.161336 0.260403 -0.141822
C110  C     C_R   0.989097 0.035033 0.090561 0.584153
C111  C     C_R   0.869053 0.191961 0.247337 -0.057543
C112  C     C_R   0.091810 0.820059 0.846617 0.132672
C113  C     C_R   0.118629 0.855654 0.920469 -0.187274
C114  C     C_R   0.208473 0.903684 0.913401 -0.142917
C115  C     C_R   0.272140 0.915971 0.832557 -0.124235
C116  C     C_R   0.246026 0.880415 0.758711 -0.140230
C117  C     C_R   0.156168 0.832958 0.765655 -0.053226
C118  C     C_R   0.015804 0.380157 0.284718 0.173507
C119  C     C_R   0.015981 0.404178 0.370230 -0.120098
C120  C     C_R   0.958300 0.447910 0.445281 -0.167046
F1    F     F_    0.203643 0.439296 0.237971 -0.638004
F2    F     F_    0.569887 0.397322 0.828193 -0.581493
F3    F     F_    0.982990 0.069153 0.177546 -0.663590
F4    F     F_    0.016435 0.931073 0.822533 -0.663008
F5    F     F_    0.043031 0.181377 0.561999 -0.662992
F6    F     F_    0.953075 0.818019 0.442128 -0.658517
F7    F     F_    0.851699 0.545571 0.760692 -0.635219
F8    F     F_    0.328320 0.394502 0.498018 -0.605467
F9    F     F_    0.671650 0.605475 0.501999 -0.598386
F10   F     F_    0.432477 0.496992 0.393385 -0.611607
F11   F     F_    0.567573 0.502810 0.606490 -0.601112
F12   F     F_    0.326839 0.499288 0.068218 -0.580917
F13   F     F_    0.672733 0.499604 0.932253 -0.580253
F14   F     F_    0.429876 0.602020 0.172028 -0.593166
H1    H     H_    0.661106 0.061181 0.418502 0.168961
H2    H     H_    0.722192 0.113435 0.549351 0.135693
H3    H     H_    0.816550 0.211605 0.456574 0.125582
H4    H     H_    0.978071 0.229718 0.376598 0.136469
H5    H     H_    0.045295 0.150377 0.388619 0.148720
H6    H     H_    0.956775 0.852954 0.617562 0.149721
H7    H     H_    0.028244 0.777451 0.630131 0.146752
H8    H     H_    0.188926 0.794436 0.545207 0.127643
H9    H     H_    0.278357 0.887268 0.447280 0.132409
H10   H     H_    0.208079 0.962903 0.433877 0.113830
H11   H     H_    0.663488 0.227083 0.577789 0.140416
H12   H     H_    0.337579 0.937834 0.576034 0.171415
H13   H     H_    0.736276 0.378320 0.568856 0.165295
H14   H     H_    0.696671 0.418790 0.485955 0.168116
H15   H     H_    0.584326 0.307449 0.411556 0.124590
H16   H     H_    0.511400 0.155535 0.419258 0.112361
H17   H     H_    0.448665 0.820366 0.578658 0.117456
H18   H     H_    0.377436 0.659175 0.554265 0.134026
H19   H     H_    0.301126 0.561302 0.441547 0.181482
H20   H     H_    0.292926 0.624968 0.355837 0.216425
H21   H     H_    0.364882 0.785513 0.378405 0.139765
H22   H     H_    0.954093 0.198717 0.037070 0.147502
H23   H     H_    0.286984 0.328813 0.108323 0.171310
H24   H     H_    0.792821 0.143467 0.060418 0.136502
H25   H     H_    0.679835 0.120187 0.203353 0.129581
H26   H     H_    0.728744 0.151383 0.322748 0.133284
H27   H     H_    0.889504 0.205306 0.299802 0.139777
H28   H     H_    0.070071 0.845771 0.983184 0.136502
H29   H     H_    0.228796 0.931082 0.970511 0.138959
H30   H     H_    0.341743 0.952859 0.827065 0.130792
H31   H     H_    0.295468 0.889540 0.696125 0.128700
H32   H     H_    0.136653 0.806082 0.708131 0.129619
H33   H     H_    0.059067 0.386957 0.378980 0.138894
H34   H     H_    0.747177 0.641566 0.866425 0.195047
H35   H     H_    0.957266 0.464219 0.510908 0.150520
H36   H     H_    0.855640 0.502254 0.494029 0.153238
H37   H     H_    0.853407 0.459395 0.344152 0.136124
H38   H     H_    0.957274 0.385104 0.210411 0.136708
H39   H     H_    0.083591 0.660694 0.843268 0.137705
H40   H     H_    0.203805 0.595641 0.738037 0.138424
H41   H     H_    0.220478 0.521675 0.578175 0.178634
H42   H     H_    0.121477 0.520060 0.521525 0.143494
H43   H     H_    0.006430 0.592849 0.624685 0.134375
H44   H     H_    0.840751 0.300138 0.893399 0.137983
H45   H     H_    0.217159 0.177016 0.021383 0.150071
H46   H     H_    0.800512 0.218897 0.756668 0.136691
H47   H     H_    0.906923 0.256505 0.618909 0.149693
H48   H     H_    0.056845 0.368568 0.614832 0.156878
H49   H     H_    0.098745 0.448571 0.750537 0.140953
H50   H     H_    0.151373 0.704824 0.109772 0.135664
H51   H     H_    0.190306 0.789068 0.247428 0.133528
H52   H     H_    0.087586 0.746847 0.383304 0.150904
H53   H     H_    0.942467 0.626923 0.384782 0.154641
H54   H     H_    0.903239 0.540346 0.246939 0.125519
H55   H     H_    0.792953 0.799881 0.954406 0.152658
H56   H     H_    0.892975 0.495219 0.950871 0.196609
H57   H     H_    0.105761 0.503789 0.049267 0.190800
H58   H     H_    0.788861 0.034427 0.563065 0.113973
O1    O     O_3   0.249960 0.250040 0.750040 -0.532325
O2    O     O_R   0.865890 0.634160 0.194850 -0.643552
O3    O     O_R   0.305100 0.073510 0.634200 -0.645443
O4    O     O_R   0.694900 0.926490 0.365800 -0.644216
O5    O     O_R   0.134110 0.365830 0.926590 -0.637258
O6    O     O_R   0.865890 0.634170 0.073410 -0.636311
O7    O     O_R   0.426490 0.365840 0.805130 -0.575452
O8    O     O_R   0.573510 0.634160 0.194870 -0.577672
O9    O     O_R   0.134150 0.194970 0.634230 -0.560447
O10   O     O_R   0.865850 0.805030 0.365770 -0.558917
O11   O     O_R   0.426480 0.365860 0.634240 -0.590466
O12   O     O_3   0.750040 0.749960 0.249960 -0.532241
O13   O     O_R   0.573520 0.634140 0.365760 -0.595626
O14   O     O_R   0.134190 0.073490 0.805100 -0.565186
O15   O     O_R   0.865810 0.926510 0.194900 -0.565305
O16   O     O_R   0.305020 0.365860 0.634250 -0.598226
O17   O     O_R   0.694980 0.634140 0.365750 -0.594530
O18   O     O_R   0.134160 0.194930 0.926560 -0.667845
O19   O     O_R   0.865840 0.805070 0.073440 -0.665699
O20   O     O_R   0.305030 0.365830 0.926580 -0.599732
O21   O     O_R   0.694970 0.634170 0.073420 -0.601310
O22   O     O_R   0.134180 0.073510 0.634210 -0.646205
O23   O     O_R   0.865820 0.926490 0.365790 -0.646515
O24   O     O_R   0.426530 0.194970 0.634210 -0.622806
O25   O     O_R   0.573470 0.805030 0.365790 -0.626873
O26   O     O_R   0.134110 0.365840 0.805150 -0.651426
Zn1   Zn    Zn3+2 0.206570 0.293400 0.880180 0.980502
Zn2   Zn    Zn3+2 0.793430 0.706600 0.119820 0.982070
Zn3   Zn    Zn3+2 0.380110 0.293420 0.706660 1.042464
Zn4   Zn    Zn3+2 0.619890 0.706580 0.293340 1.033273
Zn5   Zn    Zn3+2 0.206560 0.293420 0.706670 1.017342
Zn6   Zn    Zn3+2 0.793440 0.706580 0.293330 1.025422
Zn7   Zn    Zn3+2 0.206610 0.119900 0.706640 0.989503
Zn8   Zn    Zn3+2 0.793390 0.880100 0.293360 0.989634

loop_
_geom_bond_atom_site_label_1
_geom_bond_atom_site_label_2
_ccdc_geom_bond_type
C30   C32   A    
C57   C64   A    
C93   C94   A    
C4    H37   S    
C55   C112  S    
C34   C37   S    
C73   C75   A    
C57   F12   S    
C44   C66   A    
C95   C96   A    
C111  H27   S    
C24   C27   A    
O6    Zn2   S    
C61   O7    A    
C81   C82   A    
C85   C91   A    
C24   C70   S    
C7    C8    A    
C41   C67   S    
C108  H25   S    
C44   C105  S    
C116  C117  A    
O16   Zn5   S    
O19   Zn2   S    
C26   C78   S    
C74   C76   A    
C12   C28   S    
C1    O3    A    
C91   H10   S    
C29   C32   A    
O22   Zn7   S    
C45   C98   S    
C109  C111  A    
C66   C88   A    
C112  C117  A    
C55   C77   A    
C8    H40   S    
C120  H35   S    
C53   C56   A    
C16   C17   A    
C106  C107  A    
C58   C60   A    
C89   H8    S    
C31   H57   S    
O13   Zn4   S    
O25   Zn4   S    
C108  C109  A    
O11   Zn3   S    
O1    Zn1   S    
C115  H30   S    
C35   F5    S    
C35   C42   A    
O24   Zn3   S    
C100  C101  A    
C103  H20   S    
C113  H28   S    
C118  C119  A    
C67   O23   A    
C17   H48   S    
C74   H45   S    
C19   C20   A    
C33   O4    A    
C8    C9    A    
C68   O16   A    
C42   C65   S    
C50   C52   A    
C97   H16   S    
C38   O6    A    
C93   H11   S    
C11   H43   S    
C32   C38   S    
C115  C116  A    
C9    C10   A    
C33   O25   A    
C90   H9    S    
C90   C91   A    
C86   H6    S    
C20   H50   S    
C69   O13   A    
O1    Zn3   S    
C105  C111  A    
C47   H12   S    
C28   C34   A    
C100  H17   S    
C15   H46   S    
O12   Zn6   S    
C68   O11   A    
C80   H58   S    
C36   C41   A    
C102  C103  A    
C37   O26   A    
C1    O24   A    
C73   H34   S    
C112  C113  A    
C72   C88   A    
O21   Zn2   S    
C52   C54   A    
C92   C97   A    
C114  C115  A    
O4    Zn8   S    
C45   C47   A    
C58   F13   S    
C10   H42   S    
C70   O14   A    
C46   C48   A    
O3    Zn7   S    
C101  C102  A    
O10   Zn6   S    
O26   Zn5   S    
C27   C110  A    
C47   C49   A    
C10   C11   A    
C6    C11   A    
C55   C78   A    
C16   H47   S    
C4    C5    A    
C6    C77   S    
C99   F7    S    
C13   C71   S    
C75   C78   A    
C85   C86   A    
C50   F8    S    
C51   F9    S    
C50   C56   A    
O18   Zn1   S    
C38   O2    A    
C51   C53   A    
C61   O20   A    
C39   C79   S    
C40   C85   S    
C22   H52   S    
C61   C64   S    
C35   C39   A    
C62   C63   S    
C25   H54   S    
C110  F3    S    
C62   O8    A    
O15   Zn8   S    
C40   C42   A    
C83   C84   A    
C102  H19   S    
C36   C40   A    
C117  H32   S    
C107  C108  A    
C96   C97   A    
O14   Zn7   S    
C17   C18   A    
C3    C4    A    
C31   C34   A    
C2    C26   A    
C116  H31   S    
C87   H7    S    
C60   F2    S    
C13   C110  A    
C14   H44   S    
C84   H5    S    
C53   F11   S    
C88   F1    S    
C72   C74   A    
O12   Zn2   S    
C33   C48   S    
C37   O5    A    
C87   C89   A    
C2    C24   A    
O7    Zn3   S    
C70   O18   A    
C62   O21   A    
C13   C26   A    
C69   O17   A    
O9    Zn5   S    
O12   Zn8   S    
C27   C76   S    
C19   C29   S    
C119  H33   S    
C107  H24   S    
C81   H2    S    
O2    Zn6   S    
C113  C114  A    
C45   C48   A    
C58   C63   A    
C73   C99   A    
C101  H18   S    
O12   Zn4   S    
C86   C87   A    
C59   C63   A    
C22   C23   A    
C36   F6    S    
C95   H14   S    
C94   H13   S    
C106  H22   S    
C12   C14   A    
C80   C81   A    
O5    Zn1   S    
C119  C120  A    
C3    H36   S    
C21   H51   S    
C6    C7    A    
C46   H1    S    
O20   Zn1   S    
C2    F4    S    
C82   H3    S    
C105  C106  A    
C59   F14   S    
C98   C100  A    
C43   C92   S    
C5    C118  A    
C60   C64   A    
O23   Zn8   S    
O8    Zn4   S    
C51   C54   A    
C28   C30   A    
C52   F10   S    
C65   O22   A    
C29   C31   A    
C67   O10   A    
C56   C68   S    
C23   H53   S    
C114  H29   S    
C79   C84   A    
C54   C69   S    
C18   H49   S    
C98   C104  A    
C96   H15   S    
C7    H39   S    
C71   O15   A    
C92   C93   A    
C5    H38   S    
C9    H41   S    
C30   H56   S    
C104  H21   S    
C43   C49   A    
C94   C95   A    
C19   C25   A    
C43   C46   A    
C75   H55   S    
C57   C59   A    
C3    C120  A    
C72   H23   S    
O1    Zn7   S    
C79   C80   A    
O1    Zn5   S    
C23   C25   A    
C65   O9    A    
C20   C21   A    
C39   C41   A    
C82   C83   A    
C66   C118  S    
C12   C18   A    
C103  C104  A    
O17   Zn6   S    
C14   C15   A    
C71   O19   A    
C77   C99   A    
C44   C76   A    
C89   C90   A    
C21   C22   A    
C109  H26   S    
C1    C49   S    
C83   H4    S    
C15   C16   A    
