data_mof_unit_64264.cif
_audit_creation_date              2012-12-10T19:08:04-0500
_audit_creation_method            fapswitch 2.2
_symmetry_space_group_name_H-M    P1
_symmetry_Int_Tables_number       1
_space_group_crystal_system       triclinic
_cell_length_a                    13.059818
_cell_length_b                    13.640934
_cell_length_c                    23.406452
_cell_angle_alpha                 89.991301
_cell_angle_beta                  92.497837
_cell_angle_gamma                 85.722442
_cell_volume                      4154.22491115

loop_
_atom_site_label
_atom_site_type_symbol
_atom_type_description
_atom_site_fract_x
_atom_site_fract_y
_atom_site_fract_z
_atom_type_partial_charge
Br1   Br    Br    0.610446 0.311419 0.808626 -0.405329
Br2   Br    Br    0.984200 0.383743 0.427282 -0.354337
Br3   Br    Br    0.389545 0.688577 0.191374 -0.405329
Br4   Br    Br    0.383869 0.688723 0.657269 -0.329593
Br5   Br    Br    0.616139 0.311281 0.342731 -0.329589
Br6   Br    Br    0.379497 0.686520 0.799980 -0.314625
Br7   Br    Br    0.620511 0.313482 0.200020 -0.314625
Br8   Br    Br    0.323272 0.051699 0.493664 -0.365322
Br9   Br    Br    0.676728 0.948301 0.506336 -0.365321
Br10  Br    Br    0.015799 0.616257 0.572718 -0.354338
C1    C     C_R   0.481194 0.685020 0.499400 0.896019
C2    C     C_R   0.552546 0.422227 0.299705 0.172652
C3    C     C_R   0.446404 0.578052 0.759891 0.271644
C4    C     C_R   0.553600 0.421949 0.240110 0.271642
C5    C     C_R   0.495319 0.498803 0.790953 0.082625
C6    C     C_R   0.504681 0.501197 0.209047 0.082625
C7    C     C_1   0.533860 0.212072 0.501171 -0.085105
C8    C     C_1   0.466140 0.787928 0.498829 -0.085104
C9    C     C_2   0.544616 0.021156 0.501595 0.195635
C10   C     C_2   0.455384 0.978844 0.498405 0.195634
C11   C     C_1   0.457321 0.875199 0.498492 0.084454
C12   C     C_R   0.518806 0.314980 0.500600 0.896018
C13   C     C_1   0.542679 0.124801 0.501508 0.084454
C14   C     C_2   0.033452 0.473432 0.483469 0.118456
C15   C     C_2   0.966548 0.526568 0.516531 0.118456
C16   C     C_R   0.499159 0.499611 0.610501 0.947951
C17   C     C_R   0.500841 0.500388 0.389499 0.947949
C18   C     C_1   0.854579 0.519482 0.511906 0.244331
C19   C     C_1   0.145421 0.480518 0.488094 0.244329
C20   C     C_R   0.425927 0.460286 0.118758 0.612942
C21   C     C_R   0.574073 0.539712 0.881242 0.612943
C22   C     C_R   0.582976 0.539842 0.121654 0.608966
C23   C     C_R   0.544665 0.418469 0.763335 0.305642
C24   C     C_R   0.417023 0.460158 0.878345 0.608966
C25   C     C_R   0.584249 0.541327 0.061341 -0.031102
C26   C     C_R   0.415750 0.458673 0.938659 -0.031100
C27   C     C_R   0.501838 0.500278 0.030147 -0.038170
C28   C     C_R   0.498161 0.499721 0.969853 -0.038170
C29   C     C_R   0.422751 0.459640 0.059197 -0.062417
C30   C     C_R   0.577249 0.540359 0.940803 -0.062417
C31   C     C_R   0.663461 0.581911 0.031001 0.144671
C32   C     C_R   0.336539 0.418087 0.968999 0.144669
C33   C     C_R   0.658317 0.580654 0.971312 -0.106030
C34   C     C_R   0.455331 0.581529 0.236665 0.305642
C35   C     C_R   0.341683 0.419344 0.028688 -0.106029
C36   C     C_3   0.754479 0.627076 0.059784 -0.685499
C37   C     C_3   0.245523 0.372921 0.940216 -0.685503
C38   C     C_3   0.595520 0.327353 0.674431 -0.700104
C39   C     C_3   0.404473 0.672644 0.325568 -0.700099
C40   C     C_R   0.545372 0.416629 0.703496 0.024120
C41   C     C_R   0.454624 0.583370 0.296504 0.024120
C42   C     C_R   0.497279 0.497555 0.672293 -0.192779
C43   C     C_R   0.502722 0.502445 0.327707 -0.192781
C44   C     C_R   0.447458 0.577774 0.700295 0.172651
H1    H     H_    0.718689 0.611596 0.948363 0.200142
H2    H     H_    0.678994 0.320226 0.686275 0.270436
H3    H     H_    0.560191 0.260264 0.688368 0.263688
H4    H     H_    0.413286 0.670272 0.372792 0.203688
H5    H     H_    0.439798 0.739735 0.311631 0.263687
H6    H     H_    0.320997 0.679767 0.313725 0.270435
H7    H     H_    0.281311 0.388402 0.051637 0.200143
H8    H     H_    0.727764 0.691338 0.085742 0.276307
H9    H     H_    0.799988 0.571371 0.086877 0.273149
H10   H     H_    0.807394 0.654105 0.028430 0.216386
H11   H     H_    0.272240 0.308660 0.914257 0.276307
H12   H     H_    0.192609 0.345889 0.971570 0.216387
H13   H     H_    0.200014 0.428624 0.913123 0.273151
H14   H     H_    0.586708 0.329726 0.627208 0.203687
N1    N     N_R   0.504758 0.500076 0.148195 -0.325619
N2    N     N_R   0.495242 0.499923 0.851805 -0.325619
N3    N     N_1   0.234540 0.484780 0.490870 -0.070797
N4    N     N_1   0.765460 0.515220 0.509130 -0.070797
O1    O     O_R   0.402510 0.634760 0.496660 -0.599534
O2    O     O_2   0.649227 0.578256 0.852576 -0.509153
O3    O     O_2   0.658108 0.577505 0.154174 -0.524300
O4    O     O_2   0.341889 0.422497 0.845826 -0.524299
O5    O     O_R   0.597490 0.365240 0.503340 -0.599533
O6    O     O_R   0.572960 0.644530 0.502520 -0.590309
O7    O     O_R   0.427040 0.355470 0.497480 -0.590309
O8    O     O_R   0.414760 0.495140 0.580910 -0.583928
O9    O     O_R   0.585240 0.504860 0.419090 -0.583928
O10   O     O_R   0.585200 0.504910 0.586770 -0.605735
O11   O     O_R   0.414800 0.495090 0.413230 -0.605736
O12   O     O_2   0.350774 0.421741 0.147423 -0.509153
Zn1   Zn    Zn3+2 0.386190 0.493470 0.496090 1.065884
Zn2   Zn    Zn3+2 0.613810 0.506530 0.503910 1.065886

loop_
_geom_bond_atom_site_label_1
_geom_bond_atom_site_label_2
_ccdc_geom_bond_type
C1    C8    S    
C8    C11   T    
C26   C32   A    
C9    C10   D    
C22   O3    S    
Br1   C23   S    
C38   H3    S    
C15   C18   S    
C7    C13   T    
C39   H6    S    
C36   H8    S    
C25   C27   A    
C12   O7    A    
C21   C30   A    
C14   C19   S    
N3    Zn1   S    
Br9   C9    S    
C30   C33   A    
C39   C41   S    
C40   C42   A    
C31   C36   S    
C6    C34   A    
C37   H12   S    
O9    Zn2   S    
C29   C35   A    
O6    Zn2   S    
C38   C40   S    
C16   O10   A    
C31   C33   A    
O8    Zn1   S    
C18   N4    T    
C37   H13   S    
C42   C44   A    
Br7   C4    S    
Br3   C34   S    
C22   C25   A    
C17   O9    A    
C14   C15   D    
Br5   C2    S    
C1    O1    A    
C21   O2    S    
C23   C40   A    
O10   Zn2   S    
C16   O8    A    
C39   H4    S    
C36   H10   S    
C41   C43   A    
C32   C35   A    
C9    C13   S    
C27   C28   A    
C1    O6    A    
C16   C42   S    
Br8   C10   S    
C38   H14   S    
O1    Zn1   S    
Br10  C15   S    
C33   H1    S    
O11   Zn1   S    
C2    C4    A    
O5    Zn2   S    
C3    C5    A    
Br2   C14   S    
C4    C6    A    
C26   C28   A    
O7    Zn1   S    
C20   N1    A    
C34   C41   A    
C3    C44   A    
C38   H2    S    
C5    N2    S    
C24   N2    A    
Br4   C44   S    
C6    N1    S    
C2    C43   A    
C12   O5    A    
N4    Zn2   S    
C17   C43   S    
C22   N1    A    
C7    C12   S    
C39   H5    S    
C36   H9    S    
C21   N2    A    
C17   O11   A    
C27   C29   A    
Br6   C3    S    
C28   C30   A    
C35   H7    S    
C37   H11   S    
C20   C29   A    
C24   C26   A    
C32   C37   S    
C20   O12   S    
C25   C31   A    
C10   C11   S    
C5    C23   A    
C24   O4    S    
C19   N3    T    
