data_mof_unit_68476.cif
_audit_creation_date              2013-03-05T15:41:05-0500
_audit_creation_method            fapswitch 2.2
_symmetry_space_group_name_H-M    P1
_symmetry_Int_Tables_number       1
_space_group_crystal_system       triclinic
_cell_length_a                    8.248568
_cell_length_b                    14.361488
_cell_length_c                    15.101146
_cell_angle_alpha                 93.678802
_cell_angle_beta                  99.592483
_cell_angle_gamma                 91.330272
_cell_volume                      1759.21485046

loop_
_atom_site_label
_atom_site_type_symbol
_atom_site_description
_atom_site_fract_x
_atom_site_fract_y
_atom_site_fract_z
_atom_type_partial_charge
P1    P     P_3+3 0.947560 0.714050 0.560480 0.479674
O1    O     O_2   0.113690 0.728200 0.532750 -0.338164
O2    O     O_3   0.871900 0.612110 0.540440 -0.405612
O3    O     O_3   0.325660 0.668890 0.372600 -0.340207
O4    O     O_2   0.234911 0.829211 0.439098 -0.353687
O5    O     O_3   0.996154 0.739992 0.677063 -0.586872
O6    O     O_3   0.222497 0.827533 0.269215 -0.551144
C1    C     C_3   0.275800 0.924305 0.151550 -0.166399
H1    H     H_    0.148857 0.918609 0.112999 0.222860
H2    H     H_    0.283119 0.983672 0.202892 0.147028
P2    P     P_3+3 0.325150 0.423860 0.297970 0.508756
P3    P     P_3+3 0.869087 0.611098 0.212792 0.655535
O7    O     O_2   0.147570 0.451710 0.282630 -0.381618
O8    O     O_3   0.905540 0.621350 0.329600 -0.388538
O9    O     O_2   0.015105 0.562288 0.179821 -0.296707
O10   O     O_3   0.320854 0.303121 0.270081 -0.614156
O11   O     O_3   0.878997 0.724191 0.176011 -0.492193
C2    C     C_3   0.822764 0.787403 0.238492 0.753397
H3    H     H_    0.912194 0.794555 0.302641 0.014282
C3    C     C_3   0.804317 0.883682 0.200334 1.631479
C4    C     C_3   0.740005 0.328723 0.278568 0.137069
H4    H     H_    0.634678 0.350282 0.310617 0.079281
H5    H     H_    0.826778 0.389389 0.279694 0.101850
C5    C     C_3   0.675888 0.293020 0.181284 0.454320
H6    H     H_    0.613068 0.223414 0.179192 0.148163
H7    H     H_    0.585979 0.340851 0.148293 0.000083
Ba1   Ba    Ba6+2 0.142880 0.544780 0.454020 1.683906
C6    C     C_3   0.038928 0.659150 0.721379 0.106439
H8    H     H_    0.147014 0.628139 0.697883 0.096016
H9    H     H_    0.935442 0.607145 0.708968 0.157315
C7    C     C_3   0.079594 0.685570 0.822302 0.431577
H10   H     H_    0.201485 0.722641 0.838909 0.147862
H11   H     H_    0.985236 0.732005 0.843379 0.129657
C8    C     C_3   0.210374 0.253575 0.311865 0.729525
H12   H     H_    0.112620 0.297386 0.331873 0.051235
C9    C     C_3   0.128172 0.175055 0.245266 -0.727035
H13   H     H_    0.053673 0.204813 0.186521 0.297279
H14   H     H_    0.047353 0.129764 0.277675 0.249106
H15   H     H_    0.223680 0.132898 0.220106 0.243171
P4    P     P_3+3 0.862730 0.285940 0.439440 0.487686
O12   O     O_2   0.696600 0.271740 0.467230 -0.299809
O13   O     O_3   0.938380 0.387880 0.459490 -0.404996
O14   O     O_3   0.484630 0.331100 0.627330 -0.356917
O15   O     O_3   0.819793 0.256286 0.323463 -0.581432
P5    P     P_3+3 0.946206 0.372157 0.786181 0.575049
O16   O     O_3   0.389110 0.548970 0.605210 -0.385291
O17   O     O_3   0.904740 0.378630 0.670330 -0.391609
O18   O     O_2   0.829415 0.441690 0.822806 -0.253102
O19   O     O_3   0.877472 0.262665 0.811518 -0.492359
Ba2   Ba    Ba6+2 0.667290 0.455210 0.545900 1.654497
P6    P     P_3+3 0.337413 0.790983 0.369522 0.546343
C10   C     C_3   0.319208 0.835599 0.201203 0.607605
H16   H     H_    0.450614 0.844456 0.229029 0.084546
O20   O     O_3   0.421180 0.451020 0.394720 -0.359607
C11   C     C_3   0.552851 0.743965 0.684963 0.234403
H17   H     H_    0.644265 0.704659 0.652254 0.050419
H18   H     H_    0.451902 0.763259 0.631454 0.118888
C12   C     C_3   0.639617 0.833117 0.734621 -0.061252
H19   H     H_    0.767098 0.816907 0.765177 0.126767
H20   H     H_    0.649277 0.886702 0.685718 0.122220
P7    P     P_3+3 0.478576 0.573782 0.718318 0.473470
O21   O     O_2   0.662730 0.548230 0.717350 -0.366603
O22   O     O_3   0.484387 0.693354 0.747117 -0.544470
C13   C     C_3   0.993335 0.196162 0.795899 0.187380
H21   H     H_    0.003546 0.189497 0.723050 0.054624
H22   H     H_    0.115274 0.215505 0.837431 0.086288
C14   C     C_3   0.935798 0.101972 0.823874 -0.059583
H23   H     H_    0.817725 0.078306 0.779654 0.175885
H24   H     H_    0.912963 0.109385 0.894820 0.177345
P8    P     P_3+3 0.468015 0.211581 0.636951 0.597075
C15   C     C_3   0.495352 0.252008 0.806897 0.407646
H25   H     H_    0.358968 0.252392 0.793551 -0.041569
O23   O     O_2   0.586282 0.166733 0.578354 -0.312980
O24   O     O_3   0.554184 0.188197 0.746655 -0.478911
H26   H     H_    0.546701 0.323282 0.801700 0.125565
H27   H     H_    0.515690 0.277513 0.950908 0.226571
C16   C     C_3   0.550844 0.223800 0.902383 -0.614994
H28   H     H_    0.686925 0.219286 0.917184 0.279714
H29   H     H_    0.493368 0.154829 0.911310 0.279135
C17   C     C_R   0.013204 0.940406 0.547563 0.024305
C18   C     C_R   0.816971 0.804481 0.500073 0.182521
C19   C     C_R   0.661128 0.773776 0.454997 -0.375013
C20   C     C_R   0.548838 0.835559 0.413247 0.264692
C21   C     C_R   0.592872 0.930006 0.413541 -0.140430
C22   C     C_R   0.749826 0.964066 0.455729 0.086089
C23   C     C_R   0.861860 0.902165 0.501575 -0.084667
H30   H     H_    0.624187 0.701051 0.455405 0.160154
C24   C     C_R   0.944704 0.098485 0.500883 -0.070928
C25   C     C_R   0.056934 0.036563 0.547090 -0.078704
C26   C     C_R   0.987894 0.196679 0.505030 0.222486
C27   C     C_R   0.137325 0.228827 0.557471 -0.442873
C28   C     C_R   0.253545 0.167010 0.595765 0.131056
C29   C     C_R   0.212788 0.071462 0.592143 0.266665
C30   C     C_R   0.793062 0.059891 0.454063 -0.012237
H31   H     H_    0.504141 0.976752 0.381116 0.180730
H32   H     H_    0.169933 0.302568 0.561815 0.184879
H33   H     H_    0.097142 0.895422 0.585577 0.208512
H34   H     H_    0.705527 0.103992 0.417009 0.184767
C31   C     C_R   0.245673 0.452053 0.769035 -0.505553
C32   C     C_R   0.161118 0.410785 0.830021 0.160012
C33   C     C_R   0.233495 0.411066 0.922043 0.219767
C34   C     C_R   0.373496 0.471812 0.955323 0.012806
C35   C     C_R   0.439886 0.523518 0.891799 -0.121888
C36   C     C_R   0.386292 0.507373 0.799290 0.228369
C37   C     C_R   0.612437 0.521078 0.083045 0.169800
C38   C     C_R   0.669293 0.549241 0.174074 0.202252
C39   C     C_R   0.419295 0.485430 0.214337 0.250151
C40   C     C_R   0.350243 0.473681 0.122846 -0.074372
C41   C     C_R   0.445897 0.488297 0.054712 -0.035070
C42   C     C_R   0.574133 0.528755 0.239335 -0.437786
H35   H     H_    0.223039 0.450878 0.106847 0.208862
H36   H     H_    0.531621 0.578714 0.913146 0.187787
H37   H     H_    0.623921 0.542056 0.310063 0.170987
H38   H     H_    0.194668 0.447697 0.698021 0.166759
N1    N     N_R   0.290086 0.752556 0.138611 0.263530
O25   O     O_R   0.375121 0.679068 0.157885 -0.371380
O26   O     O_R   0.157634 0.744300 0.077143 -0.286116
F1    F     F_    0.804030 0.286643 0.133062 -0.635513
F2    F     F_    0.081893 0.606952 0.870318 -0.656675
N2    N     N_R   0.303048 0.217239 0.391801 0.188320
O27   O     O_R   0.380823 0.277345 0.452623 -0.355468
O28   O     O_R   0.328770 0.128564 0.397921 -0.456821
N3    N     N_R   0.388983 0.942528 0.089284 0.286647
O29   O     O_R   0.393154 0.884720 0.019691 -0.224763
O30   O     O_R   0.473555 0.021171 0.097804 -0.279448
N4    N     N_R   0.553191 0.870912 0.805792 0.323365
O31   O     O_R   0.392981 0.865489 0.795682 -0.248030
O32   O     O_R   0.637359 0.907439 0.881366 -0.253424
F3    F     F_    0.701405 0.937345 0.243969 -0.756770
N5    N     N_R   0.060071 0.032500 0.817065 0.250363
O33   O     O_R   0.186669 0.029687 0.881900 -0.275761
O34   O     O_R   0.032083 0.964818 0.753476 -0.392153
N6    N     N_R   0.331827 0.009931 0.633348 0.242253
O35   O     O_R   0.397302 0.949033 0.583808 -0.439051
O36   O     O_R   0.392138 0.024227 0.718306 -0.316211
N7    N     N_R   0.729780 0.510096 0.023628 0.236126
O37   O     O_R   0.819082 0.580710 0.006970 -0.273169
O38   O     O_R   0.739727 0.429164 0.981809 -0.327798
N8    N     N_R   0.173390 0.345313 0.977869 0.203053
O39   O     O_R   0.019403 0.342085 0.986645 -0.266935
O40   O     O_R   0.273340 0.288685 0.021628 -0.441294
F4    F     F_    0.672926 0.756076 0.256568 -0.766517
F5    F     F_    0.954771 0.930516 0.213030 -0.746731
F6    F     F_    0.740878 0.874407 0.109333 -0.606687

loop_
_geom_bond_atom_site_label_1
_geom_bond_atom_site_label_2
_geom_bond_distance
_ccdc_geom_bond_type
P3    C38   1.841535 S    
C11   H17   1.113245 S    
N4    O31   1.304682 A    
C17   H33   1.078043 S    
P2    O7    1.511697 D    
C3    F6    1.383353 S    
C3    F3    1.378540 S    
C31   H38   1.082012 S    
C18   C19   1.397783 A    
C33   N8    1.438041 S    
Ba1   O20   2.925516 S    
N3    O29   1.302415 A    
C16   H28   1.111634 S    
N2    O27   1.294792 A    
C33   C34   1.432053 A    
P5    O18   1.543541 D    
C20   C21   1.395557 A    
O7    Ba1   2.842288 S    
C9    H13   1.107436 S    
C5    H7    1.102040 S    
O6    C10   1.410200 S    
P1    O1    1.511193 D    
C29   N6    1.428078 S    
N3    O30   1.301413 A    
C30   H34   1.080583 S    
P1    C18   1.889083 S    
N1    O25   1.302433 A    
C40   C41   1.419794 A    
C8    H12   1.103485 S    
P2    O10   1.756080 S    
C17   C25   1.419938 A    
P7    O22   1.741755 S    
C32   C33   1.417811 A    
C17   C23   1.404498 A    
O10   C8    1.397891 S    
C27   H32   1.081736 S    
O5    C6    1.400116 S    
C31   C32   1.396710 A    
C1    H1    1.108501 S    
N1    O26   1.308131 A    
C11   O22   1.404761 S    
P3    O11   1.754379 S    
P8    O24   1.747156 S    
C39   C40   1.401826 A    
C7    H11   1.109612 S    
O1    Ba1   2.851908 S    
P5    O19   1.746026 S    
O8    Ba1   2.776922 S    
C1    C10   1.538727 S    
C8    C9    1.527924 S    
C18   C23   1.440380 A    
Ba1   Ba2   4.558297 S    
P4    O13   1.569111 S    
C31   C36   1.385402 A    
O19   C13   1.403490 S    
C4    H4    1.103767 S    
C3    F5    1.376488 S    
C34   C35   1.420968 A    
O2    Ba2   2.797561 S    
N2    O28   1.302492 A    
O17   Ba2   2.777623 S    
H27   C16   1.106687 S    
P5    O17   1.734711 S    
C4    H5    1.112101 S    
C8    N2    1.451078 S    
C24   C30   1.412256 A    
O3    P6    1.757886 S    
C14   H23   1.117465 S    
C13   C14   1.530975 S    
C2    F4    1.380897 S    
P7    C36   1.846717 S    
C5    H6    1.111414 S    
N7    O38   1.297690 A    
C27   C28   1.400789 A    
C2    H3    1.112957 S    
O16   P7    1.754606 S    
C12   H19   1.111887 S    
C22   C23   1.423909 A    
C9    H15   1.106314 S    
P1    O5    1.752909 S    
C35   H36   1.078380 S    
P1    O2    1.569131 S    
C21   H31   1.082453 S    
C13   H22   1.112046 S    
N5    O34   1.310015 A    
C4    O15   1.395921 S    
C22   C30   1.416450 A    
C7    H10   1.109588 S    
P3    O9    1.544096 D    
P2    Ba1   3.406801 S    
P8    O23   1.547011 D    
O11   C2    1.408914 S    
C16   H29   1.113875 S    
O14   Ba2   2.780870 S    
Ba2   O20   2.787272 S    
C21   C22   1.406052 A    
C42   H37   1.081630 S    
C7    F2    1.379271 S    
P2    O20   1.562379 S    
O13   Ba2   2.923843 S    
C37   N7    1.430105 S    
Ba1   O16   2.787962 S    
P4    O12   1.511685 D    
C24   C26   1.441340 A    
C12   N4    1.468471 S    
O14   P8    1.736048 S    
C11   H18   1.112771 S    
P2    C39   1.848862 S    
N6    O35   1.299564 A    
Ba2   O21   2.842601 S    
C39   C42   1.390373 A    
C11   C12   1.539238 S    
C14   N5    1.458161 S    
P6    C20   1.843183 S    
O12   Ba2   2.852391 S    
C15   C16   1.521993 S    
O3    Ba1   2.781380 S    
C10   H16   1.096615 S    
N6    O36   1.297844 A    
C38   C42   1.399351 A    
C10   N1    1.462820 S    
C14   H24   1.117229 S    
C37   C41   1.428296 A    
C6    H8    1.105763 S    
N4    O32   1.304541 A    
C6    C7    1.526022 S    
P8    C28   1.858987 S    
P3    O8    1.735346 S    
N7    O37   1.301595 A    
P5    C32   1.845163 S    
C15   O24   1.401317 S    
N8    O39   1.298929 A    
C1    N3    1.461863 S    
C37   C38   1.406473 A    
O16   Ba2   2.924738 S    
C5    F1    1.381433 S    
C40   H35   1.075147 S    
C13   H21   1.115440 S    
O2    Ba1   2.923157 S    
N5    O33   1.310338 A    
O6    P6    1.764972 S    
C15   H25   1.109546 S    
C15   H26   1.111114 S    
N8    O40   1.302420 A    
Ba1   O13   2.797053 S    
C26   C27   1.400333 A    
P4    Ba2   3.411346 S    
C9    H14   1.111967 S    
C28   C29   1.400648 A    
C6    H9    1.104857 S    
C2    C3    1.532938 S    
C25   C29   1.414771 A    
P7    O21   1.573171 D    
P4    O15   1.750635 S    
C24   C25   1.427335 A    
C1    H2    1.108543 S    
C19   C20   1.399290 A    
C4    C5    1.527315 S    
C35   C36   1.395936 A    
P1    Ba1   3.410784 S    
O4    P6    1.537458 D    
C34   C41   1.521337 S    
P4    C26   1.890463 S    
C12   H20   1.110681 S    
C19   H30   1.081868 S    
