data_mof_unit_36048.cif
_audit_creation_date              2012-12-10T17:52:25-0500
_audit_creation_method            fapswitch 2.2
_symmetry_space_group_name_H-M    P1
_symmetry_Int_Tables_number       1
_space_group_crystal_system       triclinic
_cell_length_a                    19.149235
_cell_length_b                    10.629836
_cell_length_c                    9.913862
_cell_angle_alpha                 89.945292
_cell_angle_beta                  89.94451
_cell_angle_gamma                 91.751966
_cell_volume                      2017.05335473

loop_
_atom_site_label
_atom_site_type_symbol
_atom_type_description
_atom_site_fract_x
_atom_site_fract_y
_atom_site_fract_z
_atom_type_partial_charge
C1    C     C_R   0.501781 0.260726 0.500082 0.853246
C2    C     C_R   0.852812 0.440235 0.496389 0.093397
C3    C     C_R   0.618893 0.137753 0.624328 -0.173577
C4    C     C_R   0.365479 0.497319 0.500095 0.875122
C5    C     C_R   0.673715 0.075171 0.684543 -0.126806
C6    C     C_R   0.673778 0.944257 0.684553 -0.131303
C7    C     C_R   0.619073 0.875486 0.624173 -0.191505
C8    C     C_R   0.562654 0.937542 0.563864 0.094833
C9    C     C_R   0.562541 0.069439 0.564010 0.099038
C10   C     C_R   0.506610 0.128717 0.499848 -0.088373
C11   C     C_R   0.453881 0.061740 0.432318 -0.211853
C12   C     C_R   0.289674 0.482090 0.500126 -0.106998
C13   C     C_R   0.454017 0.933219 0.432115 -0.191823
C14   C     C_R   0.506864 0.872058 0.499469 -0.103323
C15   C     C_R   0.408021 0.335461 0.140361 -0.167728
C16   C     C_R   0.502115 0.739469 0.499904 0.877222
C17   C     C_R   0.362496 0.254800 0.070328 -0.186006
C18   C     C_R   0.362468 0.254825 0.930705 -0.161590
C19   C     C_R   0.408005 0.335440 0.860290 -0.160065
C20   C     C_R   0.454669 0.418916 0.927853 0.169052
C21   C     C_R   0.454676 0.418952 0.072450 0.174726
C22   C     C_R   0.543431 0.577447 0.071323 -0.113273
C23   C     C_R   0.928571 0.429655 0.491496 0.288216
C24   C     C_R   0.543417 0.577422 0.928208 -0.113001
C25   C     C_R   0.634445 0.498032 0.499907 0.840852
C26   C     C_R   0.253212 0.472352 0.622532 -0.238627
C27   C     C_R   0.181167 0.452276 0.623351 0.413598
C28   C     C_R   0.145133 0.441219 0.499681 -0.011598
C29   C     C_R   0.181913 0.450379 0.377670 -0.200895
C30   C     C_R   0.253649 0.470552 0.377733 -0.190363
C31   C     C_R   0.069297 0.430874 0.493775 0.328673
C32   C     C_R   0.815657 0.432551 0.619245 0.121151
C33   C     C_R   0.744224 0.454036 0.619761 -0.270569
C34   C     C_R   0.709693 0.482798 0.499613 -0.046231
C35   C     C_R   0.746736 0.489326 0.378012 -0.185528
C36   C     C_R   0.817698 0.468298 0.376515 -0.202680
Cl1   Cl    Cl    0.138736 0.450048 0.781298 -0.598519
H1    H     H_    0.280509 0.480933 0.717924 0.192464
H2    H     H_    0.327021 0.191830 0.876413 0.163926
H3    H     H_    0.405068 0.329447 0.753329 0.202648
H4    H     H_    0.578878 0.640737 0.874275 0.144520
H5    H     H_    0.154973 0.442352 0.281830 0.184852
H6    H     H_    0.280762 0.476586 0.281890 0.179916
H7    H     H_    0.715946 0.447445 0.714375 0.156913
H8    H     H_    0.720964 0.510532 0.283825 0.159954
H9    H     H_    0.845269 0.474481 0.281137 0.160951
H10   H     H_    0.411781 0.109234 0.382192 0.141597
H11   H     H_    0.826451 0.326626 0.786676 0.182497
H12   H     H_    0.621794 0.239398 0.623867 0.152150
H13   H     H_    0.842373 0.482481 0.809333 0.191862
H14   H     H_    0.716592 0.128479 0.730133 0.137331
H15   H     H_    0.716698 0.895818 0.730230 0.141365
H16   H     H_    0.622127 0.774088 0.623464 0.142486
H17   H     H_    0.412005 0.881038 0.381890 0.158312
H18   H     H_    0.578921 0.640748 0.124911 0.146485
H19   H     H_    0.405050 0.329499 0.247312 0.198349
H20   H     H_    0.327093 0.191761 0.124934 0.155976
N1    N     N_R   0.034970 0.494995 0.397621 -0.161935
N2    N     N_R   0.965766 0.494472 0.396582 -0.172445
N3    N     N_R   0.962902 0.361882 0.584882 -0.121002
N4    N     N_R   0.032237 0.362343 0.585909 -0.095548
N5    N     N_R   0.499340 0.498800 0.142780 -0.120550
N6    N     N_R   0.499320 0.498720 0.857170 -0.120511
N7    N     N_3   0.850255 0.407076 0.743965 -0.428748
O1    O     O_R   0.500000 0.316780 0.614690 -0.640344
O2    O     O_R   0.499990 0.316750 0.385360 -0.627710
O3    O     O_R   0.398140 0.500000 0.614700 -0.632808
O4    O     O_R   0.398130 0.499970 0.385370 -0.637725
O5    O     O_R   0.500010 0.683250 0.614640 -0.610245
O6    O     O_R   0.500000 0.683220 0.385310 -0.609115
O7    O     O_R   0.601870 0.500030 0.614630 -0.633880
O8    O     O_R   0.601860 0.500000 0.385300 -0.615069
Zn1   Zn    Zn3+2 0.500000 0.500020 0.653130 0.934361
Zn2   Zn    Zn3+2 0.500000 0.499980 0.346870 0.941826

loop_
_geom_bond_atom_site_label_1
_geom_bond_atom_site_label_2
_ccdc_geom_bond_type
C29   H5    S    
H13   N7    S    
C31   N4    A    
C11   H10   S    
C35   C36   A    
C3    H12   S    
C7    C8    A    
C23   N2    A    
C26   C27   A    
C31   N1    A    
C28   C29   A    
C18   C19   A    
C5    C6    A    
H11   N7    S    
O4    Zn2   S    
O2    Zn2   S    
O1    Zn1   S    
C2    C32   A    
C34   C35   A    
C19   C20   A    
C8    C9    A    
O6    Zn2   S    
C1    O1    A    
O5    Zn1   S    
C25   O7    A    
C4    C12   S    
C9    C10   A    
C25   C34   S    
C13   C14   A    
C24   H4    S    
C33   C34   A    
C23   N3    A    
C1    C10   S    
C16   O6    A    
C32   N7    S    
O8    Zn2   S    
C10   C11   A    
O7    Zn1   S    
C26   H1    S    
N6    Zn1   S    
N1    N2    A    
C12   C26   A    
N3    N4    A    
C1    O2    A    
C18   H2    S    
C29   C30   A    
C3    C9    A    
C22   N5    A    
C17   C18   A    
C25   O8    A    
C36   H9    S    
C21   N5    A    
C6    C7    A    
O3    Zn1   S    
C24   N6    A    
C14   C16   S    
C30   H6    S    
C7    H16   S    
C35   H8    S    
C2    C23   S    
C4    O4    A    
C13   H17   S    
C2    C36   A    
C15   C17   A    
C8    C14   A    
C12   C30   A    
C33   H7    S    
C28   C31   S    
N5    Zn2   S    
C16   O5    A    
C3    C5    A    
C4    O3    A    
C22   H18   S    
C15   H19   S    
C20   N6    A    
C32   C33   A    
C11   C13   A    
C27   Cl1   S    
C22   C24   A    
C19   H3    S    
C15   C21   A    
C20   C21   A    
C27   C28   A    
C5    H14   S    
C6    H15   S    
C17   H20   S    
