data_mof_unit_19973.cif
_audit_creation_date              2012-12-10T20:45:32-0500
_audit_creation_method            fapswitch 2.2
_symmetry_space_group_name_H-M    P1
_symmetry_Int_Tables_number       1
_space_group_crystal_system       triclinic
_cell_length_a                    10.663269
_cell_length_b                    10.763786
_cell_length_c                    9.960686
_cell_angle_alpha                 90.463959
_cell_angle_beta                  92.202265
_cell_angle_gamma                 91.269113
_cell_volume                      1142.08863202

loop_
_atom_site_label
_atom_site_type_symbol
_atom_type_description
_atom_site_fract_x
_atom_site_fract_y
_atom_site_fract_z
_atom_type_partial_charge
C1    C     C_R   0.504386 0.260191 0.499101 0.947079
C2    C     C_R   0.233826 0.770694 0.075805 -0.030535
C3    C     C_R   0.933667 0.530846 0.382994 -0.263331
C4    C     C_R   0.876640 0.527431 0.507206 -0.135972
C5    C     C_R   0.946850 0.568159 0.624783 -0.164200
C6    C     C_R   0.076066 0.594282 0.614587 0.373468
C7    C     C_R   0.131739 0.558734 0.495971 -0.175980
C8    C     C_R   0.059108 0.560259 0.376973 -0.034061
C9    C     C_R   0.834975 0.691869 0.794115 -0.042758
C10   C     C_R   0.813846 0.715750 0.929383 -0.134503
C11   C     C_R   0.836390 0.624883 0.025492 -0.101049
C12   C     C_R   0.262329 0.520447 0.498186 0.979083
C13   C     C_R   0.883148 0.510125 0.987638 -0.146972
C14   C     C_R   0.913862 0.489195 0.854465 -0.128487
C15   C     C_R   0.891747 0.580847 0.757496 0.219713
C16   C     C_R   0.524008 0.064469 0.616547 0.085804
C17   C     C_R   0.525146 0.128946 0.497554 -0.033417
C18   C     C_R   0.555191 0.064433 0.380461 -0.128926
C19   C     C_R   0.556716 0.934769 0.382051 -0.167806
C20   C     C_R   0.536526 0.871456 0.503168 -0.074020
C21   C     C_R   0.543630 0.939847 0.623490 -0.030717
C22   C     C_3   0.475143 0.932768 0.753045 -0.192572
C23   C     C_R   0.508673 0.739885 0.500995 0.901830
C24   C     C_3   0.441937 0.068189 0.733521 -0.283046
C25   C     C_R   0.473816 0.392980 0.069516 0.102091
C26   C     C_R   0.536947 0.602100 0.073851 -0.120916
C27   C     C_R   0.537505 0.601414 0.930671 -0.046434
C28   C     C_R   0.465743 0.395875 0.927117 0.190073
C29   C     C_3   0.337290 0.336322 0.926810 -0.580492
C30   C     C_3   0.355967 0.317841 0.076881 -0.236231
C31   C     C_R   0.741481 0.504729 0.502919 0.864367
C32   C     C_R   0.167409 0.833929 0.171725 -0.094320
C33   C     C_R   0.099309 0.767434 0.266802 0.021731
C34   C     C_R   0.101159 0.635600 0.263986 0.031659
C35   C     C_R   0.152252 0.575278 0.156406 -0.147074
C36   C     C_R   0.224092 0.641487 0.067228 -0.038615
H1    H     H_    0.288473 0.822028 0.004820 0.207635
H2    H     H_    0.816452 0.644534 0.128803 0.122015
H3    H     H_    0.900108 0.439189 0.062043 0.133268
H4    H     H_    0.958073 0.403319 0.827572 0.125591
H5    H     H_    0.569037 0.112406 0.287107 0.159527
H6    H     H_    0.565741 0.885103 0.288051 0.184910
H7    H     H_    0.395134 0.865785 0.751493 0.261967
H8    H     H_    0.480357 0.132716 0.813059 0.131161
H9    H     H_    0.565543 0.685637 0.128726 0.179013
H10   H     H_    0.169539 0.934423 0.171712 0.222775
H11   H     H_    0.566674 0.682893 0.878002 0.173198
H12   H     H_    0.261675 0.401870 0.899817 0.219465
H13   H     H_    0.327518 0.249840 0.869467 0.184952
H14   H     H_    0.287257 0.360778 0.140480 0.201340
H15   H     H_    0.137000 0.476742 0.144689 0.130576
H16   H     H_    0.273427 0.591562 0.993315 0.179909
H17   H     H_    0.880049 0.518499 0.289845 0.174225
H18   H     H_    0.818777 0.763991 0.720620 0.108515
H19   H     H_    0.780742 0.804667 0.961107 0.137824
N1    N     N_R   0.499160 0.499140 0.142800 -0.123366
N2    N     N_R   0.499160 0.499180 0.857150 -0.099679
O1    O     O_R   0.500020 0.316790 0.614690 -0.623127
O2    O     O_R   0.500000 0.316760 0.385350 -0.614320
O3    O     O_R   0.316770 0.500030 0.614670 -0.556667
O4    O     O_R   0.316750 0.499990 0.385330 -0.615167
O5    O     O_R   0.500000 0.683240 0.614650 -0.606208
O6    O     O_R   0.499980 0.683210 0.385310 -0.638370
O7    O     O_R   0.683250 0.500010 0.614670 -0.632479
O8    O     O_R   0.683230 0.499970 0.385330 -0.633542
Zn1   Zn    Zn3+2 0.500010 0.500020 0.653130 1.001259
Zn2   Zn    Zn3+2 0.499990 0.499980 0.346870 0.959673
C37   C     C_2   0.563441 0.922659 0.873307 0.294341
H20   H     H_    0.661676 0.948516 0.865113 0.087095
O9    O     O_2   0.523587 0.895922 0.982771 -0.636615
C38   C     C_2   0.303480 0.080843 0.698430 0.474001
H21   H     H_    0.235780 0.054534 0.772306 0.076999
O10   O     O_2   0.265947 0.121025 0.590207 -0.521291
C39   C     C_2   0.379306 0.185157 0.113569 0.436758
H22   H     H_    0.450641 0.133093 0.064196 0.082668
O11   O     O_2   0.317415 0.134815 0.199017 -0.538750
C40   C     C_2   0.022535 0.835707 0.362802 0.420343
H23   H     H_    0.965265 0.786017 0.433065 0.066889
O12   O     O_2   0.021098 0.949146 0.363785 -0.541971
S1    S     S_3+6 0.155614 0.714935 0.710936 -0.055674
O13   O     O_2   0.078498 0.770824 0.817685 -0.357633
O14   O     O_2   0.274259 0.669599 0.776384 -0.328395
O15   O     O_3   0.195503 0.827178 0.603557 -0.587435
H24   H     H_    0.130376 0.890596 0.611876 0.388328

loop_
_geom_bond_atom_site_label_1
_geom_bond_atom_site_label_2
_ccdc_geom_bond_type
C16   C21   A    
C11   C13   A    
C35   C36   A    
C25   N1    A    
N2    Zn1   S    
C7    C8    A    
C29   H13   S    
C40   H23   S    
C25   C28   A    
C26   C27   A    
C39   O11   D    
O15   H24   S    
C28   C29   S    
C18   C19   A    
C1    O2    A    
C5    C6    A    
C30   C39   S    
C27   H11   S    
C2    C32   A    
C34   C35   A    
C26   H9    S    
O2    Zn2   S    
O1    Zn1   S    
C23   O5    A    
C19   C20   A    
C37   H20   S    
O8    Zn2   S    
C9    C10   A    
C36   H16   S    
C19   H6    S    
C23   O6    A    
C30   H14   S    
O3    Zn1   S    
C16   C24   S    
C21   C22   S    
S1    O15   S    
C33   C34   A    
C40   O12   D    
C7    C12   S    
O6    Zn2   S    
C5    C15   S    
C39   H22   S    
O5    Zn1   S    
C29   H12   S    
S1    O14   D    
C3    C8    A    
C27   N2    A    
C18   H5    S    
C38   O10   D    
C16   C17   A    
C28   N2    A    
O7    Zn1   S    
C11   H2    S    
C29   C30   S    
O4    Zn2   S    
C6    S1    S    
C22   H7    S    
C20   C23   S    
C17   C18   A    
C8    C34   S    
C10   H19   S    
C22   C37   S    
C35   H15   S    
C24   H8    S    
C22   C24   S    
C3    C4    A    
C2    C36   A    
C25   C30   S    
C31   O8    A    
C32   H10   S    
C31   O7    A    
S1    O13   D    
C26   N1    A    
C6    C7    A    
N1    Zn2   S    
C1    C17   S    
C32   C33   A    
C9    C15   A    
C38   H21   S    
C1    O1    A    
C12   O4    A    
C3    H17   S    
C2    H1    S    
C33   C40   S    
C13   H3    S    
C4    C31   S    
C10   C11   A    
C14   H4    S    
C12   O3    A    
C4    C5    A    
C20   C21   A    
C37   O9    D    
C14   C15   A    
C9    H18   S    
C13   C14   A    
C24   C38   S    
