data_mof_unit_52308.cif
_audit_creation_date              2012-12-10T16:52:36-0500
_audit_creation_method            fapswitch 2.2
_symmetry_space_group_name_H-M    P1
_symmetry_Int_Tables_number       1
_space_group_crystal_system       triclinic
_cell_length_a                    7.822084
_cell_length_b                    8.565236
_cell_length_c                    13.679223
_cell_angle_alpha                 93.012109
_cell_angle_beta                  93.729166
_cell_angle_gamma                 94.144432
_cell_volume                      910.638349408

loop_
_atom_site_label
_atom_site_type_symbol
_atom_type_description
_atom_site_fract_x
_atom_site_fract_y
_atom_site_fract_z
_atom_type_partial_charge
C1    C     C_R   0.045211 0.794733 0.497681 0.958732
C2    C     C_R   0.936880 0.495547 0.317279 0.850036
C3    C     C_R   0.105612 0.564062 0.784676 -0.155795
C4    C     C_R   0.910245 0.505746 0.210555 -0.136540
C5    C     C_R   0.127619 0.786413 0.902454 -0.180470
C6    C     C_R   0.978571 0.409206 0.049372 -0.189244
C7    C     C_R   0.042495 0.702886 0.821494 -0.186192
C8    C     C_R   0.017932 0.427213 0.149833 -0.154404
C9    C     C_R   0.243952 0.500974 0.834094 -0.070963
C10   C     C_R   0.773203 0.585356 0.168898 -0.089698
C11   C     C_R   0.350077 0.600276 0.902042 0.084893
C12   C     C_R   0.954841 0.205287 0.502519 0.962980
C13   C     C_R   0.738082 0.573650 0.065567 0.062411
C14   C     C_R   0.285006 0.739609 0.940645 0.130944
C15   C     C_R   0.833184 0.472652 0.007956 0.142391
C16   C     C_R   0.519658 0.568045 0.931460 0.082723
C17   C     C_R   0.598151 0.642983 0.018541 0.065840
C18   C     C_2   0.656826 0.662677 0.234831 0.412567
C19   C     C_2   0.260666 0.328841 0.820289 0.318246
C20   C     C_R   0.535739 0.784461 0.053522 -0.157981
C21   C     C_R   0.617806 0.472211 0.873797 -0.131389
C22   C     C_R   0.381393 0.833055 0.014104 -0.172577
C23   C     C_R   0.776340 0.429679 0.910718 -0.201764
C24   C     C_2   0.068794 0.958435 0.496477 -0.380036
C25   C     C_2   0.931317 0.041593 0.503992 -0.397472
C26   C     C_R   0.064690 0.514646 0.682294 0.838046
H1    H     H_    0.336163 0.942222 0.042199 0.163787
H2    H     H_    0.801794 0.990093 0.511106 0.181382
H3    H     H_    0.486943 0.374623 0.427491 0.201905
H4    H     H_    0.513071 0.625393 0.572508 0.186472
H5    H     H_    0.709152 0.752601 0.289755 0.062987
H6    H     H_    0.205528 0.263767 0.754127 0.077236
H7    H     H_    0.848297 0.353975 0.865564 0.141791
H8    H     H_    0.125736 0.369243 0.180859 0.182348
H9    H     H_    0.933628 0.751315 0.784230 0.161222
H10   H     H_    0.077836 0.893820 0.930033 0.150656
H11   H     H_    0.055801 0.337415 0.005006 0.176084
H12   H     H_    0.607800 0.860339 0.109722 0.134548
H13   H     H_    0.574104 0.431919 0.799471 0.154446
H14   H     H_    0.198321 0.009928 0.489379 0.182580
N1    N     N_2   0.440860 0.456490 0.474790 -0.153015
N2    N     N_2   0.559140 0.543510 0.525210 -0.171373
O1    O     O_R   0.891570 0.738930 0.506190 -0.619918
O2    O     O_2   0.326512 0.256069 0.885379 -0.579540
O3    O     O_R   0.108430 0.261070 0.493810 -0.613903
O4    O     O_R   0.174650 0.711050 0.490030 -0.612464
O5    O     O_R   0.825350 0.288950 0.509970 -0.624601
O6    O     O_R   0.909850 0.521900 0.644940 -0.612892
O7    O     O_R   0.090150 0.478100 0.355060 -0.586263
O8    O     O_R   0.192930 0.494020 0.628780 -0.624204
O9    O     O_R   0.807070 0.505980 0.371220 -0.612397
O10   O     O_2   0.503730 0.620989 0.231043 -0.553628
Zn1   Zn    Zn3+2 0.810990 0.518620 0.510790 0.939101
Zn2   Zn    Zn3+2 0.189010 0.481380 0.489210 0.962366

loop_
_geom_bond_atom_site_label_1
_geom_bond_atom_site_label_2
_ccdc_geom_bond_type
C2    C4    S    
C16   C21   A    
C3    C9    A    
C2    O7    A    
C26   O6    A    
C20   H12   S    
N1    N2    D    
C21   H13   S    
C13   C17   A    
C12   C25   S    
C4    C8    A    
C14   C22   A    
C26   O8    A    
C15   C23   A    
C6    H11   S    
C18   O10   D    
N2    Zn1   S    
C8    H8    S    
C24   C25   D    
C25   H2    S    
C9    C11   A    
O4    Zn2   S    
C5    C14   A    
O8    Zn2   S    
C10   C18   S    
C12   O5    A    
O5    Zn1   S    
C24   H14   S    
O1    Zn1   S    
C20   C22   A    
O3    Zn2   S    
C3    C7    A    
C22   H1    S    
C13   C15   A    
C21   C23   A    
O6    Zn1   S    
N1    Zn2   S    
C11   C14   A    
C1    O4    A    
C16   C17   A    
C2    O9    A    
C19   H6    S    
C4    C10   A    
O7    Zn2   S    
C5    H10   S    
C17   C20   A    
C19   O2    D    
C1    C24   S    
C23   H7    S    
C9    C19   S    
C11   C16   A    
C5    C7    A    
H4    N2    S    
C6    C8    A    
C18   H5    S    
H3    N1    S    
C6    C15   A    
C7    H9    S    
C1    O1    A    
C3    C26   S    
C12   O3    A    
O9    Zn1   S    
C10   C13   A    
