data_mof_unit_64671.cif
_audit_creation_date              2012-10-26T18:46:47-0400
_audit_creation_method            fapswitch 2.2
_symmetry_space_group_name_H-M    P1
_symmetry_Int_Tables_number       1
_space_group_crystal_system       triclinic
_cell_length_a                    16.446184
_cell_length_b                    17.10047
_cell_length_c                    17.727826
_cell_angle_alpha                 89.424719
_cell_angle_beta                  89.938594
_cell_angle_gamma                 94.260331
_cell_volume                      4971.69363183

loop_
_atom_site_label
_atom_site_type_symbol
_atom_type_description
_atom_site_fract_x
_atom_site_fract_y
_atom_site_fract_z
_atom_type_partial_charge
C1    C     C_R   0.500111 0.502081 0.644559 0.598117
C2    C     C_R   0.445690 0.541318 0.847549 -0.117588
C3    C     C_R   0.498255 0.502411 0.114572 -0.015876
C4    C     C_R   0.501742 0.497586 0.885428 -0.015875
C5    C     C_1   0.499353 0.500923 0.033802 0.085709
C6    C     C_1   0.500643 0.499073 0.966198 0.085709
C7    C     C_R   0.174067 0.548327 0.453528 -0.142267
C8    C     C_R   0.825933 0.451673 0.546471 -0.142267
C9    C     C_R   0.259660 0.548314 0.453025 0.046261
C10   C     C_R   0.740340 0.451685 0.546975 0.046261
C11   C     C_R   0.254725 0.450680 0.548322 0.067342
C12   C     C_R   0.499889 0.497919 0.355441 0.598117
C13   C     C_R   0.745275 0.549320 0.451679 0.067342
C14   C     C_R   0.168234 0.448311 0.551633 0.034744
C15   C     C_R   0.831766 0.551689 0.448367 0.034744
C16   C     C_R   0.489679 0.348980 0.498152 0.600435
C17   C     C_R   0.510321 0.651020 0.501848 0.600435
C18   C     C_R   0.126833 0.498481 0.502759 0.003006
C19   C     C_R   0.873167 0.501519 0.497241 0.003006
C20   C     C_1   0.037225 0.499548 0.500801 0.103888
C21   C     C_1   0.962774 0.500452 0.499199 0.103888
C22   C     C_R   0.483477 0.263235 0.493582 -0.000785
C23   C     C_R   0.442800 0.539199 0.234345 -0.151532
C24   C     C_R   0.516523 0.736765 0.506418 -0.000786
C25   C     C_R   0.542147 0.222494 0.531656 -0.175374
C26   C     C_R   0.457852 0.777506 0.468345 -0.175374
C27   C     C_R   0.538720 0.141186 0.530542 -0.079091
C28   C     C_R   0.461279 0.858814 0.469459 -0.079091
C29   C     C_R   0.475936 0.098713 0.491064 0.206111
C30   C     C_R   0.524064 0.901287 0.508937 0.206111
C31   C     C_R   0.416897 0.139005 0.453690 -0.093946
C32   C     C_R   0.583103 0.860995 0.546311 -0.093946
C33   C     C_R   0.420483 0.221126 0.452933 0.033025
C34   C     C_R   0.557198 0.460799 0.765655 -0.151532
C35   C     C_R   0.579517 0.778874 0.547068 0.033025
C36   C     C_R   0.441225 0.543442 0.155362 0.055122
C37   C     C_R   0.558772 0.456554 0.844638 0.055122
C38   C     C_2   0.124338 0.393299 0.606408 0.584508
C39   C     C_2   0.875662 0.606702 0.393593 0.584508
C40   C     C_2   0.361061 0.260222 0.405277 0.598113
C41   C     C_2   0.638940 0.739778 0.594722 0.598113
C42   C     C_2   0.379746 0.591244 0.118472 0.595186
C43   C     C_2   0.620248 0.408750 0.881528 0.595183
C44   C     C_2   0.610765 0.400305 0.267681 0.601744
C45   C     C_R   0.499334 0.495796 0.272631 -0.022135
C46   C     C_2   0.389236 0.599697 0.732319 0.601742
C47   C     C_R   0.500665 0.504203 0.727369 -0.022134
C48   C     C_R   0.554940 0.453643 0.231241 0.043870
C49   C     C_R   0.445060 0.546357 0.768759 0.043869
C50   C     C_R   0.554309 0.458680 0.152451 -0.117589
Cu1   Cu    Cu3+1 0.419580 0.500000 0.500020 1.013220
Cu2   Cu    Cu3+1 0.580420 0.500000 0.499980 1.013220
H1    H     H_    0.409400 0.746251 0.436914 0.132131
H2    H     H_    0.630437 0.894176 0.577522 0.159879
H3    H     H_    0.400783 0.571443 0.266815 0.165598
H4    H     H_    0.599215 0.428554 0.733185 0.165593
H5    H     H_    0.596229 0.426142 0.120027 0.189635
H6    H     H_    0.403770 0.573857 0.879973 0.189638
H7    H     H_    0.144781 0.587281 0.415323 0.145277
H8    H     H_    0.855219 0.412718 0.584676 0.145277
H9    H     H_    0.019980 0.358823 0.661443 0.354352
H10   H     H_    0.980020 0.641179 0.338559 0.354352
H11   H     H_    0.340389 0.347468 0.331812 0.345503
H12   H     H_    0.590599 0.253749 0.563087 0.132130
H13   H     H_    0.659613 0.652530 0.668186 0.345504
H14   H     H_    0.278961 0.650711 0.130513 0.358874
H15   H     H_    0.721039 0.349289 0.869490 0.358874
H16   H     H_    0.628368 0.321023 0.350099 0.343434
H17   H     H_    0.371636 0.678980 0.649902 0.343433
H18   H     H_    0.294847 0.587220 0.414766 0.129241
H19   H     H_    0.705153 0.412780 0.585233 0.129240
H20   H     H_    0.287454 0.413150 0.585115 0.164782
H21   H     H_    0.712546 0.586850 0.414885 0.164783
H22   H     H_    0.414844 0.888069 0.439278 0.156738
H23   H     H_    0.585155 0.111931 0.560724 0.156738
H24   H     H_    0.369563 0.105824 0.422479 0.159879
N1    N     N_2   0.470301 0.015760 0.486339 -0.230916
N2    N     N_2   0.529698 0.984240 0.513662 -0.230916
N3    N     N_R   0.298780 0.499980 0.500030 -0.241697
N4    N     N_R   0.701220 0.500020 0.499970 -0.241697
O1    O     O_R   0.432070 0.499990 0.608760 -0.483557
O2    O     O_R   0.042064 0.399677 0.623362 -0.698050
O3    O     O_2   0.839229 0.657714 0.362258 -0.495401
O4    O     O_R   0.957936 0.600325 0.376640 -0.698051
O5    O     O_2   0.290446 0.232585 0.401410 -0.495143
O6    O     O_R   0.386365 0.326620 0.362293 -0.646909
O7    O     O_2   0.709555 0.767415 0.598589 -0.495143
O8    O     O_R   0.613637 0.673380 0.637706 -0.646909
O9    O     O_2   0.384035 0.607374 0.051177 -0.506737
O10   O     O_R   0.316667 0.618828 0.161482 -0.697581
O11   O     O_2   0.615950 0.392608 0.948820 -0.506735
O12   O     O_R   0.567930 0.500010 0.391240 -0.483556
O13   O     O_R   0.683336 0.381176 0.838522 -0.697577
O14   O     O_2   0.678411 0.393568 0.240851 -0.491072
O15   O     O_R   0.585064 0.355379 0.330818 -0.650147
O16   O     O_2   0.321590 0.606435 0.759149 -0.491070
O17   O     O_R   0.414939 0.644623 0.669182 -0.650148
O18   O     O_R   0.567880 0.500000 0.608730 -0.496962
O19   O     O_R   0.432120 0.500000 0.391270 -0.496963
O20   O     O_R   0.424660 0.386070 0.500710 -0.482459
O21   O     O_R   0.575340 0.613930 0.499290 -0.482460
O22   O     O_R   0.560480 0.386080 0.500680 -0.500616
O23   O     O_R   0.439520 0.613920 0.499320 -0.500616
O24   O     O_2   0.160770 0.342287 0.637744 -0.495401

loop_
_geom_bond_atom_site_label_1
_geom_bond_atom_site_label_2
_ccdc_geom_bond_type
C34   H4    S    
C23   C45   A    
C27   C29   A    
C34   C37   A    
C14   C18   A    
C36   C42   S    
C28   H22   S    
C24   C35   A    
H14   O10   S    
N1    N2    D    
C15   C19   A    
C46   C49   S    
Cu2   O22   S    
C19   C21   S    
C24   C26   A    
C39   O4    S    
H9    O2    S    
C5    C6    T    
C11   C14   A    
C1    O1    A    
C9    N3    A    
C40   O6    S    
C41   O8    S    
C17   O21   A    
C12   O19   A    
C38   O24   D    
C22   C25   A    
C31   C33   A    
Cu1   O1    S    
C10   H19   S    
C48   C50   A    
C13   N4    A    
C38   O2    S    
C27   H23   S    
C7    H7    S    
C3    C50   A    
C8    C19   A    
Cu1   O19   S    
C41   O7    D    
Cu2   O21   S    
C17   C24   S    
Cu1   Cu2   S    
H16   O15   S    
C32   C35   A    
C9    H18   S    
C4    C6    S    
C10   N4    A    
C11   H20   S    
C1    C47   S    
C43   O11   D    
C42   O10   S    
C25   H12   S    
C40   O5    D    
C37   C43   S    
C2    C4    A    
C2    C49   A    
C14   C38   S    
C7    C18   A    
C46   O16   D    
C4    C37   A    
C15   C39   S    
C11   N3    A    
C16   O22   A    
C46   O17   S    
C13   H21   S    
C13   C15   A    
H11   O6    S    
Cu2   O12   S    
C26   H1    S    
H13   O8    S    
C45   C48   A    
Cu1   O20   S    
C7    C9    A    
C22   C33   A    
H10   O4    S    
C16   C22   S    
C50   H5    S    
C12   O12   A    
C16   O20   A    
C12   C45   S    
C3    C5    S    
C1    O18   A    
C2    H6    S    
C23   H3    S    
C25   C27   A    
C26   C28   A    
C32   H2    S    
C42   O9    D    
C28   C30   A    
C17   O23   A    
C39   O3    D    
C29   C31   A    
C44   O15   S    
C47   C49   A    
C8    H8    S    
C30   C32   A    
C31   H24   S    
C3    C36   A    
Cu2   O18   S    
C43   O13   S    
C18   C20   S    
C35   C41   S    
Cu1   N3    S    
C44   O14   D    
C30   N2    S    
C29   N1    S    
C20   C21   T    
C8    C10   A    
C23   C36   A    
H15   O13   S    
C33   C40   S    
C34   C47   A    
Cu2   N4    S    
Cu1   O23   S    
C44   C48   S    
H17   O17   S    
