data_mof_unit_5614.cif
_audit_creation_date              2012-12-11T16:23:56-0500
_audit_creation_method            fapswitch 2.2
_symmetry_space_group_name_H-M    P1
_symmetry_Int_Tables_number       1
_space_group_crystal_system       triclinic
_cell_length_a                    14.741383
_cell_length_b                    14.763094
_cell_length_c                    33.255059
_cell_angle_alpha                 95.94844
_cell_angle_beta                  96.102393
_cell_angle_gamma                 61.254656
_cell_volume                      6297.95913809

loop_
_atom_site_label
_atom_site_type_symbol
_atom_type_description
_atom_site_fract_x
_atom_site_fract_y
_atom_site_fract_z
_atom_type_partial_charge
C1    C     C_R   0.391109 0.699449 0.446051 0.546117
C2    C     C_R   0.339004 0.351569 0.307604 0.042236
C3    C     C_R   0.414618 0.266231 0.327987 -0.110401
C4    C     C_R   0.431241 0.274589 0.369989 -0.126278
C5    C     C_R   0.406842 0.264047 0.162895 0.031868
C6    C     C_R   0.391978 0.244980 0.121125 -0.114014
C7    C     C_R   0.210390 0.372833 0.122593 -0.134368
C8    C     C_R   0.223923 0.391520 0.164086 -0.125325
C9    C     C_R   0.320410 0.335043 0.184552 0.053493
C10   C     C_1   0.326275 0.343234 0.227976 -0.024783
C11   C     C_1   0.331204 0.347389 0.264314 -0.027764
C12   C     C_R   0.406223 0.386725 0.433856 0.542831
C13   C     C_R   0.293188 0.296260 0.101081 0.004935
C14   C     C_R   0.753552 0.375120 0.409250 0.005954
C15   C     C_R   0.789885 0.435219 0.393369 -0.115640
C16   C     C_R   0.821234 0.415435 0.353583 0.003480
C17   C     C_R   0.810160 0.336675 0.328749 0.045100
C18   C     C_R   0.782767 0.271093 0.345939 -0.131941
C19   C     C_R   0.755213 0.289733 0.385870 -0.138138
C20   C     C_R   0.820280 0.311852 0.202749 0.332010
C21   C     C_R   0.815272 0.327658 0.284499 0.326879
C22   C     C_R   0.822947 0.390670 0.140362 -0.121057
C23   C     C_R   0.699997 0.410475 0.447239 0.541704
C24   C     C_R   0.858188 0.379127 0.101919 -0.133039
C25   C     C_R   0.909623 0.196165 0.098882 -0.130410
C26   C     C_R   0.875444 0.207504 0.137492 -0.123578
C27   C     C_R   0.835824 0.303995 0.159236 0.031543
C28   C     C_R   0.905700 0.280973 0.081564 0.021022
C29   C     C_R   0.371738 0.753254 0.408740 0.022104
C30   C     C_R   0.278025 0.782139 0.385332 -0.132221
C31   C     C_R   0.268756 0.808393 0.345559 -0.121147
C32   C     C_R   0.352899 0.806537 0.328559 0.035594
C33   C     C_R   0.443119 0.787178 0.353146 -0.121106
C34   C     C_R   0.393419 0.701353 0.561244 0.543628
C35   C     C_R   0.452493 0.760693 0.392969 -0.131793
C36   C     C_R   0.346885 0.822259 0.203410 0.348572
C37   C     C_R   0.349423 0.815759 0.284722 0.348664
C38   C     C_R   0.260462 0.827843 0.134490 -0.119881
C39   C     C_R   0.239664 0.860309 0.095186 -0.131032
C40   C     C_R   0.383166 0.898781 0.104260 -0.132313
C41   C     C_R   0.404010 0.866228 0.143629 -0.121724
C42   C     C_R   0.339546 0.835377 0.159710 0.035384
C43   C     C_R   0.297582 0.900893 0.080464 0.021691
C44   C     C_R   0.370338 0.367924 0.584553 0.021388
C45   C     C_R   0.407115 0.388658 0.548900 0.542941
C46   C     C_R   0.282027 0.445998 0.602895 -0.136918
C47   C     C_R   0.261671 0.435803 0.641713 -0.127053
C48   C     C_R   0.329464 0.347493 0.662682 0.035196
C49   C     C_R   0.411735 0.265419 0.642691 -0.124496
C50   C     C_R   0.431926 0.275482 0.603954 -0.136269
C51   C     C_R   0.315755 0.345661 0.787537 0.346939
C52   C     C_R   0.321522 0.344695 0.706246 0.345768
C53   C     C_R   0.216989 0.402313 0.849973 -0.122606
C54   C     C_R   0.206607 0.383383 0.888997 -0.131557
C55   C     C_R   0.385539 0.248243 0.892372 -0.130775
C56   C     C_R   0.701981 0.413184 0.562567 0.532890
C57   C     C_R   0.395884 0.267142 0.853436 -0.121268
C58   C     C_R   0.310271 0.340830 0.831156 0.034448
C59   C     C_R   0.289373 0.302660 0.909685 0.021974
C60   C     C_R   0.752784 0.379491 0.603160 0.027783
C61   C     C_R   0.818317 0.415863 0.625315 -0.007296
C62   C     C_R   0.844817 0.395559 0.666597 -0.099892
C63   C     C_R   0.809030 0.339281 0.685334 0.024967
C64   C     C_R   0.751039 0.297944 0.662914 -0.122145
C65   C     C_R   0.723523 0.317415 0.622290 -0.139453
C66   C     C_R   0.887003 0.214329 0.822829 -0.111282
C67   C     C_R   0.372408 0.368716 0.391870 0.020588
C68   C     C_R   0.914296 0.202246 0.864176 -0.127870
C69   C     C_R   0.870448 0.383552 0.874057 -0.126332
C70   C     C_R   0.843087 0.395401 0.832759 -0.111681
C71   C     C_R   0.854388 0.310126 0.806993 0.041243
C72   C     C_1   0.838965 0.319592 0.764093 -0.022246
C73   C     C_1   0.826692 0.328058 0.728128 -0.024138
C74   C     C_R   0.909836 0.285955 0.889936 0.020040
C75   C     C_R   0.376096 0.755049 0.601926 0.019257
C76   C     C_R   0.280878 0.789729 0.619140 -0.126535
C77   C     C_R   0.271347 0.819139 0.660361 -0.111491
C78   C     C_R   0.292182 0.451855 0.371260 -0.132879
C79   C     C_R   0.356554 0.814579 0.684777 0.041027
C80   C     C_R   0.449651 0.786435 0.667520 -0.111323
C81   C     C_R   0.459376 0.757166 0.626239 -0.127816
C82   C     C_R   0.396814 0.885035 0.832626 -0.111292
C83   C     C_R   0.377033 0.912351 0.873467 -0.126387
C84   C     C_R   0.228407 0.881714 0.862835 -0.126957
C85   C     C_R   0.248481 0.854312 0.822046 -0.111363
C86   C     C_R   0.330911 0.858709 0.806703 0.040245
C87   C     C_1   0.343134 0.842984 0.763931 -0.023217
C88   C     C_1   0.350299 0.830946 0.727869 -0.022911
C89   C     C_R   0.275877 0.443305 0.329303 -0.116402
C90   C     C_R   0.290552 0.914218 0.888698 0.019505
C91   C     C_R   0.963465 0.264030 0.045581 0.544867
C92   C     C_R   0.273009 0.259738 0.059871 0.544064
C93   C     C_R   0.259312 0.959378 0.043697 0.545904
C94   C     C_R   0.962423 0.267782 0.930827 0.542708
C95   C     C_R   0.270861 0.264028 0.945334 0.544805
C96   C     C_R   0.256176 0.965068 0.928944 0.543034
Cr1   Cr    Cr6+3 0.576280 0.580550 0.506370 1.002830
Cr2   Cr    Cr6+3 0.346780 0.572400 0.496520 1.007468
Cr3   Cr    Cr6+3 0.576960 0.347070 0.497150 1.008698
Cr4   Cr    Cr6+3 0.087320 0.083240 0.984860 1.012114
Cr5   Cr    Cr6+3 0.087720 0.316210 0.996740 1.012594
Cr6   Cr    Cr6+3 0.317350 0.090340 0.995890 1.011461
H1    H     H_    0.456644 0.186978 0.104561 0.122794
H2    H     H_    0.728040 0.241645 0.397373 0.133154
H3    H     H_    0.853255 0.445997 0.089102 0.128446
H4    H     H_    0.775673 0.209437 0.327601 0.127889
H5    H     H_    0.791971 0.466258 0.156271 0.136159
H6    H     H_    0.945342 0.119558 0.083815 0.132141
H7    H     H_    0.884890 0.139665 0.151083 0.132363
H8    H     H_    0.214037 0.778168 0.396808 0.127982
H9    H     H_    0.525498 0.739449 0.410406 0.127902
H10   H     H_    0.174117 0.859633 0.077306 0.129565
H11   H     H_    0.197376 0.825125 0.327576 0.135107
H12   H     H_    0.508799 0.786439 0.341005 0.132326
H13   H     H_    0.210781 0.802304 0.145775 0.134438
H14   H     H_    0.429770 0.928829 0.093562 0.129598
H15   H     H_    0.466424 0.871561 0.162190 0.132913
H16   H     H_    0.232454 0.517732 0.588439 0.125176
H17   H     H_    0.499715 0.213347 0.590351 0.127504
H18   H     H_    0.131636 0.427075 0.901703 0.130442
H19   H     H_    0.196693 0.499710 0.656141 0.128105
H20   H     H_    0.464050 0.195378 0.657744 0.131519
H21   H     H_    0.463648 0.194808 0.311264 0.112338
H22   H     H_    0.150038 0.460587 0.833722 0.131654
H23   H     H_    0.451089 0.186496 0.907830 0.128968
H24   H     H_    0.469525 0.220022 0.840051 0.132933
H25   H     H_    0.944861 0.126021 0.875426 0.127948
H26   H     H_    0.895543 0.148021 0.803002 0.111309
H27   H     H_    0.723587 0.253752 0.677226 0.120219
H28   H     H_    0.673844 0.288208 0.606468 0.139524
H29   H     H_    0.817312 0.469976 0.820690 0.111342
H30   H     H_    0.866042 0.449467 0.893115 0.127068
H31   H     H_    0.493809 0.209411 0.384972 0.126466
H32   H     H_    0.891904 0.425117 0.684474 0.112020
H33   H     H_    0.426173 0.937312 0.892523 0.128242
H34   H     H_    0.460969 0.888395 0.820972 0.112696
H35   H     H_    0.515975 0.782840 0.686247 0.111455
H36   H     H_    0.533865 0.730429 0.613970 0.126700
H37   H     H_    0.215368 0.788979 0.601266 0.126431
H38   H     H_    0.197241 0.833692 0.802144 0.113100
H39   H     H_    0.161171 0.882516 0.873562 0.127340
H40   H     H_    0.198870 0.841128 0.673509 0.110626
H41   H     H_    0.246179 0.525699 0.387141 0.125814
H42   H     H_    0.157582 0.446485 0.180600 0.116944
H43   H     H_    0.133418 0.413630 0.107957 0.135572
H44   H     H_    0.217082 0.509641 0.313653 0.112205
H45   H     H_    0.790071 0.500514 0.411470 0.124207
N1    N     N_R   0.770402 0.405789 0.222803 -0.235610
N2    N     N_R   0.239665 0.419881 0.725892 -0.239292
N3    N     N_R   0.400450 0.270515 0.728064 -0.236907
N4    N     N_R   0.397463 0.270779 0.767845 -0.235963
N5    N     N_R   0.766986 0.413433 0.262862 -0.234388
N6    N     N_R   0.862238 0.233440 0.264425 -0.230921
N7    N     N_R   0.865268 0.225768 0.224308 -0.233957
N8    N     N_R   0.270568 0.815374 0.220120 -0.230674
N9    N     N_R   0.272006 0.811819 0.259936 -0.230865
N10   N     N_R   0.426245 0.822015 0.268049 -0.232197
N11   N     N_R   0.424621 0.825919 0.228165 -0.231823
N12   N     N_R   0.236493 0.419928 0.765756 -0.237719
O1    O     O_R   0.679450 0.499830 0.463150 -0.523305
O2    O     O_R   0.356040 0.477400 0.534170 -0.501638
O3    O     O_R   0.495910 0.323070 0.537100 -0.523461
O4    O     O_R   0.663920 0.359620 0.542290 -0.504574
O5    O     O_3   0.500010 0.500010 0.500010 -0.232673
O6    O     O_R   0.170070 0.978950 0.027680 -0.520045
O7    O     O_R   0.001760 0.175230 0.026640 -0.501763
O8    O     O_R   0.984760 0.333570 0.037150 -0.519254
O9    O     O_R   0.183410 0.309240 0.041890 -0.500464
O10   O     O_R   0.340240 0.172500 0.045430 -0.519998
O11   O     O_R   0.309670 0.000990 0.032050 -0.501534
O12   O     O_R   0.480650 0.664000 0.464630 -0.501143
O13   O     O_R   0.168330 0.982130 0.939200 -0.520458
O14   O     O_R   0.000140 0.178170 0.944610 -0.502146
O15   O     O_R   0.983010 0.336750 0.948660 -0.520143
O16   O     O_R   0.181800 0.312190 0.959860 -0.501993
O17   O     O_R   0.338500 0.175680 0.956950 -0.520142
O18   O     O_R   0.308050 0.003930 0.950020 -0.501637
O19   O     O_3   0.164130 0.163270 0.992500 -0.235610
O20   O     O_R   0.323930 0.675950 0.455370 -0.521441
O21   O     O_R   0.354700 0.475360 0.451930 -0.503658
O22   O     O_R   0.494470 0.320860 0.448390 -0.518890
O23   O     O_R   0.662580 0.357570 0.460050 -0.499912
O24   O     O_R   0.680900 0.502040 0.551870 -0.523309
O25   O     O_R   0.481990 0.666040 0.546870 -0.502287
O26   O     O_R   0.325370 0.678160 0.544080 -0.519304
C97   C     C_3   0.863406 0.481075 0.338875 -0.250835
C98   C     C_3   0.961497 0.468973 0.364271 -0.306534
C99   C     C_3   0.004012 0.533999 0.348831 -0.450699
H46   H     H_    0.029184 0.506164 0.317569 0.160483
H47   H     H_    0.944077 0.616724 0.349012 0.152482
H48   H     H_    0.071606 0.527568 0.368930 0.144648
H49   H     H_    0.944318 0.494129 0.396470 0.155196
H50   H     H_    0.021970 0.386322 0.362802 0.177506
H51   H     H_    0.884336 0.459633 0.306998 0.178694
H52   H     H_    0.802470 0.563512 0.340638 0.148269
C100  C     C_3   0.513507 0.204477 0.183849 -0.283021
C101  C     C_3   0.563490 0.273954 0.195842 -0.414978
H53   H     H_    0.570832 0.306938 0.168571 0.161412
H54   H     H_    0.516730 0.338063 0.217626 0.172057
H55   H     H_    0.642150 0.227786 0.210435 0.159187
H56   H     H_    0.508207 0.170156 0.211137 0.150719
H57   H     H_    0.565466 0.139014 0.163614 0.134499
C102  C     C_3   0.861909 0.474918 0.606502 -0.250236
C103  C     C_3   0.938054 0.406673 0.574440 -0.286165
C104  C     C_3   0.986534 0.464277 0.557312 -0.449136
H58   H     H_    0.925386 0.534686 0.542864 0.151962
H59   H     H_    0.030597 0.486892 0.581765 0.152102
H60   H     H_    0.040757 0.413215 0.534119 0.145544
H61   H     H_    0.000905 0.336102 0.588302 0.166807
H62   H     H_    0.897662 0.382129 0.549108 0.170560
H63   H     H_    0.798519 0.546100 0.593490 0.170044
H64   H     H_    0.904158 0.501914 0.630218 0.130137

loop_
_geom_bond_atom_site_label_1
_geom_bond_atom_site_label_2
_ccdc_geom_bond_type
Cr6   O11   S    
C101  H55   S    
C66   C68   A    
C102  C103  S    
N10   N11   A    
C54   H18   S    
C2    C89   A    
C41   C42   A    
C74   C94   S    
C91   O7    A    
C36   C42   S    
C45   O3    A    
Cr4   O19   S    
C65   H28   S    
C7    C8    A    
C40   H14   S    
C85   C86   A    
C25   C28   A    
C56   O4    A    
C33   H12   S    
C29   C30   A    
C84   C90   A    
C30   H8    S    
C99   H48   S    
C99   H47   S    
C38   C42   A    
Cr2   O26   S    
C55   C59   A    
C5    C6    A    
Cr2   O21   S    
C47   H19   S    
Cr4   O13   S    
C68   C74   A    
C15   C16   A    
C100  C101  S    
C46   H16   S    
Cr4   O7    S    
C18   C19   A    
C21   N5    A    
C37   N10   A    
C101  H54   S    
C95   O16   A    
C77   H40   S    
C70   H29   S    
Cr3   O23   S    
C45   O2    A    
Cr5   O19   S    
C43   C93   S    
C40   C43   A    
C47   C48   A    
C3    H21   S    
C16   C17   A    
C103  H61   S    
C20   N1    A    
C34   O25   A    
C70   C71   A    
C96   O18   A    
C24   C28   A    
C9    C10   S    
C7    H43   S    
C83   H33   S    
C61   C62   A    
C36   N11   A    
C34   C75   S    
Cr6   O10   S    
C104  H59   S    
C93   O6    A    
C91   O8    A    
C99   H46   S    
C95   O17   A    
C98   H50   S    
C37   N9    A    
C102  H63   S    
Cr5   O15   S    
C69   C70   A    
C67   C78   A    
C59   C95   S    
C2    C11   S    
C79   C88   S    
C44   C46   A    
Cr1   O24   S    
C54   C59   A    
C77   C79   A    
C78   C89   A    
C81   H36   S    
C12   C67   S    
C93   O11   A    
C32   C37   S    
C63   C64   A    
C50   H17   S    
Cr1   O1    S    
C55   H23   S    
C97   H52   S    
C76   C77   A    
C23   O23   A    
C57   H24   S    
C86   C87   S    
C80   C81   A    
C39   C43   A    
C63   C73   S    
C25   C26   A    
C53   C54   A    
C1    O12   A    
C17   C21   S    
C56   C60   S    
C60   C61   A    
C14   C23   S    
Cr5   O9    S    
C75   C76   A    
C18   H4    S    
C66   C71   A    
C5    C9    A    
C62   C63   A    
C51   N4    A    
Cr3   O3    S    
C19   H2    S    
C52   N2    A    
C12   O22   A    
C85   H38   S    
C7    C13   A    
C92   O10   A    
Cr1   O5    S    
C22   H5    S    
C23   O1    A    
C56   O24   A    
C1    C29   S    
C17   C18   A    
C8    C9    A    
C69   C74   A    
C8    H42   S    
C51   C58   S    
C6    H1    S    
C84   C85   A    
C34   O26   A    
C89   H44   S    
N2    N12   A    
C26   H7    S    
C98   H49   S    
C20   N7    A    
C94   O15   A    
C5    C100  S    
Cr3   O4    S    
C39   H10   S    
C12   O21   A    
C60   C65   A    
C49   C50   A    
C22   C27   A    
C55   C57   A    
C13   C92   S    
C26   C27   A    
C36   N8    A    
Cr6   O19   S    
C22   C24   A    
C102  H64   S    
Cr5   O16   S    
C100  H57   S    
C3    C4    A    
Cr4   O14   S    
Cr2   O2    S    
C35   H9    S    
C44   C45   S    
Cr1   O25   S    
C104  H60   S    
C44   C50   A    
C83   C90   A    
C104  H58   S    
C46   C47   A    
C40   C41   A    
N3    N4    A    
C14   C19   A    
C97   H51   S    
C31   C32   A    
C75   C81   A    
N1    N5    A    
C72   C73   T    
C53   H22   S    
C4    C67   A    
Cr2   O5    S    
C53   C58   A    
C90   C96   S    
C20   C27   S    
C64   H27   S    
Cr5   O8    S    
C29   C35   A    
Cr1   O12   S    
C32   C33   A    
C62   H32   S    
C2    C3    A    
C97   C98   S    
C98   C99   S    
C82   C86   A    
C78   H41   S    
C64   C65   A    
C6    C13   A    
C15   H45   S    
C38   H13   S    
C1    O20   A    
C30   C31   A    
C57   C58   A    
C38   C39   A    
C84   H39   S    
C69   H30   S    
C48   C49   A    
C49   H20   S    
C51   N12   A    
Cr3   O5    S    
C33   C35   A    
C66   H26   S    
C28   C91   S    
C100  H56   S    
C82   H34   S    
C101  H53   S    
C92   O9    A    
Cr3   O22   S    
C10   C11   T    
C94   O14   A    
C68   H25   S    
C79   C80   A    
C48   C52   S    
C71   C72   S    
C103  C104  S    
C76   H37   S    
C87   C88   T    
C52   N3    A    
C82   C83   A    
C96   O13   A    
C103  H62   S    
N8    N9    A    
Cr6   O18   S    
C21   N6    A    
C14   C15   A    
Cr4   O6    S    
C16   C97   S    
C24   H3    S    
C41   H15   S    
Cr2   O20   S    
Cr6   O17   S    
C31   H11   S    
C61   C102  S    
C80   H35   S    
C25   H6    S    
C4    H31   S    
N6    N7    A    
