data_mof_unit_68091.cif
_audit_creation_date              2012-12-11T15:49:11-0500
_audit_creation_method            fapswitch 2.2
_symmetry_space_group_name_H-M    P1
_symmetry_Int_Tables_number       1
_space_group_crystal_system       triclinic
_cell_length_a                    21.387977
_cell_length_b                    7.585543
_cell_length_c                    13.975723
_cell_angle_alpha                 90.000414
_cell_angle_beta                  101.87687
_cell_angle_gamma                 89.999221
_cell_volume                      2218.87273861

loop_
_atom_site_label
_atom_site_type_symbol
_atom_type_description
_atom_site_fract_x
_atom_site_fract_y
_atom_site_fract_z
_atom_type_partial_charge
O1    O     O_R   0.335860 0.638190 0.002110 -0.537356
O2    O     O_R   0.664140 0.361810 0.997890 -0.544218
O3    O     O_R   0.164140 0.138190 0.997890 -0.544216
O4    O     O_R   0.835860 0.861810 0.002110 -0.537356
O5    O     O_R   0.217530 0.305920 0.861960 -0.532643
O6    O     O_R   0.782470 0.694080 0.138040 -0.537938
O7    O     O_R   0.282470 0.805920 0.138040 -0.537938
O8    O     O_R   0.717530 0.194080 0.861960 -0.532643
C1    C     C_R   0.207938 0.476989 0.822561 0.657460
C2    C     C_R   0.792094 0.523644 0.177478 0.660497
C3    C     C_R   0.292095 0.976356 0.177477 0.660492
C4    C     C_R   0.707939 0.023010 0.822560 0.657449
O9    O     O_R   0.338690 0.308320 0.993240 -0.505057
O10   O     O_R   0.661310 0.691680 0.006760 -0.503096
O11   O     O_R   0.161310 0.808320 0.006760 -0.503085
O12   O     O_R   0.838690 0.191680 0.993240 -0.505053
O13   O     O_R   0.286170 0.140430 0.130100 -0.527157
O14   O     O_R   0.713830 0.859570 0.869900 -0.527594
O15   O     O_R   0.213830 0.640430 0.869900 -0.527594
O16   O     O_R   0.786170 0.359570 0.130100 -0.527154
C5    C     C_R   0.364218 0.474530 0.000483 0.704920
C6    C     C_R   0.635723 0.523467 0.999996 0.712268
C7    C     C_R   0.135723 0.976535 0.999996 0.712277
C8    C     C_R   0.864218 0.025468 0.000483 0.704917
O17   O     O_3   0.232630 0.472410 0.044750 -0.394372
O18   O     O_3   0.767370 0.527590 0.955250 -0.388097
O19   O     O_3   0.267370 0.972410 0.955250 -0.388100
O20   O     O_3   0.732630 0.027590 0.044750 -0.394374
V1    V     V_3+5 0.253220 0.196620 0.991700 1.383077
V2    V     V_3+5 0.746780 0.803380 0.008300 1.378556
V3    V     V_3+5 0.246780 0.696620 0.008300 1.378572
V4    V     V_3+5 0.753220 0.303380 0.991700 1.383072
C9    C     C_R   0.031295 0.845963 0.023823 0.429006
C10   C     C_R   0.969001 0.170757 0.981703 0.416963
C11   C     C_R   0.469005 0.329241 0.981704 0.416995
C12   C     C_R   0.531292 0.654042 0.023820 0.429046
C13   C     C_R   0.966846 0.863376 0.027405 -0.321952
C14   C     C_R   0.033595 0.150490 0.976096 -0.349352
C15   C     C_R   0.533597 0.349514 0.976097 -0.349338
C16   C     C_R   0.466845 0.636619 0.027410 -0.321949
H1    H     H_    0.942186 0.747777 0.046205 0.188871
H2    H     H_    0.058500 0.264302 0.955776 0.191958
H3    H     H_    0.558504 0.235704 0.955774 0.191948
H4    H     H_    0.442183 0.752216 0.046210 0.188855
C17   C     C_R   0.934347 0.022619 0.005403 -0.191549
C18   C     C_R   0.065725 0.988896 0.997468 -0.180236
C19   C     C_R   0.565725 0.511109 0.997467 -0.180264
C20   C     C_R   0.434348 0.477376 0.005407 -0.191574
C21   C     C_R   0.682103 0.015723 0.710862 -0.079424
C22   C     C_R   0.317564 0.986035 0.289380 -0.085466
C23   C     C_R   0.817562 0.513965 0.289381 -0.085468
C24   C     C_R   0.182101 0.484275 0.710863 -0.079428
C25   C     C_R   0.688625 0.032364 0.531800 -0.032226
C26   C     C_R   0.308553 0.016615 0.467584 -0.029555
C27   C     C_R   0.808550 0.483386 0.467585 -0.029557
C28   C     C_R   0.188621 0.467632 0.531801 -0.032225
C29   C     C_R   0.720106 0.005552 0.635091 0.000141
C30   C     C_R   0.278442 0.989875 0.363345 0.002045
C31   C     C_R   0.778440 0.510125 0.363346 0.002047
C32   C     C_R   0.220103 0.494446 0.635092 0.000139
C33   C     C_R   0.614884 0.019664 0.680811 -0.241791
C34   C     C_R   0.384477 0.994967 0.320994 -0.239976
C35   C     C_R   0.884475 0.505032 0.320997 -0.239975
C36   C     C_R   0.114881 0.480333 0.680813 -0.241794
C37   C     C_R   0.582899 0.034890 0.581517 0.054397
C38   C     C_R   0.415175 0.022532 0.420021 0.046042
C39   C     C_R   0.915172 0.477466 0.420024 0.046036
C40   C     C_R   0.082896 0.465105 0.581520 0.054401
C41   C     C_R   0.620105 0.054539 0.509502 0.067403
C42   C     C_R   0.377136 0.042701 0.491432 0.064303
C43   C     C_R   0.877133 0.457300 0.491434 0.064303
C44   C     C_R   0.120103 0.445455 0.509504 0.067408
C45   C     C_R   0.514030 0.045081 0.551221 0.075315
C46   C     C_R   0.483708 0.041676 0.450077 0.071885
C47   C     C_R   0.983705 0.458318 0.450081 0.071888
C48   C     C_R   0.014027 0.454917 0.551224 0.075314
C49   C     C_R   0.521863 0.089906 0.384577 -0.215104
C50   C     C_R   0.475198 0.090020 0.615973 -0.212226
C51   C     C_R   0.975195 0.409986 0.615977 -0.212227
C52   C     C_R   0.021859 0.410078 0.384581 -0.215107
C53   C     C_R   0.587163 0.115305 0.417551 -0.229764
C54   C     C_R   0.409419 0.106184 0.583945 -0.220275
C55   C     C_R   0.909416 0.393820 0.583948 -0.220268
C56   C     C_R   0.087161 0.384685 0.417554 -0.229772
H5    H     H_    0.611683 0.186877 0.370439 0.159256
H6    H     H_    0.384879 0.172842 0.633451 0.142122
H7    H     H_    0.884877 0.327163 0.633454 0.142121
H8    H     H_    0.111681 0.313115 0.370441 0.159262
H9    H     H_    0.412803 0.980080 0.265704 0.114540
H10   H     H_    0.587547 0.010278 0.737627 0.114290
H11   H     H_    0.087545 0.489719 0.737630 0.114297
H12   H     H_    0.912802 0.519918 0.265707 0.114546
H13   H     H_    0.501073 0.127994 0.310357 0.133278
H14   H     H_    0.495858 0.132535 0.688956 0.121694
H15   H     H_    0.995855 0.367477 0.688961 0.121691
H16   H     H_    0.001068 0.371980 0.310364 0.133278
O21   O     O_3   0.058770 0.682444 0.038058 -0.545094
C57   C     C_3   0.070716 0.642904 0.138011 0.125581
H17   H     H_    0.031803 0.684071 0.175452 0.110758
H18   H     H_    0.116511 0.703796 0.174468 0.140287
C58   C     C_3   0.075428 0.447410 0.146621 -0.748328
H19   H     H_    0.112541 0.396423 0.108785 0.240815
H20   H     H_    0.087292 0.409810 0.223239 0.166424
H21   H     H_    0.028050 0.390587 0.116268 0.250881
O22   O     O_3   0.940824 0.335914 0.964370 -0.535801
C59   C     C_3   0.931317 0.377979 0.863640 0.110695
H22   H     H_    0.881235 0.348515 0.828219 0.131174
H23   H     H_    0.963916 0.307270 0.824516 0.087837
C60   C     C_3   0.942681 0.571875 0.849673 -0.715075
H24   H     H_    0.992355 0.605291 0.883754 0.259902
H25   H     H_    0.937658 0.600097 0.771110 0.176508
H26   H     H_    0.907669 0.652340 0.879049 0.233795
O23   O     O_3   0.440830 0.164084 0.964363 -0.535793
C61   C     C_3   0.431334 0.122022 0.863634 0.110645
H27   H     H_    0.463932 0.192739 0.824518 0.087846
H28   H     H_    0.381253 0.151469 0.828204 0.131169
C62   C     C_3   0.442708 0.928140 0.849664 -0.714994
H29   H     H_    0.407721 0.847672 0.879091 0.233829
H30   H     H_    0.437641 0.899899 0.771091 0.176487
H31   H     H_    0.492396 0.894755 0.883696 0.259854
O24   O     O_3   0.558762 0.817567 0.038048 -0.545089
C63   C     C_3   0.570713 0.857109 0.138002 0.125599
H32   H     H_    0.616509 0.796216 0.174454 0.140270
H33   H     H_    0.531803 0.815945 0.175448 0.110748
C64   C     C_3   0.575425 0.052605 0.146611 -0.748257
H34   H     H_    0.528040 0.109429 0.116299 0.250841
H35   H     H_    0.587322 0.090209 0.223230 0.166408
H36   H     H_    0.612521 0.103590 0.108737 0.240829
C65   C     C_R   0.206922 0.968172 0.331448 0.063302
C66   C     C_R   0.170775 0.065940 0.253870 -0.156142
C67   C     C_R   0.103914 0.054888 0.232957 -0.185332
C68   C     C_R   0.071528 0.960021 0.292435 -0.130151
C69   C     C_R   0.106051 0.862732 0.368987 -0.145476
C70   C     C_R   0.172688 0.862005 0.385398 -0.138459
H37   H     H_    0.193214 0.155868 0.211648 0.135171
H38   H     H_    0.076213 0.121666 0.171581 0.142282
H39   H     H_    0.019812 0.958775 0.277608 0.113601
H40   H     H_    0.081474 0.787322 0.415657 0.136793
H41   H     H_    0.197548 0.789998 0.447646 0.135976
C71   C     C_R   0.790933 0.960883 0.660920 0.068746
C72   C     C_R   0.832790 0.027215 0.743807 -0.160365
C73   C     C_R   0.898704 0.996099 0.757300 -0.161274
C74   C     C_R   0.925263 0.917136 0.685805 -0.109883
C75   C     C_R   0.885295 0.850683 0.603921 -0.133446
C76   C     C_R   0.819285 0.860771 0.596000 -0.116602
H42   H     H_    0.816015 0.107357 0.796524 0.103724
H43   H     H_    0.930557 0.035055 0.821772 0.118077
H44   H     H_    0.976556 0.902933 0.695406 0.115580
H45   H     H_    0.905237 0.788454 0.547491 0.134245
H46   H     H_    0.790296 0.801064 0.532916 0.133676
C77   C     C_R   0.290929 0.539114 0.660921 0.068745
C78   C     C_R   0.332786 0.472771 0.743806 -0.160360
C79   C     C_R   0.398700 0.503888 0.757301 -0.161269
C80   C     C_R   0.425258 0.582856 0.685807 -0.109891
C81   C     C_R   0.385290 0.649316 0.603923 -0.133459
C82   C     C_R   0.319280 0.639230 0.596003 -0.116591
H47   H     H_    0.316013 0.392618 0.796520 0.103736
H48   H     H_    0.430553 0.464925 0.821772 0.118070
H49   H     H_    0.476552 0.597056 0.695408 0.115582
H50   H     H_    0.405231 0.711547 0.547494 0.134247
H51   H     H_    0.290290 0.698938 0.532919 0.133672
C83   C     C_R   0.706919 0.531831 0.331449 0.063302
C84   C     C_R   0.670772 0.434068 0.253870 -0.156151
C85   C     C_R   0.603912 0.445125 0.232955 -0.185334
C86   C     C_R   0.571526 0.539994 0.292434 -0.130145
C87   C     C_R   0.606049 0.637277 0.368988 -0.145465
C88   C     C_R   0.672686 0.637996 0.385401 -0.138461
H52   H     H_    0.693212 0.344139 0.211646 0.135174
H53   H     H_    0.576211 0.378350 0.171578 0.142280
H54   H     H_    0.519809 0.541246 0.277605 0.113599
H55   H     H_    0.581471 0.712687 0.415660 0.136794
H56   H     H_    0.697545 0.710001 0.447651 0.135978
C89   C     C_R   0.725819 0.047602 0.446205 0.039325
C90   C     C_R   0.788731 0.112419 0.459715 -0.098270
C91   C     C_R   0.826344 0.094226 0.389199 -0.133777
C92   C     C_R   0.799576 0.031769 0.296921 -0.055598
C93   C     C_R   0.735775 0.984236 0.276602 -0.101154
C94   C     C_R   0.699983 0.992318 0.349405 -0.195463
H57   H     H_    0.811609 0.163742 0.529274 0.140170
H58   H     H_    0.876423 0.128740 0.406399 0.128666
H59   H     H_    0.828112 0.020073 0.241629 0.117835
H60   H     H_    0.714241 0.934033 0.205450 0.151872
H61   H     H_    0.652728 0.941313 0.329649 0.137396
C95   C     C_R   0.270110 0.029206 0.552210 0.042930
C96   C     C_R   0.206529 0.089450 0.537650 -0.105298
C97   C     C_R   0.168446 0.068400 0.607290 -0.133617
C98   C     C_R   0.194852 0.003980 0.699411 -0.049002
C99   C     C_R   0.259302 0.963316 0.721428 -0.090487
C100  C     C_R   0.296055 0.979174 0.650390 -0.193500
H62   H     H_    0.184064 0.145883 0.469493 0.146455
H63   H     H_    0.118331 0.102909 0.589549 0.127289
H64   H     H_    0.165732 0.987309 0.753604 0.112416
H65   H     H_    0.281055 0.911028 0.792101 0.148562
H66   H     H_    0.343959 0.933967 0.673209 0.144941
C101  C     C_R   0.770107 0.470797 0.552210 0.042929
C102  C     C_R   0.796051 0.520835 0.650389 -0.193512
C103  C     C_R   0.759297 0.536689 0.721427 -0.090490
C104  C     C_R   0.694849 0.496012 0.699411 -0.048996
C105  C     C_R   0.668444 0.431590 0.607291 -0.133617
C106  C     C_R   0.706527 0.410546 0.537650 -0.105294
H67   H     H_    0.843954 0.566043 0.673206 0.144964
H68   H     H_    0.781049 0.588978 0.792100 0.148558
H69   H     H_    0.665728 0.512676 0.753606 0.112413
H70   H     H_    0.618330 0.397073 0.589551 0.127288
H71   H     H_    0.684063 0.354114 0.469492 0.146453
C107  C     C_R   0.225815 0.452396 0.446206 0.039319
C108  C     C_R   0.199979 0.507675 0.349405 -0.195447
C109  C     C_R   0.235771 0.515761 0.276603 -0.101157
C110  C     C_R   0.299573 0.468234 0.296923 -0.055602
C111  C     C_R   0.326342 0.405779 0.389201 -0.133776
C112  C     C_R   0.288729 0.387583 0.459716 -0.098271
H72   H     H_    0.152722 0.558676 0.329648 0.137399
H73   H     H_    0.214237 0.565961 0.205450 0.151869
H74   H     H_    0.328109 0.479932 0.241631 0.117836
H75   H     H_    0.376422 0.371267 0.406400 0.128666
H76   H     H_    0.311608 0.336260 0.529274 0.140170

loop_
_geom_bond_atom_site_label_1
_geom_bond_atom_site_label_2
_ccdc_geom_bond_type
O17   V3    S    
C55   H7    S    
C101  C106  A    
O1    C5    A    
C86   C87   A    
C27   C31   A    
O19   V1    S    
O13   V1    S    
C45   C46   A    
O3    C7    A    
C84   C85   A    
C48   C51   A    
C52   C56   A    
O15   V3    S    
O21   C57   S    
C88   H56   S    
C25   C89   S    
C96   H62   S    
C89   C90   A    
O7    C3    A    
C109  H73   S    
C64   H34   S    
C8    C17   S    
C36   C40   A    
O9    V1    S    
C85   C86   A    
C83   C84   A    
C60   H25   S    
C26   C30   A    
O4    C8    A    
C59   H22   S    
C11   C20   A    
C30   C65   S    
C74   C75   A    
C38   C46   A    
C34   H9    S    
C105  H70   S    
O1    V3    S    
C106  H71   S    
C37   C45   A    
C95   C96   A    
C12   C19   A    
O2    V4    S    
C49   H13   S    
C79   H48   S    
O3    V1    S    
C90   C91   A    
C24   C32   A    
O23   C61   S    
C100  H66   S    
C1    O15   A    
C66   H37   S    
C2    O16   A    
C109  C110  A    
C28   C44   A    
C46   C49   A    
C35   H12   S    
O2    C6    A    
C64   H36   S    
C77   C78   A    
C11   O23   S    
C104  C105  A    
O14   V2    S    
C52   H16   S    
C28   C107  S    
C47   C52   A    
O5    V1    S    
C94   H61   S    
C23   C35   A    
C40   C44   A    
C5    C20   S    
O11   C7    A    
C112  H76   S    
C69   H40   S    
C87   H55   S    
O12   C8    A    
C7    C18   S    
C9    C18   A    
C85   H53   S    
C92   H59   S    
C1    C24   S    
O10   V2    S    
C2    C23   S    
C107  C112  A    
C53   H5    S    
C4    C21   S    
C43   C55   A    
C63   H32   S    
C74   H44   S    
C35   C39   A    
C82   H51   S    
C21   C33   A    
C34   C38   A    
C108  C109  A    
O8    V4    S    
C58   H19   S    
C56   H8    S    
C12   C16   A    
O7    V3    S    
C71   C72   A    
C97   H63   S    
C67   H38   S    
C24   C36   A    
C60   H26   S    
C70   H41   S    
C25   C29   A    
C107  C108  A    
C68   C69   A    
C15   H3    S    
C101  C102  A    
C68   H39   S    
C54   H6    S    
C45   C50   A    
C9    C13   A    
C28   C32   A    
C29   C71   S    
C99   C100  A    
C32   C77   S    
C22   C30   A    
C51   H15   S    
C11   C15   A    
C47   C48   A    
O5    C1    A    
C75   H45   S    
C50   C54   A    
C66   C67   A    
C91   C92   A    
C26   C42   A    
C49   C53   A    
O8    C4    A    
C110  C111  A    
C98   H64   S    
O9    C5    A    
C103  H68   S    
C10   C17   A    
C77   C82   A    
C64   H35   S    
C25   C41   A    
C80   C81   A    
C44   C56   A    
C72   H42   S    
C92   C93   A    
O6    V2    S    
C99   H65   S    
C93   C94   A    
C58   H21   S    
C57   H18   S    
C69   C70   A    
C22   C34   A    
C26   C95   S    
C62   H31   S    
C39   C47   A    
C63   H33   S    
C67   C68   A    
C104  H69   S    
C33   H10   S    
C15   C19   A    
C65   C66   A    
O16   V4    S    
C86   H54   S    
C16   C20   A    
C78   H47   S    
C3    O13   A    
C81   H50   S    
C10   C14   A    
C10   O22   S    
C73   H43   S    
C76   H46   S    
C102  C103  A    
C71   C76   A    
O6    C2    A    
C21   C29   A    
C61   H28   S    
C108  H72   S    
O24   C63   S    
O11   V3    S    
C91   H58   S    
O18   V4    S    
O12   V4    S    
C57   C58   S    
O22   C59   S    
C62   H29   S    
C110  H74   S    
C36   H11   S    
C75   C76   A    
O10   C6    A    
C63   C64   S    
C62   H30   S    
C12   O24   S    
C102  H67   S    
C84   H52   S    
C80   H49   S    
C31   C83   S    
C60   H24   S    
C51   C55   A    
C40   C48   A    
C96   C97   A    
C38   C42   A    
C87   C88   A    
C59   H23   S    
C89   C94   A    
C50   H14   S    
C37   C41   A    
O20   V2    S    
C6    C19   S    
C39   C43   A    
C61   H27   S    
C111  C112  A    
C13   H1    S    
C103  C104  A    
C42   C54   A    
O4    V2    S    
C65   C70   A    
C14   C18   A    
C61   C62   S    
C41   C53   A    
C27   C101  S    
C111  H75   S    
C105  C106  A    
C83   C88   A    
C14   H2    S    
C33   C37   A    
C16   H4    S    
C23   C31   A    
C78   C79   A    
C58   H20   S    
C57   H17   S    
C4    O14   A    
C81   C82   A    
C3    C22   S    
C73   C74   A    
C98   C99   A    
C9    O21   S    
C97   C98   A    
C72   C73   A    
C13   C17   A    
C90   H57   S    
C95   C100  A    
C27   C43   A    
C93   H60   S    
C79   C80   A    
C59   C60   S    
