data_mof_unit_44391.cif
_audit_creation_date              2012-12-10T18:50:00-0500
_audit_creation_method            fapswitch 2.2
_symmetry_space_group_name_H-M    P1
_symmetry_Int_Tables_number       1
_space_group_crystal_system       triclinic
_cell_length_a                    10.795934
_cell_length_b                    9.913246
_cell_length_c                    10.702737
_cell_angle_alpha                 90.787694
_cell_angle_beta                  92.594948
_cell_angle_gamma                 90.787982
_cell_volume                      1144.03515533

loop_
_atom_site_label
_atom_site_type_symbol
_atom_type_description
_atom_site_fract_x
_atom_site_fract_y
_atom_site_fract_z
_atom_type_partial_charge
C1    C     C_R   0.260212 0.499130 0.501686 1.020491
C2    C     C_R   0.582358 0.930940 0.574998 -0.027574
C3    C     C_R   0.413816 0.925606 0.428919 0.022214
C4    C     C_R   0.422985 0.067755 0.417974 -0.032274
C5    C     C_R   0.498334 0.499767 0.257321 0.901687
C6    C     C_R   0.739815 0.500587 0.500682 0.970213
C7    C     C_R   0.492174 0.500615 0.741094 0.923503
C8    C     C_3   0.427660 0.630278 0.069947 0.406703
C9    C     C_3   0.422152 0.373670 0.067303 0.357083
C10   C     C_3   0.435941 0.638280 0.927644 -0.335558
C11   C     C_3   0.408966 0.377263 0.923095 -0.293951
C12   C     C_3   0.621780 0.487436 0.929967 -0.414584
C13   C     C_3   0.627265 0.498754 0.073364 -0.326928
C14   C     C_3   0.494085 0.500787 0.119896 -0.130534
C15   C     C_3   0.485630 0.501390 0.876768 -0.164896
C16   C     C_2   0.300480 0.856960 0.375621 1.031266
C17   C     C_2   0.358730 0.126206 0.305945 1.055045
C18   C     C_2   0.316784 0.690538 0.865724 0.975113
C19   C     C_2   0.275045 0.367132 0.872032 0.926769
C20   C     C_2   0.868600 0.273805 0.383012 1.061388
C21   C     C_2   0.884705 0.717923 0.633638 1.020588
C22   C     C_R   0.060435 0.384010 0.462248 0.589016
C23   C     C_R   0.068959 0.609261 0.555653 0.509440
C24   C     C_R   0.933316 0.387875 0.451539 -0.190821
C25   C     C_R   0.941356 0.609215 0.559765 -0.156263
C26   C     C_R   0.872768 0.500437 0.502562 -0.345818
C27   C     C_R   0.128015 0.497325 0.506474 -0.315390
C28   C     C_R   0.579433 0.074192 0.578334 -0.043264
F1    F     F_    0.481828 0.747679 0.121184 -0.588513
F2    F     F_    0.486854 0.258473 0.100336 -0.618018
F3    F     F_    0.117133 0.270566 0.424521 -0.571142
F4    F     F_    0.135795 0.714332 0.608195 -0.593544
H1    H     H_    0.329501 0.625713 0.097051 0.152398
H2    H     H_    0.648235 0.879345 0.635271 0.152324
H3    H     H_    0.113359 0.850983 0.365643 0.357968
H4    H     H_    0.298171 0.096493 0.125794 0.374482
H5    H     H_    0.129570 0.686043 0.852061 0.384289
H6    H     H_    0.092344 0.357973 0.905103 0.371093
H7    H     H_    0.843692 0.072306 0.364170 0.350287
H8    H     H_    0.779383 0.765828 0.778249 0.328660
H9    H     H_    0.331112 0.368430 0.110897 0.155714
H10   H     H_    0.508540 0.715983 0.909231 0.219426
H11   H     H_    0.452869 0.283873 0.887854 0.218019
H12   H     H_    0.678495 0.592482 0.104234 0.211744
H13   H     H_    0.679286 0.412161 0.112886 0.263180
H14   H     H_    0.682490 0.567304 0.892865 0.225592
H15   H     H_    0.660123 0.388675 0.900931 0.218665
H16   H     H_    0.643115 0.129921 0.641368 0.151578
N1    N     N_R   0.499970 0.857200 0.499970 -0.125449
N2    N     N_R   0.499970 0.142800 0.499970 -0.122665
O1    O     O_R   0.316750 0.614620 0.499990 -0.588325
O2    O     O_R   0.184666 0.902776 0.409700 -0.703000
O3    O     O_2   0.309198 0.234982 0.310439 -0.537480
O4    O     O_R   0.350503 0.051345 0.193833 -0.733231
O5    O     O_2   0.322075 0.784450 0.793109 -0.511749
O6    O     O_R   0.201235 0.638890 0.896609 -0.794391
O7    O     O_2   0.253620 0.353976 0.759470 -0.593832
O8    O     O_R   0.175900 0.366778 0.951933 -0.774680
O9    O     O_2   0.795624 0.296049 0.295332 -0.639242
O10   O     O_R   0.893374 0.140958 0.417492 -0.695371
O11   O     O_2   0.911005 0.836144 0.615017 -0.538101
O12   O     O_R   0.316750 0.385380 0.499990 -0.514384
O13   O     O_R   0.805652 0.684220 0.728444 -0.845162
O14   O     O_R   0.499970 0.614670 0.314790 -0.546535
O15   O     O_R   0.499970 0.385330 0.314790 -0.556555
O16   O     O_R   0.683220 0.614710 0.500010 -0.622032
O17   O     O_R   0.683220 0.385290 0.500010 -0.626733
O18   O     O_R   0.500010 0.614660 0.685200 -0.611148
O19   O     O_R   0.500010 0.385340 0.685200 -0.622446
O20   O     O_2   0.306716 0.767310 0.297383 -0.582010
Zn1   Zn    Zn3+2 0.499980 0.653120 0.500000 1.061326
Zn2   Zn    Zn3+2 0.499980 0.346880 0.500000 1.066327

loop_
_geom_bond_atom_site_label_1
_geom_bond_atom_site_label_2
_ccdc_geom_bond_type
C7    O19   A    
O19   Zn2   S    
C2    C28   A    
C9    C14   S    
C11   H11   S    
C2    N1    A    
C23   C27   A    
C10   H10   S    
O15   Zn2   S    
C9    C11   S    
C9    H9    S    
O16   Zn1   S    
C12   C15   S    
C18   O6    S    
C22   C27   A    
C23   F4    S    
C2    H2    S    
C7    C15   S    
C25   C26   A    
O12   Zn2   S    
C13   C14   S    
C19   O7    D    
C20   O9    D    
C13   H13   S    
C1    O1    A    
C11   C19   S    
C5    C14   S    
C6    C26   S    
H8    O13   S    
O1    Zn1   S    
C18   O5    D    
C10   C18   S    
O18   Zn1   S    
C21   C25   S    
C8    F1    S    
C9    F2    S    
C5    O15   A    
C6    O17   A    
C24   C26   A    
C11   C15   S    
C10   C15   S    
C23   C25   A    
C19   O8    S    
C3    N1    A    
C16   O2    S    
H7    O10   S    
C22   C24   A    
C20   O10   S    
C21   O13   S    
H4    O4    S    
C22   F3    S    
C4    C17   S    
C3    C4    A    
C17   O3    D    
C6    O16   A    
C16   O20   D    
C12   C13   S    
C5    O14   A    
C1    O12   A    
C8    C10   S    
O17   Zn2   S    
N1    Zn1   S    
O14   Zn1   S    
C21   O11   D    
C1    C27   S    
N2    Zn2   S    
H3    O2    S    
C8    C14   S    
C7    O18   A    
H6    O8    S    
H5    O6    S    
C28   N2    A    
C17   O4    S    
C13   H12   S    
C28   H16   S    
C3    C16   S    
C20   C24   S    
C12   H15   S    
C4    N2    A    
C8    H1    S    
C12   H14   S    
