data_mof_unit_40505.cif
_audit_creation_date              2013-03-05T16:44:41-0500
_audit_creation_method            fapswitch 2.2
_symmetry_space_group_name_H-M    P1
_symmetry_Int_Tables_number       1
_space_group_crystal_system       triclinic
_cell_length_a                    27.758316
_cell_length_b                    10.68861
_cell_length_c                    9.869925
_cell_angle_alpha                 89.941366
_cell_angle_beta                  89.415009
_cell_angle_gamma                 90.706996
_cell_volume                      2928.0076796

loop_
_atom_site_label
_atom_site_type_symbol
_atom_site_description
_atom_site_fract_x
_atom_site_fract_y
_atom_site_fract_z
_atom_type_partial_charge
O1    O     O_R   0.500010 0.316790 0.614690 -0.602622
O2    O     O_R   0.500000 0.316760 0.385350 -0.640660
C1    C     C_R   0.499478 0.259985 0.500237 0.890221
O3    O     O_R   0.428760 0.500040 0.614660 -0.620397
O4    O     O_R   0.428750 0.500000 0.385310 -0.640072
C2    C     C_R   0.406062 0.499611 0.500616 0.857702
Zn1   Zn    Zn3+2 0.500000 0.500020 0.653130 0.984291
Zn2   Zn    Zn3+2 0.500000 0.499980 0.346870 0.974214
O5    O     O_R   0.500000 0.683240 0.614650 -0.625355
O6    O     O_R   0.499990 0.683210 0.385310 -0.596371
O7    O     O_R   0.571250 0.500000 0.614690 -0.583623
O8    O     O_R   0.571240 0.499960 0.385340 -0.600829
C3    C     C_R   0.499145 0.739736 0.500146 0.897660
C4    C     C_R   0.594016 0.495922 0.499761 0.935369
C5    C     C_R   0.177083 0.389250 0.491672 0.512808
O9    O     O_2   0.201163 0.280748 0.480131 -0.536796
N1    N     N_R   0.201913 0.499387 0.505438 -0.360825
C6    C     C_R   0.179083 0.611172 0.518065 0.510069
C7    C     C_R   0.277975 0.502355 0.626799 -0.091847
C8    C     C_R   0.328027 0.502464 0.625786 -0.195558
C9    C     C_R   0.328118 0.493993 0.379619 -0.203682
C10   C     C_R   0.278090 0.493428 0.381088 -0.085691
C11   C     C_R   0.253136 0.497941 0.504528 0.312517
C12   C     C_R   0.102184 0.502962 0.501844 -0.053080
C13   C     C_R   0.126716 0.388929 0.489424 -0.023816
C14   C     C_R   0.100620 0.277422 0.476028 -0.132239
C15   C     C_R   0.128756 0.615101 0.516668 -0.024062
C16   C     C_R   0.353434 0.498659 0.502049 -0.048411
H1    H     H_    0.346854 0.490999 0.282916 0.163684
H2    H     H_    0.258632 0.490189 0.286586 0.143621
H3    H     H_    0.118652 0.188249 0.469569 0.192517
C17   C     C_R   0.646981 0.492923 0.498622 -0.109751
C18   C     C_R   0.974203 0.396083 0.465124 0.053228
C19   C     C_R   0.975845 0.619370 0.525232 0.011918
C20   C     C_R   0.949615 0.508719 0.493849 0.080662
C21   C     C_R   0.947224 0.290088 0.425655 -0.268661
C22   C     C_R   0.897195 0.289821 0.423929 0.002570
C23   C     C_R   0.872263 0.401820 0.452037 -0.050558
C24   C     C_R   0.898501 0.510667 0.491128 -0.053873
C25   C     C_R   0.873563 0.621219 0.527878 -0.098813
C26   C     C_R   0.822832 0.615272 0.535026 0.521191
N2    N     N_R   0.798836 0.513595 0.485971 -0.344594
C27   C     C_R   0.822062 0.411052 0.438559 0.574847
C28   C     C_R   0.724252 0.468085 0.607589 -0.199213
C29   C     C_R   0.674188 0.455547 0.612880 -0.040747
C30   C     C_R   0.671242 0.534419 0.380870 -0.242537
C31   C     C_R   0.721111 0.544018 0.376314 0.217968
C32   C     C_R   0.747527 0.511197 0.490360 0.270529
O10   O     O_2   0.796281 0.320359 0.376602 -0.494096
C33   C     C_R   0.025016 0.392088 0.477565 0.056103
C34   C     C_R   0.051187 0.504876 0.499207 0.074542
C35   C     C_R   0.026920 0.619561 0.518143 0.052911
C36   C     C_R   0.050746 0.278606 0.470712 -0.205688
H4    H     H_    0.745754 0.439954 0.693287 0.156779
H5    H     H_    0.964255 0.204104 0.396248 0.130235
H6    H     H_    0.033485 0.188032 0.464883 0.146070
O11   O     O_2   0.205111 0.717922 0.531246 -0.539411
C37   C     C_R   0.104718 0.728460 0.527740 -0.125873
H7    H     H_    0.346726 0.505964 0.721516 0.168604
H8    H     H_    0.258430 0.505840 0.722212 0.143432
H9    H     H_    0.124416 0.816240 0.535967 0.194144
C38   C     C_R   0.950262 0.727041 0.562761 -0.195838
C39   C     C_R   0.900123 0.730831 0.561210 -0.017824
O12   O     O_2   0.797269 0.707918 0.592642 -0.550485
C40   C     C_R   0.054799 0.731018 0.527904 -0.211346
H10   H     H_    0.968635 0.811245 0.594143 0.174812
H11   H     H_    0.651570 0.560913 0.291844 0.209543
H12   H     H_    0.039320 0.822833 0.531914 0.141594
C41   C     C_R   0.506796 0.063434 0.619729 0.097886
C42   C     C_R   0.494938 0.127871 0.502417 -0.100922
C43   C     C_R   0.476034 0.063652 0.390881 -0.201606
H13   H     H_    0.463593 0.112439 0.302455 0.153899
C44   C     C_R   0.475727 0.934332 0.390702 -0.172417
H14   H     H_    0.463336 0.884643 0.301727 0.181456
C45   C     C_R   0.494136 0.871079 0.502630 -0.094839
C46   C     C_R   0.506101 0.935702 0.620032 0.132006
C47   C     C_3   0.551000 0.927858 0.701577 -0.483481
C48   C     C_3   0.552296 0.069471 0.699594 -0.387287
H15   H     H_    0.543951 0.888050 0.804100 0.218893
H16   H     H_    0.581396 0.884876 0.644787 0.215117
H17   H     H_    0.547055 0.111219 0.801552 0.217282
H18   H     H_    0.583167 0.108639 0.639971 0.243710
C49   C     C_R   0.465524 0.434366 0.072138 0.087720
N3    N     N_R   0.499670 0.499140 0.142800 -0.131709
C50   C     C_R   0.529797 0.578169 0.069115 0.197324
C51   C     C_R   0.530019 0.576519 0.925714 -0.127023
H19   H     H_    0.554702 0.636480 0.869310 0.161322
N4    N     N_R   0.499670 0.499180 0.857150 -0.113145
C52   C     C_R   0.465475 0.434865 0.929742 0.170418
C53   C     C_3   0.455287 0.298077 0.922399 -0.428689
C54   C     C_3   0.455743 0.296814 0.077236 -0.251872
H20   H     H_    0.419814 0.278648 0.875124 0.231771
H21   H     H_    0.485649 0.245863 0.876674 0.197903
H22   H     H_    0.486368 0.244119 0.119752 0.161189
C55   C     C_2   0.877554 0.854515 0.584255 0.504333
H23   H     H_    0.845822 0.881042 0.528625 0.152401
O13   O     O_2   0.895139 0.929921 0.663060 -0.545937
I1    I     I_    0.755100 0.608990 0.195898 -0.266524
I2    I     I_    0.576844 0.710886 0.157763 -0.346700
C56   C     C_2   0.408088 0.267495 0.145360 0.431254
H24   H     H_    0.402741 0.292516 0.250816 0.083447
O14   O     O_2   0.375750 0.213097 0.085503 -0.549577
C57   C     C_2   0.653316 0.397718 0.737174 0.452072
H25   H     H_    0.670437 0.414059 0.834083 0.081459
O15   O     O_2   0.619182 0.324943 0.732074 -0.575238
C58   C     C_2   0.873499 0.166260 0.403141 0.539767
H26   H     H_    0.887776 0.102291 0.327843 0.026126
O16   O     O_2   0.840441 0.130962 0.476821 -0.502900

loop_
_geom_bond_atom_site_label_1
_geom_bond_atom_site_label_2
_geom_bond_distance
_ccdc_geom_bond_type
C26   N2    1.359768 A    
C20   C24   1.419776 A    
C55   H23   1.083251 S    
C12   C15   1.408136 A    
C47   C48   1.513729 S    
Zn1   O7    2.010037 S    
N1    C11   1.422070 S    
C31   I1    2.119032 S    
C49   N3    1.364712 A    
C21   C22   1.388970 A    
C23   C24   1.420785 A    
O7    C4    1.293880 A    
C51   N4    1.358903 A    
C36   H6    1.076726 S    
C58   H26   1.085627 S    
C5    O9    1.350032 S    
C39   C55   1.486633 S    
C19   C38   1.407707 A    
C18   C21   1.407854 A    
C41   C46   1.365167 A    
C5    N1    1.364391 A    
C19   C20   1.417374 A    
C44   H14   1.083590 S    
Zn1   N4    2.013600 S    
O5    C3    1.281392 A    
C6    O11   1.350068 S    
N3    C50   1.382276 A    
C2    C16   1.460682 S    
C3    C45   1.412658 S    
C42   C43   1.401009 A    
C54   C56   1.507084 S    
C29   C57   1.482508 S    
C37   H9    1.083647 S    
C14   H3    1.083654 S    
O1    Zn1   1.995270 S    
C9    C10   1.388545 A    
C22   C58   1.483532 S    
C44   C45   1.398992 A    
C41   C48   1.496376 S    
O3    Zn1   2.017431 S    
N1    C6    1.364592 A    
C47   H15   1.111886 S    
C49   C52   1.405452 A    
C33   C36   1.416512 A    
C38   H10   1.076354 S    
C34   C35   1.417602 A    
C1    C42   1.416297 S    
C12   C13   1.408355 A    
O3    C2    1.295539 A    
C24   C25   1.422323 A    
C43   C44   1.382179 A    
C51   H19   1.082001 S    
C27   O10   1.348649 S    
C8    C16   1.404912 A    
C13   C14   1.394168 A    
C50   C51   1.415439 A    
C9    H1    1.082967 S    
C15   C37   1.394269 A    
O1    C1    1.283151 A    
C7    C11   1.396544 A    
C45   C46   1.390665 A    
C22   C23   1.416404 A    
C50   I2    2.112697 S    
C48   H18   1.111855 S    
C37   C40   1.386231 A    
C53   H20   1.111281 S    
C31   C32   1.396479 A    
Zn2   O8    2.017431 S    
C40   H12   1.076770 S    
C38   C39   1.393097 A    
C56   O14   1.221275 D    
C33   C34   1.417308 A    
C57   O15   1.219924 D    
C17   C29   1.423255 A    
N2    C32   1.424387 S    
C46   C47   1.493671 S    
C8    H7    1.083124 S    
C25   C39   1.417344 A    
C25   C26   1.409914 A    
C9    C16   1.404679 A    
O8    C4    1.300803 A    
N2    C27   1.359512 A    
C14   C36   1.386172 A    
C28   C29   1.394920 A    
C53   H21   1.108973 S    
C47   H16   1.112466 S    
Zn1   O5    1.994472 S    
C30   C31   1.387094 A    
C10   H2    1.082957 S    
Zn2   N3    2.014299 S    
C17   C30   1.405894 A    
O2    Zn2   1.994473 S    
C6    C15   1.398367 A    
C4    C17   1.470892 S    
O6    C3    1.285084 A    
O4    Zn2   2.010039 S    
C55   O13   1.221552 D    
C7    H8    1.082916 S    
C49   C54   1.492504 S    
C19   C35   1.418747 A    
C7    C8    1.389274 A    
O2    C1    1.285422 A    
C18   C33   1.418247 A    
C23   C27   1.405842 A    
C21   H5    1.077429 S    
C54   H22   1.111128 S    
C48   H17   1.110174 S    
C53   C54   1.528461 S    
O4    C2    1.295038 A    
C58   O16   1.220856 D    
C12   C34   1.416506 A    
C56   H24   1.084119 S    
C18   C20   1.418678 A    
C41   C42   1.391076 A    
C5    C13   1.398454 A    
C28   H4    1.084573 S    
C30   H11   1.078685 S    
C43   H13   1.078222 S    
N4    C52   1.362316 A    
Zn2   O6    1.995269 S    
C57   H25   1.085730 S    
C10   C11   1.396500 A    
C26   O12   1.348239 S    
C52   C53   1.487718 S    
C35   C40   1.416486 A    
C28   C32   1.394564 A    
