data_mof_unit_14608.cif
_audit_creation_date              2012-10-26T20:03:19-0400
_audit_creation_method            fapswitch 2.2
_symmetry_space_group_name_H-M    P1
_symmetry_Int_Tables_number       1
_space_group_crystal_system       triclinic
_cell_length_a                    10.617848
_cell_length_b                    12.350191
_cell_length_c                    13.213463
_cell_angle_alpha                 116.55233
_cell_angle_beta                  77.347335
_cell_angle_gamma                 101.289416
_cell_volume                      1502.78479361

loop_
_atom_site_label
_atom_site_type_symbol
_atom_type_description
_atom_site_fract_x
_atom_site_fract_y
_atom_site_fract_z
_atom_type_partial_charge
C1    C     C_R   0.510183 0.855014 0.286766 0.522976
C2    C     C_R   0.496125 0.567485 0.009516 0.032379
C3    C     C_R   0.459990 0.649432 0.125020 0.023811
C4    C     C_R   0.740406 0.999289 0.499443 0.544628
C5    C     C_R   0.461081 0.440233 0.976768 0.028379
C6    C     C_R   0.384599 0.398210 0.057487 0.049785
C7    C     C_R   0.336291 0.481370 0.165649 -0.139541
C8    C     C_R   0.370194 0.605143 0.197777 -0.123822
C9    C     C_R   0.500584 0.353004 0.866487 -0.138116
C10   C     C_R   0.394282 0.188718 0.917857 -0.124637
C11   C     C_R   0.514017 0.773472 0.163960 -0.003322
C12   C     C_3   0.018115 0.022312 0.604702 -0.112263
C13   C     C_R   0.708507 0.346460 0.328087 -0.148180
C14   C     C_R   0.322507 0.754385 0.645383 0.246482
C15   C     C_R   0.288146 0.656808 0.675165 -0.133884
C16   C     C_R   0.483146 0.145172 0.713487 0.555923
C17   C     C_R   0.355885 0.556476 0.620453 -0.163259
C18   C     C_R   0.460691 0.550933 0.533431 -0.011466
C19   C     C_R   0.495262 0.653406 0.504795 0.158585
C20   C     C_R   0.532007 0.447002 0.474279 -0.006412
C21   C     C_R   0.637122 0.446854 0.387492 0.037411
C22   C     C_R   0.670431 0.546799 0.360668 -0.171216
C23   C     C_3   0.931448 0.912141 0.529371 -0.104420
C24   C     C_R   0.601420 0.647636 0.418010 -0.099622
C25   C     C_R   0.503470 0.342158 0.497359 0.037995
C26   C     C_R   0.675664 0.246618 0.354928 0.043044
C27   C     C_R   0.259594 0.000382 0.499967 0.562160
C28   C     C_3   0.981704 0.977235 0.393922 -0.131103
C29   C     C_3   0.038232 0.890808 0.424018 -0.122862
C30   C     C_3   0.122708 0.000832 0.499456 0.049398
C31   C     C_3   0.068526 0.087304 0.469267 -0.114980
C32   C     C_3   0.961728 0.108618 0.574539 -0.127009
C33   C     C_3   0.877278 0.998610 0.499263 0.039581
C34   C     C_R   0.354609 0.273097 0.028258 -0.128289
C35   C     C_R   0.462365 0.228711 0.835205 -0.002813
C36   C     C_R   0.583860 0.817749 0.084359 -0.131364
C37   C     C_R   0.606400 0.740194 0.969067 -0.135083
C38   C     C_R   0.565785 0.616300 0.931777 -0.119226
Cu1   Cu    Cu3+1 0.529830 0.098270 0.475420 0.926099
Cu2   Cu    Cu3+1 0.470170 0.901730 0.524580 0.955264
H1    H     H_    0.072746 0.801763 0.362436 0.108574
H2    H     H_    0.425242 0.333860 0.561581 0.120285
H3    H     H_    0.963476 0.958693 0.307748 0.109701
H4    H     H_    0.323163 0.484789 0.648525 0.101565
H5    H     H_    0.207166 0.658329 0.741726 0.131871
H6    H     H_    0.635184 0.719095 0.391146 0.182649
H7    H     H_    0.127193 0.159159 0.444744 0.122600
H8    H     H_    0.927278 0.197660 0.636169 0.115704
H9    H     H_    0.034902 0.042461 0.691621 0.146014
H10   H     H_    0.872815 0.840251 0.553873 0.134306
H11   H     H_    0.367934 0.092886 0.896591 0.163784
H12   H     H_    0.560204 0.379157 0.802226 0.121211
H13   H     H_    0.271512 0.450662 0.225761 0.109055
H14   H     H_    0.298154 0.240610 0.090215 0.113073
H15   H     H_    0.624073 0.912361 0.111461 0.131134
H16   H     H_    0.589124 0.562095 0.841283 0.105258
H17   H     H_    0.659727 0.775713 0.908440 0.127481
H18   H     H_    0.322599 0.664997 0.279716 0.151148
H19   H     H_    0.730528 0.168970 0.309277 0.120757
H20   H     H_    0.751181 0.547255 0.294373 0.109673
H21   H     H_    0.789248 0.345244 0.261361 0.093906
I1    I     I_    0.199611 0.894267 0.741663 -0.437876
N1    N     N_R   0.575030 0.246270 0.438190 -0.235852
N2    N     N_R   0.425760 0.754330 0.561190 -0.227886
O1    O     O_R   0.537510 0.972500 0.318130 -0.505838
O2    O     O_R   0.487140 0.806530 0.359650 -0.533399
O3    O     O_R   0.708330 0.082950 0.479220 -0.502708
O4    O     O_R   0.657960 0.916980 0.520740 -0.526077
O5    O     O_R   0.512860 0.193470 0.640350 -0.514535
O6    O     O_R   0.462490 0.027500 0.681870 -0.470861
O7    O     O_R   0.342040 0.083020 0.479260 -0.512348
O8    O     O_R   0.291670 0.917050 0.520780 -0.473376

loop_
_geom_bond_atom_site_label_1
_geom_bond_atom_site_label_2
_ccdc_geom_bond_type
Cu1   O1    S    
C1    C11   S    
C12   H9    S    
C7    C8    A    
C12   C23   S    
C37   C38   A    
Cu2   O6    S    
C23   C29   S    
C36   C37   A    
C16   C35   S    
C22   H20   S    
C5    C6    A    
C20   C25   A    
C14   I1    S    
C18   C19   A    
C25   N1    A    
C8    H18   S    
C23   C33   S    
C1    O1    A    
C10   C35   A    
C26   H19   S    
C12   C30   S    
Cu2   O2    S    
C21   C22   A    
C12   C32   S    
C27   C30   S    
C32   H8    S    
C13   H21   S    
C9    H12   S    
C10   H11   S    
C17   C18   A    
C16   O6    A    
C3    C8    A    
Cu1   Cu2   S    
C4    O4    A    
C23   H10   S    
C6    C34   A    
C11   C36   A    
C26   N1    A    
C5    C9    A    
C29   C30   S    
C2    C38   A    
C31   C32   S    
C19   N2    A    
C14   N2    A    
C1    O2    A    
Cu1   O5    S    
C13   C21   A    
C10   C34   A    
C28   C33   S    
C34   H14   S    
C22   C24   A    
C13   C26   A    
C2    C5    A    
C7    H13   S    
C27   O7    A    
C15   C17   A    
C4    C33   S    
C28   C29   S    
Cu2   O8    S    
C29   H1    S    
Cu1   O3    S    
C28   C31   S    
C16   O5    A    
C25   H2    S    
C4    O3    A    
C6    C7    A    
Cu1   N1    S    
C28   H3    S    
Cu2   N2    S    
C24   H6    S    
C32   C33   S    
C19   C24   A    
C17   H4    S    
C36   H15   S    
C30   C31   S    
C2    C3    A    
C18   C20   A    
C3    C11   A    
C38   H16   S    
C20   C21   A    
Cu2   O4    S    
C9    C35   A    
Cu1   O7    S    
C14   C15   A    
C31   H7    S    
C37   H17   S    
C27   O8    A    
C15   H5    S    
