data_mof_unit_23344.cif
_audit_creation_date              2012-12-10T19:25:56-0500
_audit_creation_method            fapswitch 2.2
_symmetry_space_group_name_H-M    P1
_symmetry_Int_Tables_number       1
_space_group_crystal_system       triclinic
_cell_length_a                    9.776743
_cell_length_b                    10.483767
_cell_length_c                    16.658821
_cell_angle_alpha                 90.152841
_cell_angle_beta                  84.752203
_cell_angle_gamma                 90.278703
_cell_volume                      1700.29941825

loop_
_atom_site_label
_atom_site_type_symbol
_atom_type_description
_atom_site_fract_x
_atom_site_fract_y
_atom_site_fract_z
_atom_type_partial_charge
C1    C     C_R   0.499946 0.742291 0.500822 0.891146
C2    C     C_3   0.601347 0.960745 0.542259 -0.289013
C3    C     C_3   0.951701 0.612673 0.512281 0.510679
C4    C     C_3   0.048370 0.387351 0.487638 0.513034
C5    C     C_3   0.056624 0.572273 0.444194 0.517742
C6    C     C_3   0.943441 0.427669 0.555734 0.502175
C7    C     C_3   0.038674 0.540938 0.569354 -0.464656
C8    C     C_3   0.961293 0.459051 0.430612 -0.459608
C9    C     C_R   0.480605 0.508738 0.652893 0.894774
C10   C     C_R   0.519626 0.497419 0.346747 0.860326
C11   C     C_R   0.465801 0.548561 0.737210 -0.158950
C12   C     C_R   0.500067 0.257861 0.497953 0.936171
C13   C     C_R   0.532774 0.512691 0.259828 -0.146965
C14   C     C_R   0.551009 0.645418 0.766496 0.104387
C15   C     C_R   0.435417 0.460266 0.211251 0.166722
C16   C     C_R   0.520738 0.687840 0.845832 -0.237068
C17   C     C_R   0.432246 0.507244 0.133262 -0.249396
C18   C     C_R   0.414753 0.632060 0.896170 0.033739
C19   C     C_R   0.528313 0.598536 0.102137 0.024259
C20   C     C_R   0.329001 0.539350 0.866206 0.570573
C21   C     C_R   0.633268 0.640024 0.147867 0.547592
C22   C     C_R   0.352925 0.500846 0.786060 -0.321576
C23   C     C_3   0.519704 0.956383 0.424028 0.612132
C24   C     C_R   0.635258 0.596230 0.226590 -0.316811
C25   C     C_2   0.410757 0.650569 0.983313 -0.220918
C26   C     C_2   0.527875 0.639803 0.018594 -0.183644
C27   C     C_3   0.671105 0.702639 0.712998 -0.315533
C28   C     C_3   0.747223 0.814599 0.748273 -0.929134
C29   C     C_3   0.335985 0.353890 0.239276 -0.359207
C30   C     C_3   0.360892 0.233229 0.188386 -0.915769
C31   C     C_3   0.990156 0.823882 0.541784 -0.365449
C32   C     C_3   0.011638 0.177193 0.454719 -0.359300
C33   C     C_3   0.253470 0.360532 0.934128 -0.349592
C34   C     C_3   0.478288 0.043631 0.572658 0.619315
C35   C     C_3   0.713216 0.844089 0.144424 -0.318461
C36   C     C_3   0.426908 0.866229 0.314567 -0.349549
C37   C     C_3   0.405224 0.011332 0.706317 -0.339271
C38   C     C_3   0.037726 0.691862 0.330038 -0.346235
C39   C     C_3   0.963513 0.305809 0.668745 -0.304379
C40   C     C_3   0.622628 0.041134 0.464191 -0.258200
C41   C     C_3   0.375260 0.959387 0.532196 -0.318663
C42   C     C_3   0.499873 0.123121 0.496398 -0.120215
C43   C     C_3   0.499318 0.877193 0.500541 -0.139032
C44   C     C_3   0.397351 0.040947 0.454372 -0.309517
H1    H     H_    0.076839 0.574725 0.626482 0.172003
H2    H     H_    0.276150 0.921798 0.560491 0.156168
H3    H     H_    0.316962 0.079360 0.418341 0.186766
H4    H     H_    0.682692 0.926429 0.578945 0.192973
H5    H     H_    0.675762 0.894211 0.765126 0.262828
H6    H     H_    0.798810 0.783343 0.801521 0.266245
H7    H     H_    0.827476 0.850588 0.702388 0.263913
H8    H     H_    0.748331 0.626940 0.697707 0.251362
H9    H     H_    0.631902 0.736698 0.656548 0.207083
H10   H     H_    0.339259 0.249873 0.125013 0.255482
H11   H     H_    0.468874 0.201332 0.189697 0.270087
H12   H     H_    0.922995 0.425378 0.373502 0.167454
H13   H     H_    0.291687 0.155878 0.213370 0.247804
H14   H     H_    0.345642 0.325148 0.302385 0.226675
H15   H     H_    0.228870 0.386913 0.235643 0.213645
H16   H     H_    0.072200 0.833194 0.491379 0.202616
H17   H     H_    0.035130 0.800482 0.598835 0.160891
H18   H     H_    0.940115 0.918235 0.550228 0.182299
H19   H     H_    0.976028 0.199936 0.394939 0.164007
H20   H     H_    0.923098 0.170520 0.501416 0.203928
H21   H     H_    0.060276 0.081862 0.449718 0.179827
H22   H     H_    0.175540 0.325275 0.981573 0.197326
H23   H     H_    0.713240 0.632759 0.262938 0.184728
H24   H     H_    0.355665 0.353525 0.958404 0.161560
H25   H     H_    0.249369 0.297400 0.880664 0.170405
H26   H     H_    0.727586 0.849536 0.209785 0.204096
H27   H     H_    0.609394 0.879000 0.132866 0.165261
H28   H     H_    0.789788 0.909068 0.112580 0.192274
H29   H     H_    0.367351 0.950861 0.298336 0.162812
H30   H     H_    0.362970 0.803454 0.356769 0.223992
H31   H     H_    0.452753 0.811019 0.258513 0.190075
H32   H     H_    0.294287 0.995636 0.699802 0.164113
H33   H     H_    0.461031 0.918977 0.701428 0.163259
H34   H     H_    0.284649 0.431286 0.762340 0.172379
H35   H     H_    0.414401 0.049841 0.767684 0.193760
H36   H     H_    0.944212 0.738070 0.359963 0.200300
H37   H     H_    0.008969 0.610679 0.291850 0.174895
H38   H     H_    0.091629 0.763629 0.289650 0.184597
H39   H     H_    0.995409 0.386238 0.706574 0.166557
H40   H     H_    0.055101 0.257835 0.637864 0.191985
H41   H     H_    0.909244 0.234926 0.709625 0.192717
H42   H     H_    0.626870 0.644315 0.983268 0.197131
H43   H     H_    0.312310 0.643989 0.019082 0.198791
H44   H     H_    0.356526 0.469498 0.095922 0.174113
H45   H     H_    0.582506 0.760868 0.871015 0.178043
H46   H     H_    0.721219 0.077978 0.434650 0.156077
N1    N     N_3   0.136700 0.499970 0.500060 -0.147749
N2    N     N_3   0.863300 0.500030 0.499940 -0.150629
O1    O     O_R   0.383390 0.686040 0.500000 -0.616499
O2    O     O_3   0.110031 0.266503 0.476198 -0.586016
O3    O     O_3   0.221373 0.487565 0.915600 -0.613101
O4    O     O_3   0.736464 0.719496 0.114342 -0.616903
O5    O     O_3   0.549713 0.904074 0.346211 -0.633643
O6    O     O_3   0.460493 0.101309 0.649508 -0.601134
O7    O     O_3   0.127823 0.651823 0.386171 -0.601126
O8    O     O_3   0.872475 0.347773 0.613657 -0.575811
O9    O     O_R   0.616610 0.313960 0.500000 -0.600796
O10   O     O_R   0.616650 0.686050 0.499970 -0.569681
O11   O     O_R   0.383350 0.313950 0.500030 -0.566780
O12   O     O_R   0.369590 0.500020 0.615820 -0.621658
O13   O     O_R   0.630410 0.499980 0.384180 -0.623217
O14   O     O_R   0.602840 0.500020 0.615790 -0.582959
O15   O     O_R   0.397160 0.499980 0.384210 -0.584884
O16   O     O_3   0.890125 0.733485 0.524129 -0.585151
Zn1   Zn    Zn3+2 0.344250 0.499990 0.500020 1.009105
Zn2   Zn    Zn3+2 0.655750 0.500010 0.499980 1.014676

loop_
_geom_bond_atom_site_label_1
_geom_bond_atom_site_label_2
_ccdc_geom_bond_type
C32   O2    S    
O13   Zn2   S    
C17   H44   S    
O15   Zn1   S    
C31   O16   S    
C31   H17   S    
C34   C42   S    
C4    C8    S    
C8    H12   S    
C35   O4    S    
C37   H35   S    
C7    H1    S    
C19   C21   A    
C39   H40   S    
C3    C7    S    
O12   Zn1   S    
C28   H7    S    
C23   C40   S    
C30   H13   S    
C25   H43   S    
C23   C43   S    
C19   C26   S    
C12   C42   S    
C24   H23   S    
C17   C19   A    
C28   H6    S    
C1    C43   S    
C5    O7    S    
C35   H26   S    
C41   H2    S    
C36   O5    S    
C8    N2    S    
C14   C27   S    
C44   H3    S    
C33   H25   S    
C4    N1    S    
C2    C34   S    
C40   C42   S    
C35   H27   S    
C16   H45   S    
C38   H38   S    
C41   C43   S    
C31   H18   S    
C10   O15   A    
C34   C41   S    
C42   C44   S    
C33   O3    S    
C37   O6    S    
C25   C26   D    
C33   H22   S    
C15   C29   S    
C29   H15   S    
C22   H34   S    
C12   O11   A    
C4    C6    S    
C2    H4    S    
O9    Zn2   S    
C37   H33   S    
C23   C44   S    
C13   C24   A    
C3    N2    S    
C6    O8    S    
C31   H16   S    
C29   C30   S    
C36   H31   S    
C30   H10   S    
C28   H5    S    
C2    C43   S    
C26   H42   S    
C7    N1    S    
C9    C11   S    
C32   H20   S    
C5    N1    S    
C36   H30   S    
C4    O2    S    
C16   C18   A    
C23   O5    S    
C37   H32   S    
C20   C22   A    
C35   H28   S    
C13   C15   A    
C38   H37   S    
C41   C44   S    
C14   C16   A    
O10   Zn2   S    
C39   H41   S    
C27   H8    S    
O14   Zn2   S    
C15   C17   A    
C20   O3    S    
C32   H19   S    
C38   O7    S    
C3    C5    S    
C10   C13   S    
C5    C8    S    
C27   H9    S    
C6    C7    S    
C21   O4    S    
C3    O16   S    
C30   H11   S    
C11   C22   A    
O11   Zn1   S    
N1    Zn1   S    
C9    O14   A    
C39   H39   S    
C12   O9    A    
C18   C25   S    
N2    Zn2   S    
C39   O8    S    
C38   H36   S    
C9    O12   A    
C6    N2    S    
C11   C14   A    
C18   C20   A    
C36   H29   S    
C34   O6    S    
C2    C40   S    
C29   H14   S    
C1    O1    A    
C21   C24   A    
C27   C28   S    
C10   O13   A    
C40   H46   S    
C1    O10   A    
C33   H24   S    
O1    Zn1   S    
C32   H21   S    
