data_mof_unit_26565.cif
_audit_creation_date              2012-12-10T19:00:02-0500
_audit_creation_method            fapswitch 2.2
_symmetry_space_group_name_H-M    P1
_symmetry_Int_Tables_number       1
_space_group_crystal_system       triclinic
_cell_length_a                    10.815055
_cell_length_b                    10.679089
_cell_length_c                    9.900426
_cell_angle_alpha                 89.565106
_cell_angle_beta                  91.02793
_cell_angle_gamma                 90.25049
_cell_volume                      1143.22184686

loop_
_atom_site_label
_atom_site_type_symbol
_atom_type_description
_atom_site_fract_x
_atom_site_fract_y
_atom_site_fract_z
_atom_type_partial_charge
C1    C     C_R   0.499678 0.260145 0.500281 0.869448
C2    C     C_R   0.500322 0.739855 0.499719 0.869446
C3    C     C_R   0.872657 0.494317 0.504368 -0.081211
C4    C     C_R   0.127343 0.505687 0.495632 -0.081212
C5    C     C_R   0.942195 0.490246 0.626034 0.004355
C6    C     C_R   0.057805 0.509758 0.373966 0.004355
C7    C     C_R   0.454794 0.064767 0.386253 -0.183806
C8    C     C_R   0.545206 0.935232 0.613747 -0.183806
C9    C     C_R   0.455439 0.936450 0.385718 -0.134541
C10   C     C_R   0.544561 0.063550 0.614282 -0.134540
C11   C     C_R   0.500629 0.872369 0.499468 -0.030797
C12   C     C_R   0.499370 0.127631 0.500532 -0.030797
C13   C     C_R   0.522485 0.607614 0.070469 0.636734
C14   C     C_R   0.477515 0.392386 0.929531 0.636733
C15   C     C_R   0.522719 0.607318 0.927421 -0.290196
C16   C     C_R   0.477281 0.392682 0.072579 -0.290196
C17   C     C_R   0.260047 0.502958 0.498375 0.862792
C18   C     C_R   0.739953 0.497044 0.501625 0.862792
C19   C     C_R   0.205524 0.652063 0.066003 -0.073010
C20   C     C_R   0.794482 0.347942 0.934001 -0.072998
C21   C     C_R   0.156900 0.639529 0.194962 -0.066557
C22   C     C_R   0.843106 0.360475 0.805042 -0.066543
C23   C     C_R   0.110816 0.523406 0.238330 0.075465
C24   C     C_R   0.889184 0.476599 0.761670 0.075460
C25   C     C_R   0.111312 0.420734 0.150986 -0.112502
C26   C     C_R   0.888684 0.579273 0.849012 -0.112500
C27   C     C_R   0.160747 0.432651 0.021414 0.026454
C28   C     C_R   0.839250 0.567356 0.978584 0.026453
C29   C     C_R   0.208150 0.549128 0.979918 -0.275247
C30   C     C_R   0.791852 0.450878 0.020083 -0.275255
C31   C     C_R   0.931473 0.501770 0.380381 -0.236595
C32   C     C_R   0.068526 0.498235 0.619620 -0.236592
H1    H     H_    0.248799 0.560567 0.881692 0.150084
H2    H     H_    0.751204 0.439439 0.118309 0.150084
H3    H     H_    0.541616 0.693401 0.873407 0.194735
H4    H     H_    0.458383 0.306599 0.126593 0.194734
H5    H     H_    0.242334 0.741389 0.033059 0.161542
H6    H     H_    0.757677 0.258614 0.966947 0.161543
H7    H     H_    0.155656 0.719714 0.261259 0.127178
H8    H     H_    0.844354 0.280289 0.738747 0.127182
H9    H     H_    0.074321 0.331675 0.184984 0.171227
H10   H     H_    0.925671 0.668332 0.815011 0.171228
H11   H     H_    0.879282 0.503560 0.286861 0.148656
H12   H     H_    0.120717 0.496445 0.713139 0.148657
H13   H     H_    0.418533 0.114523 0.298437 0.165226
H14   H     H_    0.581467 0.885476 0.701563 0.165229
H15   H     H_    0.419351 0.887659 0.297785 0.193940
H16   H     H_    0.580649 0.112341 0.702214 0.193940
N1    N     N_R   0.499970 0.499970 0.857200 -0.156932
N2    N     N_R   0.500030 0.500030 0.142800 -0.156931
O1    O     O_R   0.499990 0.316750 0.614620 -0.550796
O2    O     O_R   0.500010 0.683250 0.385380 -0.550796
O3    O     O_R   0.499990 0.316780 0.385290 -0.640404
O4    O     O_R   0.500010 0.683220 0.614710 -0.640405
O5    O     O_R   0.316760 0.500000 0.614660 -0.630408
O6    O     O_R   0.683240 0.500000 0.385340 -0.630407
O7    O     O_R   0.316760 0.500020 0.385330 -0.609747
O8    O     O_R   0.683240 0.499980 0.614670 -0.609748
Zn1   Zn    Zn3+2 0.500000 0.499980 0.653120 0.987929
Zn2   Zn    Zn3+2 0.500000 0.500020 0.346880 0.987929
C33   C     C_2   0.165036 0.324005 0.929979 0.410800
H17   H     H_    0.210501 0.332100 0.833575 0.112480
O9    O     O_2   0.118318 0.223829 0.961184 -0.554220
C34   C     C_2   0.834956 0.676004 0.070016 0.410822
H18   H     H_    0.789501 0.667909 0.166423 0.112479
O10   O     O_2   0.881654 0.776181 0.038802 -0.554227
F1    F     F_    0.546027 0.716564 0.134940 -0.672095
F2    F     F_    0.453971 0.283437 0.865060 -0.672096

loop_
_geom_bond_atom_site_label_1
_geom_bond_atom_site_label_2
_ccdc_geom_bond_type
C7    C9    A    
C1    O3    A    
C14   C16   A    
O5    Zn1   S    
C27   C29   A    
C27   C33   S    
C19   H5    S    
C17   O5    A    
C26   C28   A    
N1    Zn1   S    
C13   C15   A    
C18   O6    A    
C5    C32   A    
N2    Zn2   S    
C34   H18   S    
C28   C30   A    
C6    C31   A    
C32   H12   S    
C22   H8    S    
C20   C30   A    
C31   H11   S    
C16   H4    S    
C3    C31   A    
C9    C11   A    
C34   O10   D    
C4    C32   A    
C1    C12   S    
C2    O2    A    
C8    C11   A    
C6    C23   S    
C7    H13   S    
C4    C6    A    
C19   C21   A    
O3    Zn2   S    
C20   C22   A    
C9    H15   S    
C10   C12   A    
O4    Zn1   S    
C15   N1    A    
C21   C23   A    
C10   H16   S    
C33   H17   S    
C16   N2    A    
C22   C24   A    
C7    C12   A    
C14   N1    A    
O1    Zn1   S    
C30   H2    S    
C13   N2    A    
C19   C29   A    
C28   C34   S    
C23   C25   A    
C20   H6    S    
C26   H10   S    
C3    C18   S    
C4    C17   S    
C2    O4    A    
C25   H9    S    
C15   H3    S    
C14   F2    S    
C5    C24   S    
O7    Zn2   S    
C2    C11   S    
C1    O1    A    
O2    Zn2   S    
C8    H14   S    
C3    C5    A    
O8    Zn1   S    
C17   O7    A    
C18   O8    A    
C8    C10   A    
C13   F1    S    
O6    Zn2   S    
C29   H1    S    
C24   C26   A    
C33   O9    D    
C25   C27   A    
C21   H7    S    
