data_mof_unit_22279.cif
_audit_creation_date              2012-12-10T17:48:58-0500
_audit_creation_method            fapswitch 2.2
_symmetry_space_group_name_H-M    P1
_symmetry_Int_Tables_number       1
_space_group_crystal_system       triclinic
_cell_length_a                    10.739589
_cell_length_b                    14.688292
_cell_length_c                    14.705854
_cell_angle_alpha                 65.192423
_cell_angle_beta                  103.214059
_cell_angle_gamma                 102.919127
_cell_volume                      2028.4677286

loop_
_atom_site_label
_atom_site_type_symbol
_atom_type_description
_atom_site_fract_x
_atom_site_fract_y
_atom_site_fract_z
_atom_type_partial_charge
C1    C     C_R   0.479214 0.119673 0.312267 0.786967
C2    C     C_3   0.877252 0.998429 0.500801 0.080565
C3    C     C_3   0.951249 0.979872 0.608996 -0.410864
C4    C     C_3   0.936564 0.101800 0.426223 -0.367736
C5    C     C_R   0.476604 0.187213 0.204993 -0.056866
C6    C     C_R   0.541197 0.812806 0.795280 -0.049783
C7    C     C_R   0.472864 0.216322 0.029972 -0.185111
C8    C     C_R   0.465124 0.149512 0.129957 -0.195319
C9    C     C_R   0.494065 0.291833 0.178912 -0.251404
C10   C     C_R   0.508610 0.360811 0.079805 0.089625
C11   C     C_R   0.494741 0.321418 0.004392 0.155541
C12   C     C_R   0.260339 0.998566 0.503216 0.807832
C13   C     C_R   0.534720 0.467495 0.053558 0.065120
C14   C     C_R   0.533074 0.533585 0.949816 0.065995
C15   C     C_R   0.521441 0.491185 0.877158 -0.220195
C16   C     C_R   0.503516 0.387113 0.904380 -0.218276
C17   C     C_R   0.565301 0.510232 0.127676 -0.222318
C18   C     C_R   0.585768 0.614324 0.100587 -0.223665
C19   C     C_R   0.573942 0.679670 0.999012 0.161923
C20   C     C_R   0.545513 0.640042 0.922515 0.091675
C21   C     C_R   0.589532 0.784598 0.973074 -0.194715
C22   C     C_R   0.574229 0.850905 0.871723 -0.150959
C23   C     C_R   0.522983 0.880314 0.687727 0.832462
C24   C     C_R   0.526324 0.708286 0.821092 -0.265839
C25   C     C_R   0.715407 0.285312 0.668179 -0.310495
C26   C     C_R   0.682343 0.203628 0.638460 0.075068
C27   C     C_R   0.517979 0.284596 0.509840 0.054984
C28   C     C_R   0.547242 0.370726 0.535968 -0.017801
C29   C     C_R   0.648168 0.368866 0.617531 0.157062
C30   C     C_R   0.480370 0.457496 0.485140 0.081661
C31   C     C_R   0.516402 0.540894 0.517231 0.078989
C32   C     C_R   0.616710 0.534043 0.599852 -0.241191
C33   C     C_R   0.681011 0.449900 0.648560 -0.197391
C34   C     C_R   0.739672 0.999873 0.499321 0.773934
C35   C     C_R   0.378880 0.463769 0.403397 -0.216176
C36   C     C_R   0.314133 0.547684 0.355054 -0.190873
C37   C     C_R   0.348292 0.629381 0.385093 0.160643
C38   C     C_R   0.450306 0.628060 0.465813 -0.022590
C39   C     C_R   0.281220 0.713025 0.334329 -0.311538
C40   C     C_R   0.315882 0.795521 0.362816 0.074731
C41   C     C_R   0.481545 0.715179 0.490416 0.004989
C42   C     C_3   0.036400 0.913711 0.471676 -0.453574
C43   C     C_3   0.893108 0.913252 0.470048 -0.382460
C44   C     C_3   0.095756 0.976150 0.613887 0.326483
C45   C     C_3   0.079801 0.100917 0.426546 -0.368410
C46   C     C_3   0.122535 0.998600 0.504958 0.023353
Cu1   Cu    Cu3+1 0.465900 0.918260 0.475680 0.928092
Cu2   Cu    Cu3+1 0.534100 0.081740 0.524320 0.970010
H1    H     H_    0.063502 0.838057 0.524586 0.180103
H2    H     H_    0.929118 0.164098 0.448122 0.195027
H3    H     H_    0.939913 0.041069 0.630985 0.219556
H4    H     H_    0.495527 0.357894 0.846380 0.160131
H5    H     H_    0.495921 0.681564 0.760535 0.153226
H6    H     H_    0.586656 0.931612 0.853328 0.157829
H7    H     H_    0.609154 0.643802 0.159783 0.146999
H8    H     H_    0.463251 0.185843 0.972748 0.147464
H9    H     H_    0.451587 0.068704 0.148624 0.158273
H10   H     H_    0.494414 0.317619 0.237488 0.145304
H11   H     H_    0.051098 0.925519 0.394697 0.191722
H12   H     H_    0.529894 0.536406 0.798627 0.143689
H13   H     H_    0.578188 0.465483 0.207959 0.144511
H14   H     H_    0.612764 0.815299 0.031302 0.134143
H15   H     H_    0.757463 0.448238 0.711578 0.145083
H16   H     H_    0.559351 0.721909 0.549036 0.119537
H17   H     H_    0.264666 0.860341 0.323390 0.124331
H18   H     H_    0.236506 0.548768 0.292920 0.144637
H19   H     H_    0.792737 0.282973 0.730756 0.148260
H20   H     H_    0.733359 0.138704 0.678033 0.131867
H21   H     H_    0.441392 0.278405 0.450280 0.119271
H22   H     H_    0.839504 0.924483 0.392631 0.184553
H23   H     H_    0.647906 0.592565 0.629447 0.126199
H24   H     H_    0.346506 0.404703 0.374606 0.130760
H25   H     H_    0.202745 0.714786 0.272633 0.142343
H26   H     H_    0.852335 0.837985 0.523263 0.173139
H27   H     H_    0.114360 0.897284 0.663131 0.076025
H28   H     H_    0.907734 0.907159 0.664159 0.125505
H29   H     H_    0.140327 0.166253 0.441751 0.216065
H30   H     H_    0.093018 0.111883 0.349502 0.146747
H31   H     H_    0.882345 0.117837 0.348230 0.155304
N1    N     N_R   0.585360 0.204570 0.560800 -0.179248
N2    N     N_R   0.414550 0.795430 0.439160 -0.177516
O1    O     O_R   0.455060 0.022100 0.338110 -0.589008
O2    O     O_R   0.512640 0.160150 0.379180 -0.597449
O3    O     O_R   0.288900 0.930980 0.479450 -0.602144
O4    O     O_R   0.346480 0.069030 0.520520 -0.517782
O5    O     O_R   0.487360 0.839850 0.620820 -0.598828
O6    O     O_R   0.544940 0.977900 0.661890 -0.561820
O7    O     O_R   0.653520 0.930970 0.479480 -0.592966
O8    O     O_R   0.711100 0.069020 0.520550 -0.593313
S1    S     S_3+6 0.196674 0.053537 0.679385 -0.020085
O9    O     O_2   0.209270 0.164064 0.611212 -0.314051
O10   O     O_2   0.137403 0.038210 0.768942 -0.301573
O11   O     O_3   0.343817 0.017259 0.722951 -0.530427
H32   H     H_    0.395788 0.067609 0.750226 0.366453

loop_
_geom_bond_atom_site_label_1
_geom_bond_atom_site_label_2
_ccdc_geom_bond_type
O11   H32   S    
C15   H12   S    
C19   C20   A    
C25   H19   S    
C7    C8    A    
C22   H6    S    
C45   C46   S    
C7    C11   A    
C30   C35   A    
C1    C5    S    
C36   C37   A    
C19   C21   A    
C18   C19   A    
C30   C31   A    
C36   H18   S    
C15   C16   A    
C6    C22   A    
C29   C33   A    
C12   O3    A    
C9    H10   S    
C42   C46   S    
Cu1   O1    S    
C20   C24   A    
C17   H13   S    
Cu1   Cu2   S    
C23   O5    A    
C45   H30   S    
C9    C10   A    
C27   H21   S    
C2    C34   S    
C43   H26   S    
C39   H25   S    
C41   N2    A    
C23   O6    A    
C21   C22   A    
C7    H8    S    
C44   C46   S    
C32   H23   S    
C4    C45   S    
C25   C29   A    
C3    C44   S    
Cu1   O5    S    
C14   C20   A    
C24   H5    S    
C4    H31   S    
C12   C46   S    
C27   N1    A    
C39   C40   A    
C3    H3    S    
C1    O1    A    
C26   N1    A    
C4    H2    S    
C35   C36   A    
C44   H27   S    
C2    C4    S    
C5    C9    A    
C37   C38   A    
C8    H9    S    
C11   C16   A    
S1    O10   D    
C31   C32   A    
C2    C43   S    
C33   H15   S    
C6    C24   A    
C17   C18   A    
Cu2   O6    S    
C34   O7    A    
Cu1   O3    S    
C3    H28   S    
C21   H14   S    
C18   H7    S    
C38   C41   A    
C12   O4    A    
C35   H24   S    
C43   H22   S    
Cu2   O8    S    
C42   C43   S    
C44   S1    S    
S1    O11   S    
C28   C29   A    
C14   C15   A    
C40   N2    A    
C16   H4    S    
C10   C13   A    
C42   H11   S    
C5    C8    A    
Cu2   O2    S    
C1    O2    A    
C31   C38   A    
C13   C17   A    
C40   H17   S    
C26   H20   S    
Cu1   O7    S    
Cu2   N1    S    
C28   C30   A    
C2    C3    S    
C25   C26   A    
C34   O8    A    
C37   C39   A    
C32   C33   A    
S1    O9    D    
C6    C23   S    
Cu1   N2    S    
C10   C11   A    
C42   H1    S    
C27   C28   A    
Cu2   O4    S    
C45   H29   S    
C41   H16   S    
C13   C14   A    
