data_mof_unit_23267.cif
_audit_creation_date              2012-12-11T15:32:11-0500
_audit_creation_method            fapswitch 2.2
_symmetry_space_group_name_H-M    P1
_symmetry_Int_Tables_number       1
_space_group_crystal_system       triclinic
_cell_length_a                    13.530584
_cell_length_b                    13.606063
_cell_length_c                    27.662022
_cell_angle_alpha                 90.241288
_cell_angle_beta                  90.101509
_cell_angle_gamma                 120.082217
_cell_volume                      4406.51195629

loop_
_atom_site_label
_atom_site_type_symbol
_atom_type_description
_atom_site_fract_x
_atom_site_fract_y
_atom_site_fract_z
_atom_type_partial_charge
C1    C     C_R   0.619837 0.898454 0.431325 0.542080
C2    C     C_R   0.274801 0.898158 0.257551 -0.104843
C3    C     C_R   0.255809 0.888353 0.207579 -0.105632
C4    C     C_R   0.600596 0.219831 0.431649 0.546413
C5    C     C_R   0.051836 0.775672 0.221470 -0.101947
C6    C     C_R   0.070793 0.785481 0.271448 -0.104095
C7    C     C_R   0.182442 0.846463 0.289605 0.040734
C8    C     C_R   0.144247 0.826764 0.189421 0.041061
C9    C     C_1   0.123012 0.812272 0.138119 -0.055348
C10   C     C_1   0.204330 0.853670 0.340851 -0.056631
C11   C     C_1   0.096201 0.793559 0.096043 -0.011090
C12   C     C_R   0.728576 0.485334 0.232673 -0.105739
C13   C     C_1   0.635645 0.865780 0.383872 -0.014059
C14   C     C_R   0.731974 0.805195 0.272467 -0.107092
C15   C     C_R   0.740153 0.794613 0.222524 -0.106240
C16   C     C_R   0.279399 0.878867 0.430581 0.543568
C17   C     C_R   0.580582 0.825618 0.209495 -0.105570
C18   C     C_R   0.572506 0.836425 0.259457 -0.105267
C19   C     C_R   0.648393 0.826621 0.291048 0.039572
C20   C     C_R   0.664874 0.805258 0.190908 0.040335
C21   C     C_1   0.676199 0.795831 0.139583 -0.056446
C22   C     C_1   0.643347 0.844992 0.342081 -0.057721
C23   C     C_R   0.714672 0.456836 0.281736 -0.103594
C24   C     C_1   0.692720 0.786064 0.097464 -0.011888
C25   C     C_R   0.635431 0.265711 0.617692 0.021725
C26   C     C_R   0.692105 0.222573 0.645417 -0.132011
C27   C     C_R   0.700658 0.237347 0.694824 -0.136277
C28   C     C_R   0.620446 0.900310 0.568956 0.536856
C29   C     C_R   0.657422 0.300003 0.717323 0.027162
C30   C     C_R   0.609132 0.351446 0.689148 -0.131702
C31   C     C_R   0.596028 0.332353 0.639487 -0.143261
C32   C     C_R   0.571158 0.310916 0.794519 -0.132477
C33   C     C_R   0.581238 0.335455 0.843375 -0.140312
C34   C     C_R   0.685908 0.346904 0.295863 0.039704
C35   C     C_R   0.761498 0.335779 0.846164 0.014526
C36   C     C_R   0.752332 0.315781 0.796416 -0.096235
C37   C     C_R   0.660513 0.309236 0.770106 0.019913
C38   C     C_R   0.680638 0.357968 0.868788 0.028002
C39   C     C_R   0.229511 0.866164 0.616250 -0.022769
C40   C     C_R   0.601262 0.221356 0.568953 0.536465
C41   C     C_R   0.266750 0.961738 0.646235 -0.144847
C42   C     C_R   0.243690 0.948385 0.695196 -0.180924
C43   C     C_R   0.180260 0.839624 0.714603 0.031935
C44   C     C_R   0.130641 0.742897 0.684327 0.278529
C45   C     C_R   0.713649 0.404008 0.197692 0.040073
C46   C     C_R   0.160371 0.757069 0.635007 -0.129914
C47   C     C_R   0.202471 0.772129 0.796675 0.063153
C48   C     C_R   0.169483 0.754641 0.845323 -0.120135
C49   C     C_R   0.069508 0.859430 0.834921 -0.137883
C50   C     C_R   0.100265 0.876427 0.786806 -0.154225
C51   C     C_R   0.161827 0.828975 0.766823 0.068121
C52   C     C_R   0.280422 0.881796 0.568441 0.538282
C53   C     C_R   0.099652 0.794398 0.863883 0.004794
C54   C     C_R   0.635280 0.859724 0.615986 -0.008134
C55   C     C_R   0.536632 0.803700 0.644664 -0.161147
C56   C     C_1   0.722076 0.431175 0.147136 -0.057629
C57   C     C_R   0.543275 0.776748 0.692050 -0.186771
C58   C     C_R   0.648340 0.804387 0.711907 0.021731
C59   C     C_R   0.746920 0.849396 0.682775 0.286850
C60   C     C_R   0.741956 0.880173 0.634413 0.016973
C61   C     C_R   0.722376 0.894639 0.791149 -0.072241
C62   C     C_R   0.737165 0.888649 0.841121 0.272522
C63   C     C_R   0.605511 0.683927 0.836619 -0.184205
C64   C     C_1   0.637654 0.275771 0.385994 -0.014305
C65   C     C_R   0.593550 0.691326 0.787136 -0.163424
C66   C     C_R   0.655860 0.795890 0.764169 0.010060
C67   C     C_1   0.662709 0.312895 0.345621 -0.056553
C68   C     C_R   0.680560 0.781076 0.863639 0.034744
C69   C     C_R   0.049101 0.760877 0.048280 0.537823
C70   C     C_R   0.734913 0.485782 0.055065 0.558761
C71   C     C_R   0.723224 0.770507 0.049569 0.541206
C72   C     C_R   0.044438 0.756186 0.910685 0.540822
C73   C     C_R   0.706283 0.425206 0.913453 0.549458
C74   C     C_R   0.717324 0.765287 0.911605 0.568748
C75   C     C_R   0.672749 0.266324 0.260887 -0.104201
C76   C     C_R   0.686630 0.294788 0.211949 -0.101346
C77   C     C_3   0.856778 0.330842 0.872854 -0.263201
C78   C     C_1   0.727896 0.454466 0.104874 -0.010065
C79   C     C_3   0.973788 0.430234 0.859409 -0.417475
C80   C     C_3   0.285278 0.735770 0.778757 -0.254012
C81   C     C_3   0.236544 0.607537 0.782279 -0.426813
C82   C     C_3   0.969457 0.563874 0.675172 -0.140134
C83   C     C_3   0.905886 0.061830 0.847296 -0.115798
C84   C     C_3   0.848154 0.762916 0.700731 -0.128142
C85   C     C_3   0.849143 0.932381 0.603564 -0.258678
C86   C     C_3   0.840704 0.852504 0.562731 -0.437249
C87   C     C_1   0.231811 0.862675 0.382854 -0.013292
Cr1   Cr    Cr6+3 0.417720 0.831920 0.499820 1.021583
Cr2   Cr    Cr6+3 0.668190 0.085770 0.500360 1.014879
Cr3   Cr    Cr6+3 0.414060 0.082260 0.499840 1.022732
Cr4   Cr    Cr6+3 0.908000 0.821090 0.979770 1.036965
Cr5   Cr    Cr6+3 0.912420 0.571130 0.979880 1.012100
Cr6   Cr    Cr6+3 0.657970 0.566940 0.980940 1.016842
H1    H     H_    0.649709 0.180820 0.271402 0.109721
H2    H     H_    0.578482 0.403452 0.705616 0.101426
H3    H     H_    0.674547 0.231200 0.185225 0.114207
H4    H     H_    0.552151 0.366052 0.618510 0.119474
H5    H     H_    0.321166 0.046820 0.632623 0.152405
H6    H     H_    0.196397 0.708446 0.868580 0.119979
H7    H     H_    0.278530 0.022892 0.718360 0.120759
H8    H     H_    0.071975 0.923093 0.764556 0.130440
H9    H     H_    0.015813 0.891125 0.848614 0.138789
H10   H     H_    0.133504 0.683984 0.611621 0.117250
H11   H     H_    0.454016 0.786532 0.631391 0.155114
H12   H     H_    0.805892 0.779208 0.208487 0.098688
H13   H     H_    0.749067 0.569926 0.221971 0.099401
H14   H     H_    0.762799 0.975678 0.772871 0.114404
H15   H     H_    0.467195 0.739888 0.714094 0.119928
H16   H     H_    0.539261 0.615011 0.766450 0.112650
H17   H     H_    0.561714 0.600679 0.853061 0.140494
H18   H     H_    0.724327 0.519590 0.308428 0.106993
H19   H     H_    0.361607 0.945084 0.271211 0.103401
H20   H     H_    0.327890 0.927707 0.183220 0.107859
H21   H     H_    0.965218 0.727204 0.207771 0.098247
H22   H     H_    0.998775 0.744670 0.295783 0.103651
H23   H     H_    0.522000 0.834093 0.185466 0.109554
H24   H     H_    0.791560 0.798182 0.296424 0.104104
H25   H     H_    0.997220 0.418429 0.822278 0.127314
H26   H     H_    0.973100 0.511285 0.860780 0.204880
H27   H     H_    0.039591 0.435100 0.884897 0.131806
H28   H     H_    0.845190 0.327191 0.912566 0.170401
H29   H     H_    0.854112 0.250279 0.863204 0.144592
H30   H     H_    0.224420 0.580296 0.820606 0.131665
H31   H     H_    0.153610 0.560639 0.762984 0.206617
H32   H     H_    0.297148 0.584828 0.765673 0.125810
H33   H     H_    0.310649 0.761781 0.740797 0.150969
H34   H     H_    0.508001 0.853810 0.273431 0.107196
H35   H     H_    0.364797 0.779519 0.800777 0.136517
H36   H     H_    0.996259 0.520859 0.648391 0.121898
H37   H     H_    0.930040 0.608583 0.656785 0.099210
H38   H     H_    0.902536 0.496841 0.698029 0.154186
H39   H     H_    0.894323 0.116655 0.820971 0.098885
H40   H     H_    0.946705 0.017645 0.829529 0.111811
H41   H     H_    0.965546 0.118283 0.875707 0.139458
H42   H     H_    0.934451 0.778856 0.710169 0.158849
H43   H     H_    0.827675 0.723824 0.663980 0.103957
H44   H     H_    0.787503 0.702294 0.727617 0.134824
H45   H     H_    0.721707 0.168944 0.629634 0.142825
H46   H     H_    0.824358 0.770069 0.577652 0.141231
H47   H     H_    0.771293 0.836947 0.537007 0.160849
H48   H     H_    0.922437 0.891314 0.542539 0.140520
H49   H     H_    0.866161 0.014846 0.588623 0.161066
H50   H     H_    0.925984 0.952438 0.625393 0.187057
H51   H     H_    0.495640 0.298437 0.775507 0.104111
H52   H     H_    0.514579 0.345498 0.860207 0.132316
H53   H     H_    0.736014 0.194561 0.715354 0.102606
H54   H     H_    0.819462 0.309043 0.778238 0.100773
O1    O     O_R   0.302900 0.805360 0.446400 -0.504316
O2    O     O_R   0.638120 0.455970 0.034270 -0.499838
O3    O     O_R   0.667540 0.672320 0.030160 -0.509848
O4    O     O_R   0.522090 0.841370 0.450730 -0.492309
O5    O     O_R   0.814460 0.840990 0.926980 -0.463306
O6    O     O_R   0.001710 0.811400 0.930110 -0.502004
O7    O     O_R   0.023410 0.659800 0.926210 -0.526798
O8    O     O_R   0.806940 0.473170 0.931090 -0.497919
O9    O     O_R   0.633420 0.451310 0.927930 -0.520797
O10   O     O_R   0.663190 0.668000 0.931580 -0.516113
O11   O     O_3   0.826130 0.653050 0.980200 -0.268493
O12   O     O_R   0.657980 0.180990 0.549630 -0.509052
O13   O     O_R   0.693280 0.995650 0.447220 -0.506337
O14   O     O_R   0.657260 0.178740 0.451050 -0.492548
O15   O     O_R   0.502640 0.195380 0.446850 -0.504157
O16   O     O_R   0.319630 0.976590 0.450330 -0.493042
O17   O     O_R   0.303680 0.807790 0.552740 -0.520639
O18   O     O_R   0.522820 0.843620 0.549310 -0.502386
O19   O     O_R   0.694060 0.998080 0.553560 -0.526950
O20   O     O_3   0.062299 0.636949 0.705192 -0.583973
O21   O     O_3   0.800853 0.985582 0.869307 -0.552226
O22   O     O_3   0.848948 0.867025 0.702136 -0.595924
O23   O     O_R   0.503420 0.197810 0.553190 -0.518180
O24   O     O_R   0.320350 0.978840 0.548910 -0.501481
O25   O     O_3   0.499990 0.999990 0.500010 -0.244188
O26   O     O_R   0.819150 0.845650 0.033320 -0.499946
O27   O     O_R   0.006060 0.815720 0.028680 -0.495621
O28   O     O_R   0.028100 0.664460 0.032550 -0.510695
O29   O     O_R   0.811290 0.477490 0.029660 -0.490862

loop_
_geom_bond_atom_site_label_1
_geom_bond_atom_site_label_2
_ccdc_geom_bond_type
C25   C31   A    
C7    C10   S    
C62   O21   S    
C63   C65   A    
C84   H42   S    
Cr1   O25   S    
C5    H21   S    
C27   C29   A    
C41   C42   A    
C40   O12   A    
Cr6   O2    S    
C2    C7    A    
C75   C76   A    
C85   H50   S    
C40   O23   A    
C39   C41   A    
C54   C60   A    
C85   C86   S    
Cr5   O29   S    
C12   C23   A    
C2    H19   S    
C26   C27   A    
C29   C30   A    
C81   H30   S    
C1    O13   A    
C5    C6    A    
C36   C37   A    
Cr4   O6    S    
C25   C40   S    
C30   C31   A    
C71   O3    A    
C70   C78   S    
C68   C74   S    
C79   H25   S    
C17   C20   A    
C56   C78   T    
Cr4   O26   S    
Cr5   O11   S    
C18   C19   A    
C49   C50   A    
C83   H41   S    
C77   H29   S    
C63   C68   A    
C73   O8    A    
C58   C66   S    
C35   C36   A    
C45   C56   S    
C8    C9    S    
Cr4   O11   S    
C79   H26   S    
Cr3   O24   S    
C16   C87   S    
C82   H37   S    
C86   H47   S    
C34   C75   A    
C23   C34   A    
C39   C52   S    
C59   C60   A    
Cr5   O28   S    
C74   O5    A    
Cr6   O3    S    
C48   C53   A    
C70   O2    A    
C47   C80   S    
C61   C66   A    
C52   O24   A    
Cr2   O14   S    
C44   C46   A    
Cr2   O12   S    
C82   O20   S    
C77   C79   S    
C16   O16   A    
C15   C20   A    
C6    H22   S    
C10   C87   T    
C72   O7    A    
C17   H23   S    
C81   H31   S    
C64   C67   T    
C19   C22   S    
C3    C8    A    
C3    H20   S    
C49   H9    S    
C28   C54   S    
C12   C45   A    
C47   C51   A    
C80   H35   S    
C25   C26   A    
Cr1   O17   S    
C55   H11   S    
C35   C77   S    
C71   O26   A    
Cr4   O27   S    
C44   O20   S    
C34   C67   S    
C43   C44   A    
C30   H2    S    
C42   H7    S    
C18   H34   S    
C36   H54   S    
C47   C48   A    
C14   C15   A    
C14   H24   S    
C79   H27   S    
Cr3   O23   S    
C50   C51   A    
Cr1   O1    S    
C32   C37   A    
C82   H36   S    
Cr6   O10   S    
C9    C11   T    
C65   H16   S    
C33   H52   S    
C28   O18   A    
C52   O17   A    
C39   C46   A    
C86   H46   S    
C75   H1    S    
Cr3   O15   S    
C84   H44   S    
C84   O22   S    
C55   C57   A    
Cr1   O4    S    
C4    O15   A    
C1    C13   S    
C42   C43   A    
C29   C37   S    
Cr6   O11   S    
Cr2   O13   S    
C83   O21   S    
C48   H6    S    
C54   C55   A    
C84   H43   S    
C72   O6    A    
C74   O10   A    
C81   H32   S    
C4    O14   A    
C14   C19   A    
Cr6   O9    S    
Cr2   O25   S    
C80   C81   S    
C26   H45   S    
C85   H49   S    
C5    C8    A    
C60   C85   S    
C11   C69   S    
C6    C7    A    
C28   O19   A    
C23   H18   S    
C46   H10   S    
C4    C64   S    
C33   C38   A    
C17   C18   A    
C62   C68   A    
Cr3   O16   S    
C16   O1    A    
C32   H51   S    
C32   C33   A    
C15   H12   S    
C63   H17   S    
C2    C3    A    
C58   C59   A    
C83   H39   S    
Cr1   O18   S    
C76   H3    S    
C12   H13   S    
C43   C51   S    
C57   C58   A    
Cr4   O5    S    
C80   H33   S    
C27   H53   S    
C49   C53   A    
C73   O9    A    
C45   C76   A    
C13   C22   T    
C1    O4    A    
Cr5   O8    S    
C31   H4    S    
C61   C62   A    
C61   H14   S    
Cr2   O19   S    
C83   H40   S    
C77   H28   S    
C57   H15   S    
C20   C21   S    
C24   C71   S    
C50   H8    S    
C65   C66   A    
C69   O27   A    
C21   C24   T    
Cr3   O25   S    
C35   C38   A    
Cr5   O7    S    
C69   O28   A    
C82   H38   S    
C59   O22   S    
C53   C72   S    
C70   O29   A    
C41   H5    S    
C86   H48   S    
C38   C73   S    
