data_mof_unit_62814.cif
_audit_creation_date              2012-12-10T17:35:29-0500
_audit_creation_method            fapswitch 2.2
_symmetry_space_group_name_H-M    P1
_symmetry_Int_Tables_number       1
_space_group_crystal_system       triclinic
_cell_length_a                    36.887983
_cell_length_b                    30.074947
_cell_length_c                    21.686158
_cell_angle_alpha                 89.999672
_cell_angle_beta                  54.631508
_cell_angle_gamma                 89.999882
_cell_volume                      19618.5870772

loop_
_atom_site_label
_atom_site_type_symbol
_atom_type_description
_atom_site_fract_x
_atom_site_fract_y
_atom_site_fract_z
_atom_type_partial_charge
C1    C     C_R   0.913271 0.500006 0.586823 0.877690
C2    C     C_R   0.086729 0.500006 0.413178 0.877774
C3    C     C_R   0.413271 0.000006 0.586821 0.877793
C4    C     C_R   0.586729 0.000006 0.413180 0.877940
C5    C     C_3   0.985212 0.453837 0.228703 -0.216493
C6    C     C_3   0.014724 0.453826 0.771368 -0.216517
C7    C     C_3   0.485114 0.953854 0.228811 -0.216452
C8    C     C_3   0.514770 0.953834 0.771318 -0.216493
C9    C     C_R   0.657207 0.472667 0.882240 -0.240107
C10   C     C_R   0.342792 0.472668 0.117759 -0.240101
C11   C     C_R   0.157208 0.972673 0.882246 -0.240083
C12   C     C_R   0.842792 0.972671 0.117756 -0.240077
C13   C     C_R   0.634409 0.501929 0.866310 -0.052641
C14   C     C_R   0.365591 0.501929 0.133690 -0.052645
C15   C     C_R   0.134409 0.001930 0.866309 -0.052645
C16   C     C_R   0.865591 0.001929 0.133690 -0.052645
C17   C     C_R   0.656906 0.531977 0.805892 0.065773
C18   C     C_R   0.343094 0.531975 0.194109 0.065774
C19   C     C_R   0.156906 0.031973 0.805884 0.065776
C20   C     C_R   0.843094 0.031974 0.194113 0.065776
C21   C     C_R   0.703570 0.532291 0.760182 0.096619
C22   C     C_R   0.296430 0.532289 0.239820 0.096619
C23   C     C_R   0.203570 0.032286 0.760173 0.096619
C24   C     C_R   0.796430 0.032287 0.239825 0.096620
C25   C     C_R   0.726773 0.501725 0.775531 0.002949
C26   C     C_R   0.273226 0.501725 0.224470 0.002954
C27   C     C_R   0.226774 0.001725 0.775528 0.002953
C28   C     C_R   0.773226 0.001725 0.224472 0.002962
C29   C     C_R   0.703488 0.471741 0.836832 0.083491
C30   C     C_R   0.296512 0.471742 0.163167 0.083493
C31   C     C_R   0.203489 0.971746 0.836838 0.083495
C32   C     C_R   0.796511 0.971745 0.163165 0.083499
C33   C     C_R   0.727527 0.562277 0.699570 -0.192182
C34   C     C_R   0.272473 0.562274 0.300434 -0.192183
C35   C     C_R   0.227527 0.062267 0.699552 -0.192183
C36   C     C_R   0.772474 0.062270 0.300442 -0.192183
C37   C     C_R   0.773594 0.562071 0.654575 -0.175003
C38   C     C_R   0.226406 0.562068 0.345429 -0.174995
C39   C     C_R   0.273594 0.062060 0.654555 -0.175005
C40   C     C_R   0.726406 0.062063 0.345439 -0.174986
C41   C     C_R   0.796549 0.531712 0.668755 0.148241
C42   C     C_R   0.203452 0.531711 0.331248 0.148251
C43   C     C_R   0.296549 0.031706 0.668743 0.148252
C44   C     C_R   0.703451 0.031708 0.331254 0.148268
C45   C     C_R   0.997940 0.499995 0.380770 0.905280
C46   C     C_R   0.002054 0.499995 0.619237 0.905201
C47   C     C_R   0.497930 0.999996 0.380779 0.905421
C48   C     C_R   0.502058 0.999995 0.619232 0.905266
C49   C     C_R   0.773305 0.501135 0.729258 0.031503
C50   C     C_R   0.226695 0.501135 0.270744 0.031497
C51   C     C_R   0.273305 0.001135 0.729254 0.031497
C52   C     C_R   0.726695 0.001135 0.270746 0.031488
C53   C     C_R   0.796726 0.470056 0.742997 0.025179
C54   C     C_R   0.203274 0.470057 0.257003 0.025172
C55   C     C_R   0.296727 0.970061 0.743002 0.025175
C56   C     C_R   0.703273 0.970060 0.257002 0.025160
C57   C     C_R   0.773376 0.440312 0.804477 0.220475
C58   C     C_R   0.226624 0.440314 0.195522 0.220505
C59   C     C_R   0.273376 0.940322 0.804490 0.220502
C60   C     C_R   0.726623 0.940319 0.195516 0.220556
C61   C     C_R   0.726658 0.441273 0.851542 0.042879
C62   C     C_R   0.273342 0.441275 0.148456 0.042881
C63   C     C_R   0.226659 0.941283 0.851555 0.042887
C64   C     C_R   0.773341 0.941280 0.148450 0.042889
C65   C     C_R   0.842591 0.531397 0.622830 -0.226190
C66   C     C_R   0.157409 0.531395 0.377172 -0.226211
C67   C     C_R   0.342592 0.031390 0.622817 -0.226222
C68   C     C_R   0.657409 0.031392 0.377180 -0.226256
C69   C     C_R   0.865514 0.500219 0.635342 -0.058051
C70   C     C_R   0.134486 0.500219 0.364660 -0.058049
C71   C     C_R   0.365515 0.000218 0.635339 -0.058042
C72   C     C_R   0.634486 0.000218 0.364663 -0.058042
C73   C     C_R   0.843112 0.469684 0.694457 -0.153790
C74   C     C_R   0.156888 0.469685 0.305544 -0.153654
C75   C     C_R   0.343112 0.969689 0.694462 -0.153688
C76   C     C_R   0.656888 0.969687 0.305543 -0.153446
C77   C     C_R   0.000000 0.586683 0.999999 0.867548
C78   C     C_R   0.500000 0.086683 0.999998 0.867444
C79   C     C_R   0.000333 0.499725 0.120870 0.906292
C80   C     C_R   0.999667 0.499735 0.879130 0.906325
C81   C     C_R   0.500333 0.999709 0.120870 0.906240
C82   C     C_R   0.499667 0.999728 0.879130 0.906296
C83   C     C_R   1.000000 0.413291 0.000000 0.833865
C84   C     C_R   0.500000 0.913291 0.000000 0.833856
C85   C     C_3   0.971605 0.543332 0.313413 0.262218
C86   C     C_3   0.028445 0.543299 0.686528 0.262185
C87   C     C_3   0.471686 0.043385 0.313319 0.262265
C88   C     C_3   0.528408 0.043323 0.686571 0.262212
C89   C     C_R   0.500000 0.413574 0.000000 0.824945
C90   C     C_R   0.000000 0.913575 0.000000 0.824949
C91   C     C_R   0.586534 0.500564 0.913665 0.901587
C92   C     C_R   0.413466 0.500564 0.086335 0.901582
C93   C     C_R   0.086534 0.000565 0.913665 0.901584
C94   C     C_R   0.913466 0.000565 0.086335 0.901585
C95   C     C_R   0.500000 0.586494 1.000000 0.978989
C96   C     C_R   0.000000 0.086494 1.000000 0.978991
C97   C     C_R   0.537906 0.343109 0.941625 0.088414
C98   C     C_R   0.462093 0.343109 0.058375 0.088410
C99   C     C_R   0.037916 0.843110 0.941650 0.088400
C100  C     C_R   0.962084 0.843110 0.058350 0.088402
C101  C     C_R   0.500000 0.365868 0.000001 -0.113986
C102  C     C_R   0.000000 0.865869 0.000000 -0.113970
C103  C     C_R   0.464687 0.296836 0.064054 -0.014285
C104  C     C_R   0.535311 0.296836 0.935944 -0.014298
C105  C     C_R   0.964674 0.796837 0.064036 -0.014266
C106  C     C_R   0.035327 0.796837 0.935964 -0.014267
C107  C     C_R   0.499999 0.273554 0.999999 -0.087178
C108  C     C_R   0.000001 0.773555 1.000000 -0.087179
C109  C     C_R   0.432823 0.273165 0.130949 0.258849
C110  C     C_R   0.567173 0.273167 0.869047 0.258829
C111  C     C_R   0.932793 0.773166 0.130918 0.258853
C112  C     C_R   0.067209 0.773167 0.869082 0.258848
C113  C     C_R   0.932922 0.726600 0.130591 0.212920
C114  C     C_R   0.067079 0.726601 0.869409 0.212939
C115  C     C_R   0.432953 0.226599 0.130622 0.212899
C116  C     C_R   0.567044 0.226600 0.869374 0.212938
C117  C     C_R   0.965878 0.703566 0.064952 0.025237
C118  C     C_R   0.034123 0.703566 0.935048 0.025225
C119  C     C_R   0.465892 0.203565 0.064967 0.025254
C120  C     C_R   0.534106 0.203565 0.935029 0.025235
C121  C     C_3   0.967091 0.539292 0.244717 0.143327
C122  C     C_3   0.032958 0.539257 0.755226 0.143352
C123  C     C_3   0.467167 0.039346 0.244628 0.143278
C124  C     C_3   0.532923 0.039282 0.755266 0.143327
C125  C     C_R   0.000001 0.726986 1.000000 0.010626
C126  C     C_R   0.499999 0.226985 0.999998 0.010627
C127  C     C_R   0.966129 0.657250 0.063310 -0.150479
C128  C     C_R   0.033871 0.657250 0.936689 -0.150385
C129  C     C_R   0.466142 0.157249 0.063325 -0.150594
C130  C     C_R   0.533857 0.157249 0.936671 -0.150429
C131  C     C_R   0.000000 0.634569 0.999999 -0.080050
C132  C     C_R   0.500000 0.134568 0.999998 -0.080060
C133  C     C_R   0.532610 0.657127 0.001393 0.235477
C134  C     C_R   0.467391 0.657128 0.998604 0.235476
C135  C     C_R   0.032612 0.157127 0.001389 0.235477
C136  C     C_R   0.967389 0.157128 0.998608 0.235475
C137  C     C_R   0.500000 0.634435 0.999999 -0.219163
C138  C     C_R   0.000000 0.134435 0.999999 -0.219161
C139  C     C_R   0.471418 0.703335 0.987141 -0.055185
C140  C     C_R   0.528583 0.703334 0.012856 -0.055183
C141  C     C_R   0.971417 0.203335 0.987145 -0.055184
C142  C     C_R   0.028585 0.203334 0.012852 -0.055182
C143  C     C_R   0.500001 0.726660 0.999998 -0.104194
C144  C     C_R   0.000001 0.226660 0.999998 -0.104195
C145  C     C_R   0.448095 0.726925 0.963676 0.289841
C146  C     C_R   0.551907 0.726925 0.036320 0.289845
C147  C     C_R   0.948092 0.226925 0.963683 0.289838
C148  C     C_R   0.051910 0.226924 0.036313 0.289840
C149  C     C_R   0.947173 0.273503 0.965754 0.195444
C150  C     C_R   0.052828 0.273502 0.034243 0.195443
C151  C     C_R   0.447176 0.773503 0.965747 0.195445
C152  C     C_R   0.552826 0.773502 0.034249 0.195440
C153  C     C_R   0.972481 0.296633 0.985034 0.021954
C154  C     C_R   0.027520 0.296633 0.014964 0.021946
C155  C     C_R   0.472482 0.796633 0.985031 0.021948
C156  C     C_R   0.527519 0.796633 0.014966 0.021935
C157  C     C_3   0.049644 0.500675 0.239529 0.215653
C158  C     C_3   0.950351 0.500747 0.760476 0.215676
C159  C     C_3   0.549639 0.000563 0.239534 0.215617
C160  C     C_3   0.450354 0.000694 0.760472 0.215659
C161  C     C_R   0.000001 0.273233 0.999999 0.021403
C162  C     C_R   0.500001 0.773233 0.999999 0.021403
C163  C     C_R   0.972163 0.342980 0.987169 -0.174141
C164  C     C_R   0.027837 0.342980 0.012830 -0.174126
C165  C     C_R   0.472165 0.842980 0.987166 -0.174149
C166  C     C_R   0.527836 0.842980 0.012832 -0.174122
C167  C     C_R   1.000000 0.365552 0.000000 -0.090328
C168  C     C_R   0.500000 0.865552 1.000000 -0.090310
C169  C     C_3   0.973753 0.458012 0.308917 -0.116109
C170  C     C_3   0.026183 0.457980 0.691152 -0.116031
C171  C     C_3   0.473656 0.958062 0.309021 -0.116233
C172  C     C_3   0.526229 0.958003 0.691102 -0.116090
C173  C     C_3   0.998779 0.500630 0.311700 -0.102698
C174  C     C_3   0.001215 0.500632 0.688306 -0.102718
C175  C     C_3   0.498772 0.000628 0.311706 -0.102657
C176  C     C_3   0.501219 0.000630 0.688302 -0.102699
C177  C     C_3   0.000595 0.500912 0.188641 -0.095437
C178  C     C_3   0.999403 0.500922 0.811360 -0.095448
C179  C     C_3   0.500594 0.000897 0.188642 -0.095408
C180  C     C_3   0.499404 0.000914 0.811359 -0.095436
C181  C     C_3   0.050298 0.509110 0.166328 0.294876
C182  C     C_3   0.949710 0.509182 0.833665 0.294852
C183  C     C_3   0.550311 0.008998 0.166315 0.294911
C184  C     C_3   0.449704 0.009130 0.833670 0.294866
H1    H     H_    0.013739 0.431016 0.197132 0.185277
H2    H     H_    0.986168 0.431042 0.802978 0.185288
H3    H     H_    0.513595 0.930974 0.197300 0.185257
H4    H     H_    0.486235 0.931022 0.802899 0.185281
H5    H     H_    0.638349 0.449933 0.929478 0.180299
H6    H     H_    0.361650 0.449936 0.070519 0.180302
H7    H     H_    0.138350 0.949943 0.929490 0.180301
H8    H     H_    0.861650 0.949940 0.070513 0.180300
H9    H     H_    0.711087 0.586121 0.686200 0.154698
H10   H     H_    0.288913 0.586117 0.313805 0.154698
H11   H     H_    0.211087 0.086107 0.686176 0.154695
H12   H     H_    0.788913 0.086111 0.313816 0.154697
H13   H     H_    0.791326 0.585521 0.608191 0.159576
H14   H     H_    0.208675 0.585517 0.391814 0.159580
H15   H     H_    0.291326 0.085505 0.608164 0.159568
H16   H     H_    0.708675 0.085510 0.391827 0.159577
H17   H     H_    0.860693 0.554796 0.576350 0.149612
H18   H     H_    0.139307 0.554794 0.423652 0.149619
H19   H     H_    0.360694 0.054785 0.576329 0.149584
H20   H     H_    0.639307 0.054789 0.423663 0.149604
H21   H     H_    0.862452 0.446456 0.702439 0.191453
H22   H     H_    0.137548 0.446457 0.297561 0.191463
H23   H     H_    0.362452 0.946465 0.702450 0.191454
H24   H     H_    0.637547 0.946462 0.297557 0.191478
H25   H     H_    0.940677 0.638062 0.111365 0.187317
H26   H     H_    0.059324 0.638063 0.888633 0.187300
H27   H     H_    0.440701 0.138060 0.111393 0.187306
H28   H     H_    0.559299 0.138061 0.888604 0.187275
H29   H     H_    0.951397 0.362312 0.976978 0.187016
H30   H     H_    0.048603 0.362311 0.023021 0.187016
H31   H     H_    0.451400 0.862312 0.976974 0.187018
H32   H     H_    0.548601 0.862312 0.023025 0.187018
H33   H     H_    0.937529 0.463787 0.349522 0.183852
H34   H     H_    0.062414 0.463704 0.650533 0.183871
H35   H     H_    0.437444 0.963917 0.349604 0.183817
H36   H     H_    0.562454 0.963764 0.650494 0.183852
O1    O     O_R   0.933920 0.537280 0.566050 -0.593886
O2    O     O_R   0.066080 0.537280 0.433950 -0.593844
O3    O     O_R   0.433920 0.037280 0.566050 -0.593920
O4    O     O_R   0.566080 0.037280 0.433950 -0.593843
O5    O     O_R   0.566010 0.499970 0.881660 -0.604497
O6    O     O_R   0.433990 0.499970 0.118340 -0.604503
O7    O     O_R   0.066010 0.999970 0.881660 -0.604494
O8    O     O_R   0.933990 0.999970 0.118340 -0.604497
O9    O     O_R   0.566080 0.499950 0.986150 -0.606751
O10   O     O_R   0.433920 0.499950 0.013850 -0.606748
O11   O     O_R   0.066080 0.999950 0.986150 -0.606758
O12   O     O_R   0.933920 0.999950 0.013850 -0.606752
O13   O     O_R   0.499950 0.566010 0.947790 -0.584957
O14   O     O_R   0.500050 0.566010 0.052210 -0.584957
O15   O     O_R   0.999950 0.066010 0.947790 -0.584957
O16   O     O_R   0.000050 0.066010 0.052210 -0.584958
O17   O     O_R   0.933880 0.462680 0.566080 -0.629491
O18   O     O_R   0.066120 0.462680 0.433920 -0.629514
O19   O     O_R   0.433880 0.962680 0.566080 -0.629490
O20   O     O_R   0.566120 0.962680 0.433920 -0.629535
O21   O     O_R   0.999990 0.537270 0.407410 -0.568642
O22   O     O_R   0.000010 0.537270 0.592590 -0.568568
O23   O     O_R   0.499990 0.037270 0.407410 -0.568775
O24   O     O_R   0.500010 0.037270 0.592590 -0.568630
O25   O     O_R   0.999940 0.462670 0.407440 -0.611332
O26   O     O_R   0.000060 0.462670 0.592560 -0.611312
O27   O     O_R   0.499940 0.962670 0.407440 -0.611365
O28   O     O_R   0.500060 0.962670 0.592560 -0.611329
O29   O     O_R   0.962660 0.566020 0.037320 -0.607739
O30   O     O_R   0.037340 0.566020 0.962680 -0.607775
O31   O     O_R   0.462660 0.066020 0.037320 -0.607681
O32   O     O_R   0.537340 0.066020 0.962680 -0.607746
O33   O     O_R   0.962680 0.499950 0.129900 -0.625112
O34   O     O_R   0.037320 0.499950 0.870100 -0.625111
O35   O     O_R   0.462680 0.999950 0.129900 -0.625118
O36   O     O_R   0.537320 0.999950 0.870100 -0.625111
O37   O     O_R   0.037280 0.499990 0.055330 -0.580599
O38   O     O_R   0.962720 0.499990 0.944670 -0.580649
O39   O     O_R   0.537280 0.999990 0.055330 -0.580520
O40   O     O_R   0.462720 0.999990 0.944670 -0.580613
O41   O     O_R   0.962680 0.433880 0.037290 -0.620075
O42   O     O_R   0.037320 0.433880 0.962710 -0.620047
O43   O     O_R   0.462680 0.933880 0.037290 -0.620108
O44   O     O_R   0.537320 0.933880 0.962710 -0.620057
O45   O     O_R   0.499930 0.433870 0.947760 -0.610192
O46   O     O_R   0.500070 0.433870 0.052240 -0.610209
O47   O     O_R   0.999930 0.933870 0.947760 -0.610209
O48   O     O_R   0.000070 0.933870 0.052240 -0.610213
Zn1   Zn    Zn3+2 0.000000 0.549780 0.500000 1.115751
Zn2   Zn    Zn3+2 0.500000 0.049780 0.500000 1.115599
Zn3   Zn    Zn3+2 0.000000 0.450160 0.500000 1.016990
Zn4   Zn    Zn3+2 0.500000 0.950160 0.500000 1.016953
Zn5   Zn    Zn3+2 0.950160 0.499940 0.049810 1.030998
Zn6   Zn    Zn3+2 0.049840 0.499940 0.950190 1.031044
Zn7   Zn    Zn3+2 0.450160 0.999940 0.049810 1.031017
Zn8   Zn    Zn3+2 0.549840 0.999940 0.950190 1.031104
Zn9   Zn    Zn3+2 0.499930 0.499950 0.930250 1.061964
Zn10  Zn    Zn3+2 0.500070 0.499950 0.069750 1.061950
Zn11  Zn    Zn3+2 0.999930 0.999950 0.930250 1.061953
Zn12  Zn    Zn3+2 0.000070 0.999950 0.069750 1.061943
Br1   Br    Br    0.998826 0.601272 0.310458 -0.346671
Br2   Br    Br    0.001300 0.601273 0.689407 -0.346678
Br3   Br    Br    0.499028 0.101268 0.310240 -0.346642
Br4   Br    Br    0.501207 0.101272 0.689507 -0.346651
N1    N     N_3   0.069625 0.457044 0.234339 -0.485001
H37   H     H_    0.103732 0.457658 0.191568 0.227199
H38   H     H_    0.068330 0.451257 0.283017 0.225255
N2    N     N_3   0.930314 0.457143 0.765719 -0.485010
H39   H     H_    0.896206 0.457803 0.808480 0.227181
H40   H     H_    0.931614 0.451351 0.717037 0.225165
N3    N     N_3   0.569531 0.956891 0.234427 -0.484986
H41   H     H_    0.603637 0.957433 0.191639 0.227232
H42   H     H_    0.568243 0.951111 0.283099 0.225396
N4    N     N_3   0.430357 0.957071 0.765678 -0.485001
H43   H     H_    0.396250 0.957698 0.808446 0.227200
H44   H     H_    0.431654 0.951283 0.716998 0.225231
N5    N     N_3   0.083509 0.480064 0.103090 -0.410088
H45   H     H_    0.115561 0.488314 0.086362 0.238347
H46   H     H_    0.079124 0.446081 0.114190 0.183567
N6    N     N_3   0.916460 0.480179 0.896938 -0.410044
H47   H     H_    0.884419 0.488473 0.913652 0.238317
H48   H     H_    0.920798 0.446190 0.885880 0.183590
N7    N     N_3   0.583461 0.979885 0.103131 -0.410159
H49   H     H_    0.615531 0.988067 0.086382 0.238395
H50   H     H_    0.579005 0.945910 0.114295 0.183534
N8    N     N_3   0.416482 0.980096 0.896918 -0.410077
H51   H     H_    0.384433 0.988358 0.913642 0.238341
H52   H     H_    0.420854 0.946111 0.885830 0.183576
N9    N     N_3   0.631773 0.562308 0.793089 -0.421279
H53   H     H_    0.640102 0.594878 0.797117 0.219696
H54   H     H_    0.639950 0.556982 0.738772 0.197471
N10   N     N_3   0.368227 0.562305 0.206914 -0.421277
H55   H     H_    0.359898 0.594876 0.202888 0.219695
H56   H     H_    0.360051 0.556978 0.261230 0.197469
N11   N     N_3   0.131774 0.062300 0.793075 -0.421273
H57   H     H_    0.140103 0.094872 0.797095 0.219692
H58   H     H_    0.139949 0.056969 0.738760 0.197470
N12   N     N_3   0.868227 0.062302 0.206920 -0.421274
H59   H     H_    0.859897 0.094873 0.202898 0.219695
H60   H     H_    0.860051 0.056972 0.261235 0.197468
Br5   Br    Br    0.804226 0.398240 0.826246 -0.487395
Br6   Br    Br    0.195773 0.398243 0.173752 -0.487389
Br7   Br    Br    0.304227 0.898255 0.826267 -0.487394
Br8   Br    Br    0.695772 0.898251 0.173742 -0.487372
N13   N     N_3   0.926842 0.544536 0.385705 -0.520705
H61   H     H_    0.928600 0.549377 0.431514 0.205020
H62   H     H_    0.909845 0.572456 0.385963 0.210817
N14   N     N_3   0.073207 0.544442 0.614230 -0.520687
H63   H     H_    0.071447 0.549284 0.568423 0.204945
H64   H     H_    0.090242 0.572340 0.613927 0.210788
N15   N     N_3   0.426923 0.044686 0.385603 -0.520742
H65   H     H_    0.428683 0.049548 0.431405 0.205179
H66   H     H_    0.409981 0.072630 0.385777 0.210845
N16   N     N_3   0.573170 0.044511 0.614276 -0.520708
H67   H     H_    0.571410 0.049364 0.568472 0.205014
H68   H     H_    0.590181 0.072420 0.614012 0.210807
N17   N     N_3   0.702395 0.411203 0.914318 -0.442303
H69   H     H_    0.711961 0.416582 0.950639 0.245843
H70   H     H_    0.710603 0.378621 0.893889 0.240269
N18   N     N_3   0.297604 0.411207 0.085679 -0.442297
H71   H     H_    0.288037 0.416586 0.049360 0.245854
H72   H     H_    0.289397 0.378624 0.106106 0.240266
N19   N     N_3   0.202396 0.911218 0.914338 -0.442299
H73   H     H_    0.211964 0.916602 0.950655 0.245848
H74   H     H_    0.210602 0.878634 0.893917 0.240274
N20   N     N_3   0.797603 0.911215 0.085669 -0.442295
H75   H     H_    0.788035 0.916597 0.049352 0.245866
H76   H     H_    0.789397 0.878631 0.106093 0.240266
N21   N     N_3   0.579758 0.365819 0.891639 -0.380347
H77   H     H_    0.602072 0.353063 0.902147 0.203956
H78   H     H_    0.578237 0.399885 0.901678 0.172007
N22   N     N_3   0.420241 0.365819 0.108360 -0.380354
H79   H     H_    0.397931 0.353072 0.097835 0.203955
H80   H     H_    0.421765 0.399888 0.098338 0.172026
N23   N     N_3   0.079772 0.865821 0.891696 -0.380377
H81   H     H_    0.102064 0.853084 0.902268 0.203954
H82   H     H_    0.078241 0.899892 0.901702 0.172024
N24   N     N_3   0.920229 0.865820 0.108304 -0.380376
H83   H     H_    0.897937 0.853083 0.097731 0.203956
H84   H     H_    0.921760 0.899892 0.098298 0.172024
Br9   Br    Br    0.393047 0.302657 0.227489 -0.354542
Br10  Br    Br    0.606947 0.302660 0.772508 -0.354503
Br11  Br    Br    0.892988 0.802658 0.227448 -0.354530
Br12  Br    Br    0.107014 0.802659 0.772552 -0.354508
Br13  Br    Br    0.888015 0.694828 0.221519 -0.419023
Br14  Br    Br    0.111987 0.694829 0.778480 -0.418963
Br15  Br    Br    0.388070 0.194827 0.221571 -0.419152
Br16  Br    Br    0.611926 0.194829 0.778423 -0.419049
Br17  Br    Br    0.586542 0.625281 0.969653 -0.421801
Br18  Br    Br    0.413458 0.625282 0.030346 -0.421791
Br19  Br    Br    0.086545 0.125281 0.969642 -0.421798
Br20  Br    Br    0.913456 0.125281 0.030354 -0.421783
Br21  Br    Br    0.426425 0.697885 0.911205 -0.293170
Br22  Br    Br    0.573577 0.697884 0.088790 -0.293179
Br23  Br    Br    0.926419 0.197884 0.911217 -0.293160
Br24  Br    Br    0.073584 0.197883 0.088778 -0.293175
Br25  Br    Br    0.912225 0.305111 0.939151 -0.406120
Br26  Br    Br    0.087777 0.305109 0.060845 -0.406134
Br27  Br    Br    0.412230 0.805110 0.939141 -0.406133
Br28  Br    Br    0.587773 0.805110 0.060853 -0.406156
N25   N     N_3   0.920824 0.528510 0.271353 -0.443922
H85   H     H_    0.901013 0.557073 0.289412 0.198656
H86   H     H_    0.904655 0.506688 0.316991 0.193011
N26   N     N_3   0.079212 0.528415 0.728596 -0.443921
H87   H     H_    0.099062 0.556951 0.710489 0.198625
H88   H     H_    0.095348 0.506568 0.682993 0.193020
N27   N     N_3   0.420881 0.028653 0.271276 -0.443943
H89   H     H_    0.401129 0.057257 0.289243 0.198707
H90   H     H_    0.404659 0.006878 0.316975 0.192991
N28   N     N_3   0.579186 0.028481 0.728631 -0.443930
H91   H     H_    0.599008 0.057036 0.710569 0.198653
H92   H     H_    0.595348 0.006656 0.682999 0.193008
N29   N     N_3   0.978091 0.582100 0.204021 -0.357810
H93   H     H_    0.973034 0.580117 0.161428 0.190425
H94   H     H_    0.956147 0.606829 0.240660 0.231363
N30   N     N_3   0.022016 0.582081 0.795860 -0.357826
H95   H     H_    0.027071 0.580094 0.838455 0.190480
H96   H     H_    0.043992 0.606780 0.759185 0.231386
N31   N     N_3   0.478256 0.082129 0.203838 -0.357785
H97   H     H_    0.473194 0.080150 0.161250 0.190336
H98   H     H_    0.456361 0.106904 0.240423 0.231348
N32   N     N_3   0.521940 0.082094 0.795944 -0.357811
H99   H     H_    0.526997 0.080109 0.838537 0.190434
H100  H     H_    0.543894 0.106814 0.759294 0.231396
Br29  Br    Br    0.088149 0.542938 0.247542 -0.370266
Br30  Br    Br    0.911898 0.543061 0.752417 -0.370165
Br31  Br    Br    0.588225 0.042747 0.247475 -0.370430
Br32  Br    Br    0.411863 0.042972 0.752447 -0.370245
Br33  Br    Br    0.072302 0.569053 0.122128 -0.329481
Br34  Br    Br    0.927786 0.569153 0.877790 -0.329574
Br35  Br    Br    0.572440 0.068898 0.122001 -0.329323
Br36  Br    Br    0.427723 0.069081 0.877848 -0.329493
N33   N     N_3   0.982021 0.415542 0.332867 -0.392379
H101  H     H_    0.011772 0.400611 0.290065 0.233431
H102  H     H_    0.956792 0.393174 0.345831 0.216502
N34   N     N_3   0.017851 0.415518 0.667276 -0.392336
H103  H     H_    0.988083 0.400627 0.710107 0.233436
H104  H     H_    0.043052 0.393116 0.654336 0.216520
N35   N     N_3   0.481826 0.915580 0.333083 -0.392448
H105  H     H_    0.511548 0.900585 0.290324 0.233424
H106  H     H_    0.456552 0.893263 0.346088 0.216472
N36   N     N_3   0.517943 0.915535 0.667173 -0.392369
H107  H     H_    0.488188 0.900614 0.709985 0.233434
H108  H     H_    0.543165 0.893157 0.654215 0.216505
N37   N     N_3   0.949788 0.430517 0.229510 -0.436801
H109  H     H_    0.962822 0.417568 0.175700 0.200406
H110  H     H_    0.923024 0.450542 0.244155 0.239819
N38   N     N_3   0.050121 0.430465 0.770590 -0.436790
H111  H     H_    0.037068 0.417527 0.824413 0.200344
H112  H     H_    0.076902 0.450462 0.755941 0.239820
N39   N     N_3   0.449647 0.930598 0.229663 -0.436819
H113  H     H_    0.462653 0.917633 0.175874 0.200501
H114  H     H_    0.422911 0.950667 0.244304 0.239827
N40   N     N_3   0.550187 0.930502 0.770519 -0.436795
H115  H     H_    0.537148 0.917559 0.824334 0.200392
H116  H     H_    0.576957 0.950518 0.755866 0.239820

loop_
_geom_bond_atom_site_label_1
_geom_bond_atom_site_label_2
_ccdc_geom_bond_type
C121  N25   S    
C55   C59   A    
C78   O32   A    
N37   H109  S    
C154  C161  A    
N3    H41   S    
C47   O27   A    
N17   H69   S    
O34   Zn6   S    
N7    H50   S    
O46   Zn10  S    
C133  C137  A    
C80   O34   A    
O24   Zn2   S    
O25   Zn3   S    
N30   H96   S    
C88   N16   S    
C26   C50   A    
C21   C33   A    
C17   N9    S    
C1    O1    A    
C89   O46   A    
O6    Zn10  S    
C9    C13   A    
C3    O3    A    
C54   C74   A    
O40   Zn7   S    
C75   H23   S    
C127  H25   S    
C135  C142  A    
C152  C156  A    
C70   C74   A    
C46   C174  S    
C85   C121  S    
C151  C155  A    
C159  Br31  S    
N32   H100  S    
C160  Br32  S    
C124  N28   S    
C34   H10   S    
C122  N30   S    
N33   H102  S    
C85   Br1   S    
C13   C91   S    
C20   N12   S    
C9    H5    S    
C41   C49   A    
C23   C27   A    
C155  C162  A    
C25   C29   A    
C12   H8    S    
C81   O39   A    
C27   C31   A    
C28   C32   A    
N18   H71   S    
C60   Br8   S    
C141  C144  A    
N28   H92   S    
C17   C21   A    
C153  C161  A    
C86   C174  S    
C19   C23   A    
C136  C141  A    
C84   C168  S    
C8    N40   S    
C8    C180  S    
N7    H49   S    
C156  C166  A    
C16   C20   A    
N22   H79   S    
N8    H51   S    
C79   O33   A    
O39   Zn8   S    
C111  C113  A    
C184  N8    S    
C32   C64   A    
C178  C182  S    
C136  C138  A    
C150  Br26  S    
N25   H85   S    
C142  C144  A    
N27   H89   S    
C110  C116  A    
N6    H47   S    
C170  C174  S    
N31   H98   S    
C89   C101  S    
C16   C94   S    
C58   Br6   S    
C86   N14   S    
C171  N35   S    
C39   C43   A    
C57   C61   A    
C3    C71   S    
C181  N5    S    
N29   H93   S    
C6    H2    S    
C59   C63   A    
C18   N10   S    
C60   C64   A    
O15   Zn11  S    
N34   H103  S    
C90   O47   A    
C48   O28   A    
C104  C110  A    
O27   Zn4   S    
C66   C70   A    
C155  C165  A    
C49   C53   A    
C51   C55   A    
O30   Zn6   S    
C127  C131  A    
C67   H19   S    
C141  C147  A    
C119  C126  A    
N1    H38   S    
O36   Zn8   S    
C103  C107  A    
C77   O30   A    
O8    Zn12  S    
C104  C107  A    
C76   H24   S    
N21   H77   S    
O14   Zn10  S    
C68   H20   S    
N35   H105  S    
C140  C143  A    
C88   C124  S    
C43   C51   A    
C100  N24   S    
C94   O12   A    
N39   H114  S    
C24   C36   A    
C153  C163  A    
C7    H3    S    
N3    H42   S    
C148  C150  A    
C96   C138  S    
C90   O48   A    
C136  Br20  S    
N31   H97   S    
N10   H55   S    
C77   C131  S    
N13   H62   S    
C116  Br16  S    
C90   C102  S    
C149  C153  A    
C123  N27   S    
C139  C143  A    
C110  Br10  S    
C57   Br5   S    
C25   C49   A    
C79   C177  S    
C129  H27   S    
C172  H36   S    
C63   N19   S    
C44   C52   A    
C172  N36   S    
C166  C168  A    
N5    H46   S    
C38   H14   S    
C11   C15   A    
C169  N33   S    
C88   Br4   S    
C27   C51   A    
C159  N3    S    
N9    H54   S    
C122  N26   S    
C22   C34   A    
C29   C61   A    
C95   C137  S    
C158  Br30  S    
C79   O37   A    
O22   Zn1   S    
C12   C16   A    
C46   O26   A    
C123  C179  S    
C10   C14   A    
C134  C139  A    
C5    N37   S    
N16   H67   S    
C134  Br18  S    
C121  C177  S    
C1    O17   A    
C83   C167  S    
C116  C120  A    
N2    H40   S    
C182  Br34  S    
C36   H12   S    
C158  C182  S    
C93   O7    A    
N20   H76   S    
N39   H113  S    
C14   C92   S    
C86   Br2   S    
C147  Br23  S    
C145  C151  A    
C81   O35   A    
N24   H84   S    
O32   Zn8   S    
C142  C148  A    
C42   C50   A    
C113  C117  A    
C87   N15   S    
N23   H82   S    
C71   C75   A    
C26   C30   A    
O43   Zn7   S    
N19   H74   S    
N36   H107  S    
C91   O5    A    
C10   C30   A    
C83   O41   A    
C7    N39   S    
C157  Br29  S    
C128  C131  A    
N38   H111  S    
N32   H99   S    
C6    C170  S    
C99   C106  A    
C21   C25   A    
C151  Br27  S    
O16   Zn12  S    
C84   O44   A    
C24   C28   A    
N14   H63   S    
N27   H90   S    
C158  C174  S    
C94   O8    A    
C87   C175  S    
C115  C119  A    
C88   C176  S    
C13   C17   A    
O23   Zn2   S    
C87   C123  S    
C93   O11   A    
C106  C108  A    
C177  C181  S    
C119  C129  A    
C96   O15   A    
O21   Zn1   S    
C11   H7    S    
C37   C41   A    
O18   Zn3   S    
C92   O6    A    
C66   H18   S    
C180  C184  S    
C40   C44   A    
C43   C67   A    
C157  C173  S    
O5    Zn9   S    
C117  C125  A    
C171  H35   S    
C172  C176  S    
C48   C176  S    
C58   C62   A    
C169  H33   S    
N33   H101  S    
C7    C171  S    
C144  C161  A    
C111  Br11  S    
C5    H1    S    
C48   O24   A    
C134  C137  A    
N40   H115  S    
O1    Zn1   S    
C8    H4    S    
C15   C19   A    
O37   Zn6   S    
C50   C54   A    
O19   Zn4   S    
C91   O9    A    
C147  C149  A    
N18   H72   S    
C54   C58   A    
N4    H43   S    
C120  C126  A    
C98   C103  A    
C2    O2    A    
C39   H15   S    
C128  H26   S    
O2    Zn1   S    
C130  H28   S    
C165  H31   S    
N22   H80   S    
C86   C122  S    
N8    H52   S    
C69   C73   A    
C118  C125  A    
C35   H11   S    
C129  C132  A    
C105  C111  A    
C33   H9    S    
N11   H57   S    
C112  Br12  S    
C6    C178  S    
C78   O31   A    
N37   H110  S    
C82   O36   A    
C157  C181  S    
O42   Zn6   S    
C112  C114  A    
N17   H70   S    
N6    H48   S    
C45   O25   A    
C53   C73   A    
N30   H95   S    
C81   C179  S    
O26   Zn3   S    
C140  C146  A    
C53   C57   A    
C157  N1    S    
C40   H16   S    
C82   O40   A    
C1    C69   S    
C56   C60   A    
O35   Zn7   S    
C68   C72   A    
N34   H104  S    
C130  C132  A    
N15   H65   S    
N1    H37   S    
O28   Zn4   S    
C145  Br21  S    
C113  Br13  S    
C4    O20   A    
O44   Zn8   S    
C115  Br15  S    
C117  C127  A    
C23   C35   A    
C30   C62   A    
C80   O38   A    
C46   O22   A    
C123  N31   S    
C4    C72   S    
C33   C37   A    
C154  C164  A    
C122  C178  S    
C65   H17   S    
C59   Br7   S    
C164  C167  A    
C97   N21   S    
C15   C93   S    
C181  Br33  S    
N28   H91   S    
C98   C101  A    
O48   Zn12  S    
C103  C109  A    
C18   C22   A    
O33   Zn5   S    
C47   O23   A    
C163  H29   S    
O45   Zn9   S    
C65   C69   A    
O47   Zn11  S    
N10   H56   S    
C67   C71   A    
N13   H61   S    
C87   Br3   S    
N35   H106  S    
C97   C104  A    
C164  H30   S    
C99   C102  A    
C133  C140  A    
C22   C26   A    
N25   H86   S    
C5    C169  S    
C19   N11   S    
C2    C70   S    
O7    Zn11  S    
C156  C162  A    
C8    C172  S    
C80   C178  S    
C98   N22   S    
C183  N7    S    
C135  C138  A    
C183  Br35  S    
N19   H73   S    
C73   H21   S    
C56   C76   A    
N5    H45   S    
C14   C18   A    
C35   C39   A    
C72   C76   A    
N26   H87   S    
C106  C112  A    
N9    H53   S    
C158  N2    S    
N29   H94   S    
C100  C105  A    
C10   H6    S    
O11   Zn12  S    
C120  C130  A    
O12   Zn11  S    
O31   Zn7   S    
C38   C42   A    
C45   C173  S    
C149  Br25  S    
N16   H68   S    
O41   Zn5   S    
O9    Zn10  S    
C3    O19   A    
C146  Br22  S    
C78   C132  S    
N23   H81   S    
C109  Br9   S    
N12   H60   S    
C84   O43   A    
C64   N20   S    
C108  C125  A    
C143  C162  A    
C89   O45   A    
C114  Br14  S    
C11   C31   A    
N21   H78   S    
C159  C175  S    
C12   C32   A    
O38   Zn5   S    
N36   H108  S    
C160  C176  S    
C118  C128  A    
C85   N13   S    
N38   H112  S    
C179  C183  S    
C105  C108  A    
N11   H58   S    
O10   Zn9   S    
C95   O14   A    
C20   C24   A    
C36   C40   A    
O3    Zn2   S    
N14   H64   S    
C135  Br19  S    
C2    O18   A    
C152  Br28  S    
C41   C65   A    
C4    O4    A    
C171  C175  S    
C170  N34   S    
C163  C167  A    
N12   H59   S    
C160  N4    S    
C85   C173  S    
C92   O10   A    
C100  C102  A    
C96   O16   A    
C7    C179  S    
O17   Zn3   S    
C6    N38   S    
N15   H66   S    
C5    C177  S    
C114  C118  A    
C146  C152  A    
C165  C168  A    
C37   H13   S    
O29   Zn5   S    
C44   C68   A    
C45   O21   A    
C62   N18   S    
C166  H32   S    
C74   H22   S    
C121  N29   S    
C139  C145  A    
C169  C173  S    
C34   C38   A    
C99   N23   S    
C107  C126  A    
N40   H116  S    
C9    C29   A    
C31   C63   A    
O13   Zn9   S    
C184  Br36  S    
C159  C183  S    
N2    H39   S    
O20   Zn4   S    
C55   C75   A    
N4    H44   S    
C28   C52   A    
N20   H75   S    
C124  N32   S    
N24   H83   S    
C47   C175  S    
C124  C180  S    
C182  N6    S    
C109  C115  A    
O4    Zn2   S    
C148  Br24  S    
C77   O29   A    
C150  C154  A    
C82   C180  S    
C42   C66   A    
C83   O42   A    
C61   N17   S    
C95   O13   A    
C133  Br17  S    
N26   H88   S    
C160  C184  S    
C97   C101  A    
C52   C56   A    
C170  H34   S    
