data_mof_unit_28684.cif
_audit_creation_date              2012-12-11T15:41:15-0500
_audit_creation_method            fapswitch 2.2
_symmetry_space_group_name_H-M    P1
_symmetry_Int_Tables_number       1
_space_group_crystal_system       triclinic
_cell_length_a                    19.011612
_cell_length_b                    11.021428
_cell_length_c                    18.716069
_cell_angle_alpha                 89.889239
_cell_angle_beta                  90.601077
_cell_angle_gamma                 89.771982
_cell_volume                      3921.41912741

loop_
_atom_site_label
_atom_site_type_symbol
_atom_type_description
_atom_site_fract_x
_atom_site_fract_y
_atom_site_fract_z
_atom_type_partial_charge
Br1   Br    Br    0.523404 0.910729 0.095756 -0.360808
Br2   Br    Br    0.527624 0.900992 0.922208 -0.370328
Br3   Br    Br    0.023404 0.410729 0.095756 -0.360808
Br4   Br    Br    0.027624 0.400992 0.922208 -0.370328
Br5   Br    Br    0.871128 0.221001 0.092900 -0.462467
Br6   Br    Br    0.191434 0.171404 0.879241 -0.489464
Br7   Br    Br    0.371127 0.721001 0.092900 -0.462467
Br8   Br    Br    0.691434 0.671404 0.879241 -0.489464
C1    C     C_R   0.728502 0.953637 0.852544 0.570083
C2    C     C_R   0.312380 0.431754 0.033410 0.064713
C3    C     C_R   0.762298 0.856150 0.356003 0.559526
C4    C     C_2   0.500984 0.160806 0.923466 -0.113626
C5    C     C_2   0.507197 0.167203 0.081256 -0.118385
C6    C     C_2   0.000984 0.660806 0.923466 -0.113626
C7    C     C_2   0.007197 0.667203 0.081256 -0.118385
C8    C     C_2   0.510390 0.062274 0.044319 0.172156
C9    C     C_2   0.513283 0.059907 0.964475 0.161298
C10   C     C_2   0.010390 0.562274 0.044319 0.172156
C11   C     C_2   0.013283 0.559907 0.964475 0.161298
C12   C     C_R   0.747852 0.387503 0.083714 0.022112
C13   C     C_R   0.174903 0.888349 0.977228 0.024481
C14   C     C_R   0.255907 0.398473 0.918342 0.028275
C15   C     C_R   0.247852 0.887503 0.083714 0.022112
C16   C     C_R   0.755907 0.898473 0.918342 0.028275
C17   C     C_3   0.024398 0.010456 0.337007 -0.249262
C18   C     C_3   0.017818 0.042797 0.631878 -0.268726
C19   C     C_3   0.524398 0.510456 0.337007 -0.249262
C20   C     C_3   0.517818 0.542797 0.631878 -0.268726
C21   C     C_R   0.812380 0.931754 0.033410 0.064713
C22   C     C_R   0.783353 0.279689 0.975508 -0.107409
C23   C     C_R   0.235766 0.260658 0.016912 -0.109630
C24   C     C_R   0.283353 0.779689 0.975508 -0.107409
C25   C     C_R   0.735766 0.760658 0.016912 -0.109630
C26   C     C_R   0.793696 0.305210 0.048004 0.164162
C27   C     C_R   0.228832 0.288887 0.944250 0.165393
C28   C     C_R   0.293696 0.805210 0.048004 0.164162
C29   C     C_R   0.271419 0.950576 0.148599 0.551487
C30   C     C_R   0.728832 0.788887 0.944250 0.165393
C31   C     C_3   0.616376 0.478533 0.055017 -0.262341
C32   C     C_3   0.380326 0.466815 0.949417 -0.276415
C33   C     C_3   0.116376 0.978533 0.055017 -0.262341
C34   C     C_3   0.880326 0.966815 0.949417 -0.276415
C35   C     C_3   0.603566 0.446015 0.976040 -0.228782
C36   C     C_3   0.390376 0.426944 0.025582 -0.243836
C37   C     C_3   0.103566 0.946015 0.976040 -0.228781
C38   C     C_3   0.890376 0.926944 0.025582 -0.243836
C39   C     C_R   0.725890 0.328110 0.937000 -0.004559
C40   C     C_R   0.228502 0.453637 0.852544 0.570083
C41   C     C_R   0.273027 0.337787 0.063136 -0.013025
C42   C     C_R   0.225890 0.828110 0.937000 -0.004559
C43   C     C_R   0.773027 0.837787 0.063136 -0.013025
C44   C     C_R   0.507986 0.165993 0.421388 0.009253
C45   C     C_R   0.506945 0.176762 0.570887 0.005053
C46   C     C_R   0.007986 0.665993 0.421388 0.009253
C47   C     C_R   0.006945 0.676762 0.570887 0.005053
C48   C     C_R   0.535834 0.268090 0.456394 0.008561
C49   C     C_R   0.528647 0.275097 0.528955 0.059922
C50   C     C_R   0.035834 0.768090 0.456394 0.008561
C51   C     C_R   0.771419 0.450576 0.148599 0.551487
C52   C     C_R   0.028647 0.775097 0.528955 0.059922
C53   C     C_R   0.492182 0.067296 0.536706 -0.182290
C54   C     C_R   0.493581 0.061381 0.462394 -0.171397
C55   C     C_R   0.992182 0.567296 0.536706 -0.182290
C56   C     C_R   0.993581 0.561381 0.462394 -0.171397
C57   C     C_R   0.530404 0.176205 0.851371 0.548952
C58   C     C_R   0.471966 0.177081 0.150478 0.547229
C59   C     C_R   0.030404 0.676205 0.851371 0.548952
C60   C     C_R   0.971966 0.677081 0.150478 0.547229
C61   C     C_3   0.538152 0.406166 0.451200 0.004491
C62   C     C_R   0.685806 0.417185 0.047318 -0.032646
C63   C     C_3   0.512841 0.408641 0.528298 0.021518
C64   C     C_3   0.038152 0.906166 0.451200 0.004491
C65   C     C_3   0.012841 0.908641 0.528298 0.021518
C66   C     C_R   0.753219 0.422276 0.424361 0.011503
C67   C     C_R   0.248300 0.400360 0.580825 0.025657
C68   C     C_R   0.253218 0.922277 0.424361 0.011503
C69   C     C_R   0.748300 0.900360 0.580825 0.025657
C70   C     C_R   0.782067 0.319008 0.456270 0.017812
C71   C     C_R   0.198699 0.333505 0.541693 0.017154
C72   C     C_R   0.282067 0.819008 0.456270 0.017812
C73   C     C_R   0.302638 0.464373 0.961477 -0.018965
C74   C     C_R   0.698699 0.833505 0.541693 0.017154
C75   C     C_R   0.781028 0.306872 0.529396 0.044919
C76   C     C_R   0.203089 0.325452 0.468983 0.016169
C77   C     C_R   0.281028 0.806872 0.529396 0.044919
C78   C     C_R   0.703089 0.825452 0.468983 0.016169
C79   C     C_R   0.718639 0.495989 0.541808 -0.160531
C80   C     C_R   0.314143 0.426905 0.471903 -0.160528
C81   C     C_R   0.218639 0.995989 0.541808 -0.160531
C82   C     C_R   0.814143 0.926905 0.471903 -0.160528
C83   C     C_R   0.719379 0.509010 0.467657 -0.179001
C84   C     C_R   0.185806 0.917185 0.047318 -0.032646
C85   C     C_R   0.309907 0.435592 0.546589 -0.167211
C86   C     C_R   0.219379 0.009010 0.467657 -0.179001
C87   C     C_R   0.809907 0.935592 0.546589 -0.167211
C88   C     C_3   0.855060 0.268303 0.451790 -0.270908
C89   C     C_3   0.120091 0.342177 0.537528 -0.267628
C90   C     C_3   0.355060 0.768303 0.451790 -0.270908
C91   C     C_3   0.620091 0.842177 0.537528 -0.267628
C92   C     C_3   0.855033 0.260923 0.532207 -0.269926
C93   C     C_3   0.125678 0.331938 0.457229 -0.280593
C94   C     C_3   0.355033 0.760923 0.532207 -0.269926
C95   C     C_R   0.802638 0.964373 0.961477 -0.018965
C96   C     C_3   0.625678 0.831938 0.457229 -0.280593
C97   C     C_R   0.750351 0.394923 0.572984 0.030428
C98   C     C_R   0.257111 0.381021 0.431882 0.020508
C99   C     C_R   0.250351 0.894923 0.572984 0.030428
C100  C     C_R   0.757111 0.881021 0.431882 0.020508
C101  C     C_R   0.723259 0.310000 0.859574 0.575646
C102  C     C_R   0.276184 0.312111 0.139976 0.563855
C103  C     C_R   0.223259 0.810000 0.859574 0.575646
C104  C     C_R   0.776184 0.812111 0.139976 0.563855
C105  C     C_R   0.728074 0.953149 0.648527 0.549417
C106  C     C_R   0.674903 0.388349 0.977228 0.024481
C107  C     C_R   0.272588 0.956966 0.352904 0.548067
C108  C     C_R   0.228074 0.453149 0.648527 0.549417
C109  C     C_R   0.772588 0.456966 0.352904 0.548067
C110  C     C_R   0.529385 0.177710 0.644597 0.543636
C111  C     C_R   0.472694 0.176244 0.353408 0.555218
C112  C     C_R   0.029385 0.677710 0.644597 0.543636
C113  C     C_R   0.972695 0.676244 0.353408 0.555218
C114  C     C_R   0.740014 0.362457 0.646706 0.566157
C115  C     C_R   0.262298 0.356150 0.356003 0.559526
C116  C     C_R   0.240014 0.862457 0.646706 0.566157
Cr1   Cr    Cr6+3 0.769260 0.163750 0.750730 1.017381
Cr2   Cr    Cr6+3 0.385810 0.322400 0.252290 1.031228
Cr3   Cr    Cr6+3 0.114190 0.822400 0.747710 1.045792
Cr4   Cr    Cr6+3 0.885810 0.822400 0.252290 1.031228
Cr5   Cr    Cr6+3 0.230740 0.163750 0.249270 1.016856
Cr6   Cr    Cr6+3 0.269260 0.663750 0.750730 1.017381
Cr7   Cr    Cr6+3 0.730740 0.663750 0.249270 1.016856
Cr8   Cr    Cr6+3 0.612640 0.009910 0.748780 1.076610
Cr9   Cr    Cr6+3 0.387360 0.009910 0.251220 1.081133
Cr10  Cr    Cr6+3 0.112640 0.509910 0.748780 1.076610
Cr11  Cr    Cr6+3 0.887360 0.509910 0.251220 1.081133
Cr12  Cr    Cr6+3 0.614190 0.322400 0.747710 1.045792
H1    H     H_    0.593332 0.436233 0.445550 0.136168
H2    H     H_    0.351731 0.476843 0.577211 0.104046
H3    H     H_    0.196858 0.090056 0.444425 0.143776
H4    H     H_    0.851731 0.976843 0.577211 0.104046
H5    H     H_    0.894647 0.332970 0.431843 0.156492
H6    H     H_    0.101199 0.432147 0.554923 0.176597
H7    H     H_    0.394647 0.832970 0.431843 0.156492
H8    H     H_    0.601199 0.932147 0.554923 0.176597
H9    H     H_    0.855797 0.178237 0.425347 0.132526
H10   H     H_    0.093866 0.263454 0.562811 0.127436
H11   H     H_    0.355797 0.678237 0.425347 0.132526
H12   H     H_    0.455741 0.426426 0.532659 0.121013
H13   H     H_    0.593866 0.763454 0.562811 0.127436
H14   H     H_    0.859125 0.167778 0.552955 0.140019
H15   H     H_    0.103663 0.245893 0.435974 0.130222
H16   H     H_    0.359125 0.667778 0.552955 0.140019
H17   H     H_    0.603663 0.745893 0.435974 0.130222
H18   H     H_    0.891674 0.326105 0.558164 0.131516
H19   H     H_    0.109414 0.415370 0.427936 0.150041
H20   H     H_    0.391674 0.826104 0.558164 0.131516
H21   H     H_    0.609414 0.915370 0.427936 0.150041
H22   H     H_    0.518057 0.252258 0.055184 0.046643
H23   H     H_    0.093332 0.936233 0.445550 0.136168
H24   H     H_    0.479715 0.241778 0.947018 0.040593
H25   H     H_    0.018057 0.752258 0.055184 0.046643
H26   H     H_    0.979715 0.741778 0.947018 0.040593
H27   H     H_    0.821666 0.223379 0.948988 0.169699
H28   H     H_    0.214395 0.177250 0.036948 0.142386
H29   H     H_    0.321666 0.723379 0.948988 0.169699
H30   H     H_    0.714395 0.677250 0.036948 0.142386
H31   H     H_    0.119587 0.077322 0.065097 0.181903
H32   H     H_    0.900220 0.059758 0.939185 0.177356
H33   H     H_    0.619587 0.577322 0.065097 0.181903
H34   H     H_    0.955741 0.926426 0.532659 0.121013
H35   H     H_    0.400220 0.559758 0.939185 0.177356
H36   H     H_    0.581595 0.429128 0.092356 0.144975
H37   H     H_    0.397935 0.398238 0.909870 0.142880
H38   H     H_    0.081595 0.929128 0.092356 0.144975
H39   H     H_    0.897935 0.898239 0.909870 0.142880
H40   H     H_    0.561385 0.379163 0.968213 0.125005
H41   H     H_    0.409956 0.332727 0.030455 0.117427
H42   H     H_    0.061385 0.879163 0.968213 0.125005
H43   H     H_    0.909956 0.832727 0.030455 0.117427
H44   H     H_    0.598073 0.525970 0.940942 0.217291
H45   H     H_    0.695904 0.565904 0.574935 0.131611
H46   H     H_    0.419269 0.492667 0.059375 0.206716
H47   H     H_    0.098073 0.025970 0.940942 0.217291
H48   H     H_    0.919269 0.992667 0.059375 0.206716
H49   H     H_    0.480109 0.986689 0.567307 0.120454
H50   H     H_    0.477305 0.977889 0.437254 0.132929
H51   H     H_    0.980109 0.486689 0.567307 0.120454
H52   H     H_    0.977305 0.477889 0.437254 0.132929
H53   H     H_    0.964932 0.040701 0.425554 0.224663
H54   H     H_    0.060992 0.086331 0.348946 0.109359
H55   H     H_    0.983497 0.042934 0.298657 0.160666
H56   H     H_    0.360442 0.458512 0.445455 0.142044
H57   H     H_    0.054417 0.935569 0.311653 0.167691
H58   H     H_    0.083873 0.046876 0.547447 0.230498
H59   H     H_    0.055827 0.080683 0.671281 0.162982
H60   H     H_    0.982485 0.978901 0.659887 0.171278
H61   H     H_    0.985425 0.118264 0.609463 0.094519
H62   H     H_    0.464932 0.540701 0.425554 0.224663
H63   H     H_    0.560992 0.586331 0.348946 0.109359
H64   H     H_    0.483497 0.542934 0.298657 0.160666
H65   H     H_    0.554417 0.435569 0.311653 0.167691
H66   H     H_    0.583873 0.546876 0.547447 0.230498
H67   H     H_    0.195904 0.065904 0.574935 0.131611
H68   H     H_    0.555827 0.580683 0.671281 0.162982
H69   H     H_    0.482485 0.478901 0.659887 0.171278
H70   H     H_    0.485425 0.618264 0.609463 0.094519
H71   H     H_    0.860442 0.958511 0.445455 0.142044
H72   H     H_    0.696858 0.590056 0.444425 0.143776
N1    N     N_2   0.991096 0.969303 0.402030 -0.490389
N2    N     N_2   0.055942 0.982923 0.575213 -0.481194
N3    N     N_2   0.491096 0.469303 0.402030 -0.490389
N4    N     N_2   0.555942 0.482923 0.575213 -0.481194
O1    O     O_R   0.784290 0.290360 0.830540 -0.498405
O2    O     O_R   0.456020 0.282110 0.333230 -0.479986
O3    O     O_R   0.043980 0.782110 0.666770 -0.495758
O4    O     O_R   0.956020 0.782110 0.333230 -0.479986
O5    O     O_R   0.679070 0.374030 0.674430 -0.469334
O6    O     O_R   0.320930 0.374030 0.325570 -0.489188
O7    O     O_R   0.179070 0.874030 0.674430 -0.469334
O8    O     O_R   0.820930 0.874030 0.325570 -0.489188
O9    O     O_3   0.665360 0.165350 0.749070 -0.293330
O10   O     O_3   0.334640 0.165350 0.250930 -0.289183
O11   O     O_3   0.165360 0.665350 0.749070 -0.293330
O12   O     O_R   0.215710 0.290360 0.169460 -0.476049
O13   O     O_3   0.834640 0.665350 0.250930 -0.289183
O14   O     O_R   0.762610 0.041070 0.825230 -0.537953
O15   O     O_R   0.237390 0.041070 0.174770 -0.535156
O16   O     O_R   0.262610 0.541070 0.825230 -0.537953
O17   O     O_R   0.737390 0.541070 0.174770 -0.535156
O18   O     O_R   0.667390 0.924160 0.829970 -0.427842
O19   O     O_R   0.332610 0.924160 0.170030 -0.436029
O20   O     O_R   0.167390 0.424160 0.829970 -0.427842
O21   O     O_R   0.832610 0.424160 0.170030 -0.436029
O22   O     O_R   0.553980 0.081420 0.821780 -0.447149
O23   O     O_R   0.284290 0.790360 0.830540 -0.498405
O24   O     O_R   0.446020 0.081420 0.178220 -0.440329
O25   O     O_R   0.053980 0.581420 0.821780 -0.447149
O26   O     O_R   0.946020 0.581420 0.178220 -0.440329
O27   O     O_R   0.543210 0.283170 0.826740 -0.537169
O28   O     O_R   0.456790 0.283170 0.173260 -0.545701
O29   O     O_R   0.043210 0.783170 0.826740 -0.537169
O30   O     O_R   0.956790 0.783170 0.173260 -0.545701
O31   O     O_R   0.678350 0.375000 0.822720 -0.456238
O32   O     O_R   0.321650 0.375000 0.177280 -0.472834
O33   O     O_R   0.178350 0.875000 0.822720 -0.456238
O34   O     O_R   0.715710 0.790360 0.169460 -0.476048
O35   O     O_R   0.821650 0.875000 0.177280 -0.472833
O36   O     O_R   0.785060 0.289300 0.670580 -0.517521
O37   O     O_R   0.214940 0.289300 0.329420 -0.515144
O38   O     O_R   0.285060 0.789300 0.670580 -0.517521
O39   O     O_R   0.714940 0.789300 0.329420 -0.515144
O40   O     O_R   0.763330 0.040090 0.676940 -0.510181
O41   O     O_R   0.236670 0.040090 0.323060 -0.521083
O42   O     O_R   0.263330 0.540090 0.676940 -0.510181
O43   O     O_R   0.736670 0.540090 0.323060 -0.521083
O44   O     O_R   0.668160 0.923110 0.670000 -0.515166
O45   O     O_R   0.554690 0.080440 0.673480 -0.508900
O46   O     O_R   0.331840 0.923110 0.330000 -0.515018
O47   O     O_R   0.168160 0.423110 0.670000 -0.515166
O48   O     O_R   0.831840 0.423110 0.330000 -0.515018
O49   O     O_R   0.445310 0.080440 0.326520 -0.512322
O50   O     O_R   0.054690 0.580440 0.673480 -0.508900
O51   O     O_R   0.945310 0.580440 0.326520 -0.512322
O52   O     O_R   0.543980 0.282110 0.666770 -0.495758

loop_
_geom_bond_atom_site_label_1
_geom_bond_atom_site_label_2
_ccdc_geom_bond_type
C7    C10   D    
C14   C40   S    
C33   H38   S    
Cr11  O51   S    
C43   C104  S    
C86   H3    S    
C114  O5    A    
C79   C83   A    
C90   H7    S    
C39   C106  A    
C20   H70   S    
C89   H10   S    
C52   C65   S    
C25   H30   S    
Cr3   O29   S    
C96   H21   S    
C102  O12   A    
C34   C95   S    
C83   H72   S    
C59   O29   A    
C104  O35   A    
Cr3   O7    S    
C82   C87   A    
C110  O45   A    
C108  O42   A    
C62   C106  A    
C112  O3    A    
C104  O34   A    
C88   H9    S    
C91   H13   S    
C67   C85   A    
Cr11  O48   S    
C72   C77   A    
C105  O40   A    
C18   H60   S    
C24   C28   A    
Cr6   O11   S    
C60   O26   A    
C115  O37   A    
C101  O1    A    
C17   H54   S    
C35   C106  S    
C21   C43   A    
C71   C76   A    
C40   O16   A    
Cr7   O43   S    
C65   N2    S    
Cr12  O52   S    
C90   H11   S    
C93   H19   S    
C50   C52   A    
C16   C30   A    
C15   C28   A    
C88   C92   S    
Cr6   O23   S    
C68   C107  S    
Cr4   O30   S    
Br6   C27   S    
C21   C95   A    
Br3   C10   S    
C29   O19   A    
C10   C11   S    
C34   C38   S    
C38   H48   S    
C81   C86   A    
C61   C63   S    
C18   H61   S    
C116  O38   A    
C85   H2    S    
Cr2   O2    S    
C68   C86   A    
C88   H5    S    
C80   C85   A    
Br4   C11   S    
Cr1   O1    S    
C70   C75   A    
Cr12  O9    S    
C70   C88   S    
Cr10  O47   S    
C47   C55   A    
C98   C115  S    
C103  O23   A    
C6    C59   S    
Cr11  O21   S    
C1    O14   A    
Cr3   O33   S    
Cr10  O20   S    
C96   H17   S    
Cr4   O8    S    
C94   H20   S    
Cr3   O11   S    
C54   H50   S    
C12   C26   A    
Cr7   O17   S    
C91   C96   S    
C116  O7    A    
C78   C96   S    
Cr10  O50   S    
C105  O44   A    
C24   H29   S    
Br2   C9    S    
C76   C93   S    
C12   C62   A    
C51   O21   A    
Br8   C30   S    
C99   C116  S    
C23   C41   A    
Cr5   O12   S    
C69   C105  S    
C18   H59   S    
C6    C11   D    
C19   N3    S    
C13   C42   A    
C34   H32   S    
C111  O49   A    
C13   C37   S    
C5    C58   S    
Cr6   O38   S    
C61   H1    S    
Cr5   O37   S    
C35   H44   S    
H66   N4    S    
C22   C26   A    
C2    C36   S    
Cr8   O9    S    
C20   H68   S    
C14   C73   A    
C57   O22   A    
C19   H63   S    
C57   O27   A    
C17   H55   S    
C60   O30   A    
C109  O48   A    
C45   C49   A    
C45   C110  S    
C8    C9    S    
C31   C35   S    
Cr12  O5    S    
C92   H14   S    
C15   C29   S    
C59   O25   A    
C3    O39   A    
C75   C97   A    
C58   O24   A    
C91   H8    S    
Cr9   O24   S    
C66   C83   A    
C6    H26   S    
Cr9   O49   S    
Cr9   O19   S    
C79   H45   S    
C31   H36   S    
C14   C27   A    
Cr7   O34   S    
C22   C39   A    
H58   N2    S    
C80   C98   A    
C35   H40   S    
Cr7   O13   S    
C76   C98   A    
C64   N1    S    
C79   C97   A    
C32   C36   S    
C103  O33   A    
C24   C42   A    
Br5   C26   S    
Cr5   O15   S    
C53   H49   S    
Cr9   O10   S    
C87   H4    S    
C18   N2    S    
Br1   C8    S    
C49   C63   S    
C12   C51   S    
C17   N1    S    
H62   N3    S    
C64   H23   S    
C22   H27   S    
C56   H52   S    
C108  O47   A    
C37   H42   S    
Cr4   O4    S    
C61   N3    S    
Cr6   O42   S    
Cr9   O46   S    
C81   H67   S    
C115  O6    A    
Cr5   O41   S    
C48   C61   S    
C55   H51   S    
C75   C92   S    
C50   C64   S    
C39   C101  S    
Cr2   O32   S    
C81   C99   A    
Cr10  O25   S    
C23   C27   A    
C5    C8    D    
C25   C43   A    
C48   C49   A    
C20   H69   S    
Cr1   O14   S    
C51   O17   A    
C36   H46   S    
C5    H22   S    
C3    C100  S    
C17   H57   S    
C82   H71   S    
C37   H47   S    
C114  O36   A    
C46   C50   A    
C44   C48   A    
C92   H18   S    
C80   H56   S    
C66   C109  S    
C23   H28   S    
Cr5   O10   S    
Cr11  O13   S    
Cr12  O31   S    
C72   C90   S    
C19   H65   S    
Cr4   O35   S    
C74   C91   S    
C32   C73   S    
C46   C113  S    
Cr1   O40   S    
C78   C100  A    
C19   H64   S    
C68   C72   A    
C101  O31   A    
C58   O28   A    
C64   C65   S    
C4    H24   S    
C107  O46   A    
Cr8   O18   S    
C36   H41   S    
Cr4   O13   S    
C93   H15   S    
Cr2   O10   S    
C1    C16   S    
C71   C89   S    
Cr8   O45   S    
Cr1   O9    S    
C20   N4    S    
C4    C57   S    
C2    C73   A    
C112  O50   A    
C25   C30   A    
C3    O8    A    
Cr11  O26   S    
C21   C38   S    
C34   H39   S    
C16   C95   A    
C107  O41   A    
C77   C99   A    
C65   H34   S    
C82   C100  A    
C31   H33   S    
C7    H25   S    
C90   C94   S    
C67   C71   A    
C38   H43   S    
C4    C9    D    
C74   C78   A    
C109  O43   A    
Cr3   O3    S    
C32   H37   S    
Br7   C28   S    
C46   C56   A    
C69   C74   A    
Cr7   O39   S    
C7    C60   S    
C33   H31   S    
C42   C103  S    
C31   C62   S    
C69   C87   A    
C97   C114  S    
C63   H12   S    
C45   C53   A    
C53   C54   A    
C89   C93   S    
C89   H6    S    
C113  O4    A    
Cr8   O44   S    
Cr6   O16   S    
C55   C56   A    
C40   O20   A    
C44   C111  S    
C102  O32   A    
C29   O15   A    
C33   C84   S    
C110  O52   A    
C111  O2    A    
C63   N4    S    
C66   C70   A    
Cr12  O27   S    
C44   C54   A    
C33   C37   S    
C15   C84   A    
C1    O18   A    
Cr1   O36   S    
H53   N1    S    
C67   C108  S    
Cr2   O28   S    
C47   C52   A    
C2    C41   A    
Cr8   O22   S    
C47   C112  S    
Cr10  O11   S    
C32   H35   S    
C113  O51   A    
C77   C94   S    
Cr2   O6    S    
C94   H16   S    
C41   C102  S    
C13   C84   A    
