data_mof_unit_23264.cif
_audit_creation_date              2012-12-11T16:21:31-0500
_audit_creation_method            fapswitch 2.2
_symmetry_space_group_name_H-M    P1
_symmetry_Int_Tables_number       1
_space_group_crystal_system       triclinic
_cell_length_a                    7.193521
_cell_length_b                    36.709529
_cell_length_c                    41.673409
_cell_angle_alpha                 89.998934
_cell_angle_beta                  89.992016
_cell_angle_gamma                 90.003856
_cell_volume                      11004.7289762

loop_
_atom_site_label
_atom_site_type_symbol
_atom_type_description
_atom_site_fract_x
_atom_site_fract_y
_atom_site_fract_z
_atom_type_partial_charge
O1    O     O_R   0.564240 0.782760 0.216890 -0.525352
O2    O     O_R   0.435760 0.217240 0.783110 -0.525353
O3    O     O_R   0.435760 0.217240 0.716890 -0.525333
O4    O     O_R   0.564240 0.782760 0.283110 -0.525334
O5    O     O_R   0.064240 0.717240 0.283110 -0.525335
O6    O     O_R   0.935760 0.282760 0.716890 -0.525337
O7    O     O_R   0.935760 0.282760 0.783110 -0.525343
O8    O     O_R   0.064240 0.717240 0.216890 -0.525346
O9    O     O_R   0.234510 0.787070 0.282870 -0.533815
O10   O     O_R   0.765490 0.212930 0.717130 -0.533814
O11   O     O_R   0.765490 0.212930 0.782870 -0.533808
O12   O     O_R   0.234510 0.787070 0.217130 -0.533809
O13   O     O_R   0.734510 0.712930 0.217130 -0.533802
O14   O     O_R   0.265490 0.287070 0.782870 -0.533801
O15   O     O_R   0.265490 0.287070 0.717130 -0.533800
O16   O     O_R   0.734510 0.712930 0.282870 -0.533805
C1    C     C_R   0.403439 0.796048 0.293487 0.735536
C2    C     C_R   0.596561 0.203952 0.706513 0.735537
C3    C     C_R   0.596546 0.203953 0.793487 0.735550
C4    C     C_R   0.403454 0.796046 0.206513 0.735550
C5    C     C_R   0.903447 0.703954 0.206512 0.735541
C6    C     C_R   0.096553 0.296045 0.793489 0.735540
C7    C     C_R   0.096566 0.296054 0.706516 0.735506
C8    C     C_R   0.903432 0.703948 0.293485 0.735509
O17   O     O_3   0.397750 0.727090 0.250000 -0.354450
O18   O     O_3   0.602250 0.272910 0.750000 -0.354446
O19   O     O_3   0.897750 0.772910 0.250000 -0.354457
O20   O     O_3   0.102250 0.227090 0.750000 -0.354456
V1    V     V_3+5 0.122890 0.754250 0.250000 1.557537
V2    V     V_3+5 0.877110 0.245750 0.750000 1.557540
V3    V     V_3+5 0.622890 0.745750 0.250000 1.557564
V4    V     V_3+5 0.377110 0.254250 0.750000 1.557570
C9    C     C_R   0.005875 0.613382 0.427641 0.617605
C10   C     C_R   0.993906 0.386607 0.572366 0.617665
C11   C     C_R   0.993714 0.386584 0.927667 0.617389
C12   C     C_R   0.006331 0.613414 0.072337 0.617401
C13   C     C_R   0.506349 0.886591 0.072341 0.617388
C14   C     C_R   0.493627 0.113410 0.927658 0.617399
C15   C     C_R   0.493786 0.113413 0.572342 0.617406
C16   C     C_R   0.506206 0.886590 0.427657 0.617403
O21   O     O_2   0.056795 0.648527 0.430583 -0.516642
O22   O     O_2   0.943002 0.351460 0.569438 -0.516658
O23   O     O_2   0.942192 0.351471 0.930593 -0.516604
O24   O     O_2   0.057834 0.648529 0.069413 -0.516608
O25   O     O_2   0.557842 0.851477 0.069416 -0.516603
O26   O     O_2   0.442137 0.148524 0.930582 -0.516605
O27   O     O_2   0.442333 0.148529 0.569421 -0.516626
O28   O     O_2   0.557679 0.851475 0.430578 -0.516622
N1    N     N_R   0.922656 0.602975 0.399738 -0.534436
N2    N     N_R   0.077133 0.397027 0.600266 -0.534436
N3    N     N_R   0.077546 0.396934 0.899799 -0.534437
N4    N     N_R   0.922507 0.603062 0.100205 -0.534436
N5    N     N_R   0.422536 0.896941 0.100210 -0.534446
N6    N     N_R   0.577437 0.103059 0.899789 -0.534446
N7    N     N_R   0.577543 0.103055 0.600210 -0.534431
N8    N     N_R   0.422444 0.896946 0.399789 -0.534432
C17   C     C_R   0.859136 0.568405 0.395212 0.597404
C18   C     C_R   0.140525 0.431606 0.604789 0.597381
C19   C     C_R   0.141898 0.431451 0.895308 0.597525
C20   C     C_R   0.858190 0.568542 0.104696 0.597520
C21   C     C_R   0.358205 0.931457 0.104701 0.597521
C22   C     C_R   0.641748 0.068541 0.895298 0.597517
C23   C     C_R   0.641805 0.068534 0.604698 0.597529
C24   C     C_R   0.358164 0.931466 0.395301 0.597532
C25   C     C_R   0.066566 0.630135 0.352152 -0.140902
C26   C     C_R   0.933341 0.369868 0.647860 -0.140967
C27   C     C_R   0.933459 0.369802 0.852221 -0.140738
C28   C     C_R   0.066563 0.630194 0.147785 -0.140752
C29   C     C_R   0.566592 0.869811 0.147790 -0.140722
C30   C     C_R   0.433395 0.130189 0.852209 -0.140730
C31   C     C_R   0.433466 0.130186 0.647795 -0.140732
C32   C     C_R   0.566527 0.869815 0.352204 -0.140715
C33   C     C_R   0.066794 0.654168 0.326091 0.141040
C34   C     C_R   0.933162 0.345835 0.673920 0.141021
C35   C     C_R   0.933193 0.345794 0.826141 0.141057
C36   C     C_R   0.066815 0.654202 0.173864 0.141049
C37   C     C_R   0.566835 0.845803 0.173870 0.141025
C38   C     C_R   0.433159 0.154197 0.826129 0.141021
C39   C     C_R   0.433208 0.154195 0.673874 0.141025
C40   C     C_R   0.566789 0.845806 0.326126 0.141022
C41   C     C_R   0.759962 0.675067 0.341932 -0.214742
C42   C     C_R   0.239996 0.324946 0.658068 -0.214778
C43   C     C_R   0.240008 0.324868 0.841948 -0.214688
C44   C     C_R   0.760004 0.675126 0.158053 -0.214697
C45   C     C_R   0.260026 0.824871 0.158056 -0.214700
C46   C     C_R   0.739968 0.175128 0.841944 -0.214704
C47   C     C_R   0.740047 0.175119 0.658056 -0.214717
C48   C     C_R   0.259951 0.824881 0.341944 -0.214711
C49   C     C_R   0.761572 0.650958 0.368036 0.228579
C50   C     C_R   0.238334 0.349055 0.631964 0.228599
C51   C     C_R   0.238440 0.348951 0.868067 0.228548
C52   C     C_R   0.761585 0.651043 0.131935 0.228551
C53   C     C_R   0.261612 0.848955 0.131939 0.228540
C54   C     C_R   0.738375 0.151043 0.868062 0.228544
C55   C     C_R   0.738476 0.151034 0.631939 0.228511
C56   C     C_R   0.261518 0.848966 0.368061 0.228503
C57   C     C_R   0.915976 0.628352 0.373254 0.317449
C58   C     C_R   0.083900 0.371655 0.626753 0.317434
C59   C     C_R   0.084080 0.371560 0.873311 0.317447
C60   C     C_R   0.915952 0.628434 0.126693 0.317446
C61   C     C_R   0.415984 0.871567 0.126697 0.317456
C62   C     C_R   0.583999 0.128433 0.873302 0.317454
C63   C     C_R   0.584094 0.128426 0.626699 0.317469
C64   C     C_R   0.415898 0.871575 0.373300 0.317470
C65   C     C_R   0.967646 0.551706 0.448859 -0.086647
C66   C     C_R   0.031882 0.448289 0.551146 -0.086639
C67   C     C_R   0.032726 0.448232 0.948906 -0.086691
C68   C     C_R   0.967381 0.551765 0.051099 -0.086691
C69   C     C_R   0.467349 0.948237 0.051101 -0.086694
C70   C     C_R   0.532595 0.051763 0.948898 -0.086692
C71   C     C_R   0.532688 0.051764 0.551098 -0.086686
C72   C     C_R   0.467271 0.948238 0.448901 -0.086687
C73   C     C_R   0.036174 0.587898 0.452889 -0.085541
C74   C     C_R   0.963563 0.412082 0.547111 -0.085522
C75   C     C_R   0.963346 0.412095 0.952892 -0.085634
C76   C     C_R   0.036713 0.587905 0.047111 -0.085630
C77   C     C_R   0.536724 0.912102 0.047116 -0.085626
C78   C     C_R   0.463250 0.087901 0.952884 -0.085624
C79   C     C_R   0.463412 0.087907 0.547114 -0.085625
C80   C     C_R   0.536567 0.912097 0.452885 -0.085626
C81   C     C_R   0.137908 0.596770 0.481321 0.117904
C82   C     C_R   0.861980 0.403188 0.518667 0.117873
C83   C     C_R   0.860747 0.403304 0.981254 0.117828
C84   C     C_R   0.139281 0.596701 0.018748 0.117833
C85   C     C_R   0.639324 0.903313 0.018755 0.117805
C86   C     C_R   0.360677 0.096693 0.981247 0.117824
C87   C     C_R   0.360906 0.096708 0.518750 0.117842
C88   C     C_R   0.639079 0.903297 0.481248 0.117843
C89   C     C_R   0.883033 0.541347 0.419264 -0.055466
C90   C     C_R   0.116371 0.458666 0.580748 -0.055364
C91   C     C_R   0.118478 0.458508 0.919378 -0.055795
C92   C     C_R   0.881662 0.541485 0.080628 -0.055767
C93   C     C_R   0.381617 0.958514 0.080629 -0.055782
C94   C     C_R   0.618305 0.041484 0.919368 -0.055779
C95   C     C_R   0.618363 0.041480 0.580626 -0.055787
C96   C     C_R   0.381579 0.958520 0.419374 -0.055798
C97   C     C_R   0.911547 0.677242 0.320528 -0.131335
C98   C     C_R   0.088431 0.322764 0.679477 -0.131322
C99   C     C_R   0.088427 0.322724 0.820550 -0.131364
C100  C     C_R   0.911579 0.677273 0.179453 -0.131359
C101  C     C_R   0.411597 0.822728 0.179455 -0.131361
C102  C     C_R   0.588399 0.177272 0.820544 -0.131359
C103  C     C_R   0.588450 0.177267 0.679457 -0.131354
C104  C     C_R   0.411549 0.822733 0.320543 -0.131354
H1    H     H_    0.640208 0.692556 0.338700 0.174944
H2    H     H_    0.359767 0.307460 0.661296 0.174942
H3    H     H_    0.359736 0.307375 0.838698 0.174957
H4    H     H_    0.640271 0.692619 0.161302 0.174955
H5    H     H_    0.140289 0.807376 0.161304 0.174946
H6    H     H_    0.859707 0.192622 0.838697 0.174945
H7    H     H_    0.859791 0.192611 0.661302 0.174951
H8    H     H_    0.140208 0.807388 0.338698 0.174950
C105  C     C_R   0.080720 0.510263 0.529568 0.020687
C106  C     C_R   0.918618 0.489735 0.470442 0.020673
C107  C     C_R   0.917649 0.489831 0.029482 0.020603
C108  C     C_R   0.082496 0.510166 0.970522 0.020600
C109  C     C_R   0.582366 0.989833 0.970519 0.020603
C110  C     C_R   0.417555 0.010167 0.029480 0.020601
C111  C     C_R   0.417590 0.010173 0.470522 0.020600
C112  C     C_R   0.582352 0.989829 0.529478 0.020602
C113  C     C_R   0.927757 0.464326 0.496505 0.006143
C114  C     C_R   0.071718 0.535660 0.503499 0.006133
C115  C     C_R   0.072980 0.535600 0.996563 0.006077
C116  C     C_R   0.927133 0.464399 0.003441 0.006076
C117  C     C_R   0.427035 0.035599 0.003437 0.006079
C118  C     C_R   0.572906 0.964403 0.996563 0.006078
C119  C     C_R   0.572833 0.964398 0.503436 0.006075
C120  C     C_R   0.427123 0.035606 0.496563 0.006075
C121  C     C_R   0.014606 0.474236 0.525636 0.070442
C122  C     C_R   0.984842 0.525756 0.474370 0.070427
C123  C     C_R   0.984832 0.525790 0.025609 0.070366
C124  C     C_R   0.015289 0.474208 0.974395 0.070362
C125  C     C_R   0.515169 0.025789 0.974391 0.070361
C126  C     C_R   0.484766 0.974211 0.025609 0.070360
C127  C     C_R   0.484725 0.974211 0.474392 0.070366
C128  C     C_R   0.515227 0.025791 0.525607 0.070367
C129  C     C_R   0.145476 0.520576 0.560118 -0.206201
C130  C     C_R   0.853584 0.479444 0.439904 -0.206117
C131  C     C_R   0.851136 0.479622 0.059949 -0.206073
C132  C     C_R   0.149073 0.520370 0.940058 -0.206055
C133  C     C_R   0.648868 0.979624 0.940051 -0.206075
C134  C     C_R   0.351010 0.020372 0.059945 -0.206061
C135  C     C_R   0.351057 0.020381 0.440059 -0.206052
C136  C     C_R   0.648850 0.979618 0.559942 -0.206061
C137  C     C_R   0.167495 0.495862 0.585353 0.139717
C138  C     C_R   0.831519 0.504169 0.414676 0.139634
C139  C     C_R   0.828665 0.504376 0.085140 0.139461
C140  C     C_R   0.171561 0.495613 0.914869 0.139440
C141  C     C_R   0.671327 0.004377 0.914858 0.139446
C142  C     C_R   0.328544 0.995617 0.085137 0.139440
C143  C     C_R   0.328548 0.995626 0.414870 0.139439
C144  C     C_R   0.671349 0.004372 0.585132 0.139447
O29   O     O_2   0.227637 0.439159 0.632583 -0.521763
O30   O     O_2   0.772188 0.560859 0.367401 -0.521769
O31   O     O_2   0.771024 0.561041 0.132501 -0.521779
O32   O     O_2   0.229039 0.438949 0.867501 -0.521780
O33   O     O_2   0.728882 0.061042 0.867491 -0.521779
O34   O     O_2   0.271090 0.938956 0.132510 -0.521782
O35   O     O_2   0.271104 0.938973 0.367492 -0.521786
O36   O     O_2   0.728880 0.061026 0.632505 -0.521784
C145  C     C_R   0.156134 0.570193 0.505339 -0.164188
C146  C     C_R   0.843552 0.429771 0.494658 -0.164160
C147  C     C_R   0.842071 0.429923 0.005222 -0.164178
C148  C     C_R   0.157994 0.570081 0.994780 -0.164172
C149  C     C_R   0.657982 0.929931 0.994784 -0.164187
C150  C     C_R   0.341994 0.070075 0.005217 -0.164177
C151  C     C_R   0.342171 0.070090 0.494783 -0.164174
C152  C     C_R   0.657805 0.929916 0.505215 -0.164175
H9    H     H_    0.815268 0.387627 0.643959 0.166286
H10   H     H_    0.184617 0.612372 0.356057 0.166288
H11   H     H_    0.184587 0.612427 0.143864 0.166336
H12   H     H_    0.815440 0.387569 0.856144 0.166338
H13   H     H_    0.315368 0.112419 0.856128 0.166327
H14   H     H_    0.684616 0.887581 0.143870 0.166328
H15   H     H_    0.684558 0.887582 0.356123 0.166333
H16   H     H_    0.315434 0.112419 0.643877 0.166334
H17   H     H_    0.171964 0.548739 0.565662 0.115778
H18   H     H_    0.826825 0.451295 0.434358 0.115775
H19   H     H_    0.823369 0.451507 0.065481 0.115888
H20   H     H_    0.176898 0.548482 0.934526 0.115887
H21   H     H_    0.676640 0.951509 0.934522 0.115892
H22   H     H_    0.323196 0.048485 0.065475 0.115891
H23   H     H_    0.323281 0.048494 0.434529 0.115888
H24   H     H_    0.676595 0.951504 0.565472 0.115889
H25   H     H_    0.244342 0.576314 0.525251 0.137297
H26   H     H_    0.755380 0.423629 0.474749 0.137271
H27   H     H_    0.753037 0.423872 0.025040 0.137291
H28   H     H_    0.247014 0.576138 0.974962 0.137285
H29   H     H_    0.747011 0.923882 0.974965 0.137290
H30   H     H_    0.252975 0.076128 0.025036 0.137287
H31   H     H_    0.253182 0.076151 0.474967 0.137287
H32   H     H_    0.746806 0.923858 0.525031 0.137291
I1    I     I_    0.529392 0.649682 0.399089 -0.354811
I2    I     I_    0.470464 0.350342 0.600898 -0.354709
I3    I     I_    0.470621 0.350170 0.899102 -0.354791
I4    I     I_    0.529414 0.649820 0.100898 -0.354784
I5    I     I_    0.029435 0.850177 0.100903 -0.354821
I6    I     I_    0.970545 0.149821 0.899099 -0.354798
I7    I     I_    0.970688 0.149806 0.600900 -0.354870
I8    I     I_    0.029306 0.850193 0.399099 -0.354854
C153  C     C_3   0.231209 0.634025 0.485831 -0.262925
C154  C     C_3   0.352431 0.639526 0.515680 -0.805907
H33   H     H_    0.267981 0.636902 0.537885 0.225037
H34   H     H_    0.469593 0.619798 0.515894 0.234919
H35   H     H_    0.412405 0.667407 0.515259 0.242956
H36   H     H_    0.323488 0.639134 0.464972 0.243134
H37   H     H_    0.121338 0.655267 0.486808 0.225522
C155  C     C_3   0.769085 0.365895 0.514130 -0.262812
C156  C     C_3   0.648337 0.360331 0.484227 -0.805865
H38   H     H_    0.530837 0.379986 0.483973 0.234851
H39   H     H_    0.733061 0.363016 0.462055 0.225056
H40   H     H_    0.588800 0.332410 0.484611 0.242878
H41   H     H_    0.879200 0.344695 0.513198 0.225487
H42   H     H_    0.676575 0.360758 0.534956 0.243114
C157  C     C_3   0.767010 0.366089 0.985742 -0.262996
C158  C     C_3   0.645246 0.360653 0.015534 -0.806112
H43   H     H_    0.729270 0.363307 0.037776 0.225131
H44   H     H_    0.528146 0.380389 0.015666 0.234895
H45   H     H_    0.585220 0.332780 0.015116 0.243072
H46   H     H_    0.675070 0.360996 0.964847 0.243271
H47   H     H_    0.876650 0.344810 0.986786 0.225575
C159  C     C_3   0.232945 0.633923 0.014255 -0.262996
C160  C     C_3   0.354644 0.639369 0.984456 -0.806132
H48   H     H_    0.471793 0.619644 0.984320 0.234893
H49   H     H_    0.270589 0.636705 0.962219 0.225139
H50   H     H_    0.414601 0.667247 0.984870 0.243068
H51   H     H_    0.123264 0.655194 0.013217 0.225573
H52   H     H_    0.324911 0.639022 0.035146 0.243277
C161  C     C_3   0.733084 0.866101 0.014270 -0.262977
C162  C     C_3   0.854893 0.860669 0.984482 -0.806030
H53   H     H_    0.770883 0.863314 0.962237 0.225115
H54   H     H_    0.971976 0.880414 0.984353 0.234885
H55   H     H_    0.914956 0.832799 0.984905 0.243060
H56   H     H_    0.825006 0.861013 0.035169 0.243262
H57   H     H_    0.623452 0.844817 0.013224 0.225570
C163  C     C_3   0.266975 0.133909 0.985736 -0.262991
C164  C     C_3   0.145233 0.139347 0.015530 -0.806108
H58   H     H_    0.028115 0.119612 0.015665 0.234893
H59   H     H_    0.229269 0.136693 0.037771 0.225133
H60   H     H_    0.085233 0.167221 0.015112 0.243071
H61   H     H_    0.376635 0.155188 0.986777 0.225576
H62   H     H_    0.175026 0.139003 0.964842 0.243271
C165  C     C_3   0.267332 0.133936 0.514257 -0.262993
C166  C     C_3   0.145725 0.139392 0.484456 -0.806178
H63   H     H_    0.229831 0.136721 0.462220 0.225141
H64   H     H_    0.028521 0.119677 0.484315 0.234897
H65   H     H_    0.085845 0.167276 0.484868 0.243048
H66   H     H_    0.175323 0.139039 0.535146 0.243284
H67   H     H_    0.377063 0.155201 0.513224 0.225556
C167  C     C_3   0.732663 0.866070 0.485742 -0.262998
C168  C     C_3   0.854258 0.860616 0.515544 -0.806183
H68   H     H_    0.971459 0.880331 0.515686 0.234896
H69   H     H_    0.770144 0.863287 0.537779 0.225146
H70   H     H_    0.914138 0.832733 0.515133 0.243058
H71   H     H_    0.622941 0.844804 0.486774 0.225569
H72   H     H_    0.824680 0.860969 0.464854 0.243283
I9    I     I_    0.693341 0.348935 0.703380 -0.297252
I10   I     I_    0.306635 0.651061 0.296636 -0.297229
I11   I     I_    0.306642 0.651066 0.203308 -0.297157
I12   I     I_    0.693349 0.348931 0.796702 -0.297166
I13   I     I_    0.193364 0.151054 0.796677 -0.297142
I14   I     I_    0.806631 0.848947 0.203322 -0.297136
I15   I     I_    0.806625 0.848946 0.296671 -0.297138
I16   I     I_    0.193371 0.151055 0.703328 -0.297142
C169  C     C_3   0.237077 0.511841 0.616907 -0.304122
C170  C     C_3   0.078877 0.516125 0.641138 -0.664473
H73   H     H_    0.975152 0.535968 0.631932 0.203933
H74   H     H_    0.007150 0.489894 0.645723 0.251854
H75   H     H_    0.135276 0.526534 0.664184 0.216685
H76   H     H_    0.355361 0.496152 0.626809 0.225057
H77   H     H_    0.297393 0.539424 0.613188 0.149051
C171  C     C_3   0.761338 0.488217 0.383154 -0.304045
C172  C     C_3   0.919228 0.483785 0.358886 -0.664457
H78   H     H_    0.991562 0.509947 0.354285 0.251910
H79   H     H_    0.022529 0.463846 0.368068 0.203866
H80   H     H_    0.862395 0.473431 0.335854 0.216717
H81   H     H_    0.700481 0.460687 0.386912 0.149041
H82   H     H_    0.643285 0.503987 0.373272 0.225049
C173  C     C_3   0.756021 0.488524 0.116534 -0.303806
C174  C     C_3   0.912466 0.483633 0.140997 -0.664427
H83   H     H_    0.014615 0.463398 0.131938 0.203712
H84   H     H_    0.986576 0.509576 0.145689 0.252067
H85   H     H_    0.853865 0.473445 0.163954 0.216805
H86   H     H_    0.638535 0.504554 0.126292 0.225021
H87   H     H_    0.693538 0.461165 0.112630 0.149029
C175  C     C_3   0.244344 0.511459 0.883482 -0.303764
C176  C     C_3   0.087971 0.516382 0.859010 -0.664396
H88   H     H_    0.013729 0.490453 0.854314 0.252070
H89   H     H_    0.985910 0.536639 0.868063 0.203688
H90   H     H_    0.146674 0.526558 0.836056 0.216805
H91   H     H_    0.306945 0.538807 0.887395 0.149018
H92   H     H_    0.361785 0.495411 0.873730 0.225006
C177  C     C_3   0.744000 0.988525 0.883466 -0.303734
C178  C     C_3   0.587551 0.983617 0.859003 -0.664350
H93   H     H_    0.485436 0.963371 0.868062 0.203682
H94   H     H_    0.513383 0.009555 0.854310 0.252047
H95   H     H_    0.646177 0.973434 0.836046 0.216796
H96   H     H_    0.861472 0.004565 0.873707 0.224991
H97   H     H_    0.806530 0.961171 0.887373 0.149003
C179  C     C_3   0.255790 0.011463 0.116524 -0.303782
C180  C     C_3   0.412180 0.016390 0.140991 -0.664411
H98   H     H_    0.486421 0.990463 0.145687 0.252072
H99   H     H_    0.514234 0.036648 0.131935 0.203696
H100  H     H_    0.353500 0.026565 0.163946 0.216814
H101  H     H_    0.193194 0.038809 0.112610 0.149026
H102  H     H_    0.138356 0.995413 0.126280 0.225016
C181  C     C_3   0.255781 0.011476 0.383489 -0.303784
C182  C     C_3   0.412161 0.016409 0.359013 -0.664406
H103  H     H_    0.514200 0.036669 0.368064 0.203689
H104  H     H_    0.486420 0.990484 0.354312 0.252085
H105  H     H_    0.353469 0.026583 0.336062 0.216814
H106  H     H_    0.138349 0.995426 0.373738 0.225014
H107  H     H_    0.193176 0.038820 0.387408 0.149023
C183  C     C_3   0.744038 0.988518 0.616518 -0.303785
C184  C     C_3   0.587612 0.983603 0.640988 -0.664399
H108  H     H_    0.513425 0.009536 0.645686 0.252076
H109  H     H_    0.485521 0.963354 0.631934 0.203694
H110  H     H_    0.646249 0.973421 0.663942 0.216807
H111  H     H_    0.806579 0.961167 0.612603 0.149022
H112  H     H_    0.861498 0.004558 0.626272 0.225012

loop_
_geom_bond_atom_site_label_1
_geom_bond_atom_site_label_2
_ccdc_geom_bond_type
C48   H8    S    
C106  C113  A    
C168  H68   S    
C10   O22   S    
C20   C92   A    
C147  H27   S    
C21   C93   A    
O15   V4    S    
C177  C178  S    
O16   V3    S    
C145  H25   S    
C19   C91   A    
C166  H63   S    
C169  H76   S    
C158  H45   S    
C106  C122  A    
C66   C90   A    
C143  C181  S    
C35   I12   S    
C87   C151  A    
C110  C126  A    
C154  H34   S    
C11   C75   A    
C175  C176  S    
C149  H29   S    
O2    C3    A    
C70   C78   A    
N6    C62   S    
C118  C126  A    
C154  H35   S    
C75   C83   A    
C133  H21   S    
C174  H85   S    
C179  C180  S    
C53   C61   A    
C72   C80   A    
C6    C99   S    
C52   I4    S    
C141  C177  S    
C10   N2    A    
O10   V2    S    
C184  H108  S    
O12   C4    A    
C30   C62   A    
C170  H73   S    
O13   C5    A    
C55   I7    S    
C152  H32   S    
O6    V2    S    
C56   C64   A    
C11   N3    A    
C162  H54   S    
C12   O24   S    
N5    C21   A    
C15   O27   S    
C16   O28   S    
C86   C163  S    
O1    C4    A    
C131  H19   S    
C165  H66   S    
C153  H37   S    
C166  H65   S    
C29   H14   S    
C129  H17   S    
C29   C61   A    
O7    C6    A    
C43   C51   A    
C139  C173  S    
C18   O29   S    
C83   C147  A    
C81   C145  A    
C42   C98   A    
C108  C132  A    
C178  H95   S    
C82   C146  A    
C33   C97   A    
O10   C2    A    
C183  H112  S    
C85   C149  A    
C182  H103  S    
N4    C60   S    
C37   C101  A    
C95   C144  A    
N1    C57   S    
C130  C138  A    
C32   H15   S    
C13   C77   A    
C54   C62   A    
C85   C161  S    
C142  C179  S    
C88   C152  A    
C39   I16   S    
C31   H16   S    
C110  C117  A    
O17   V3    S    
C24   C96   A    
O18   V4    S    
O12   V1    S    
O19   V1    S    
C29   C37   A    
C31   C39   A    
C81   C153  S    
C156  H38   S    
C163  H62   S    
C161  H56   S    
C1    C104  S    
C167  H72   S    
O8    V1    S    
C65   C73   A    
C2    C103  S    
C168  H69   S    
C86   C150  A    
C46   H6    S    
C172  H79   S    
C177  H97   S    
C26   C34   A    
C51   I3    S    
O1    V3    S    
N1    C17   A    
C171  C172  S    
O2    V4    S    
C153  C154  S    
C49   I1    S    
N4    C20   A    
C181  H106  S    
C45   C53   A    
C39   C103  A    
C157  H47   S    
C53   I5    S    
C40   C104  A    
C158  H44   S    
N8    C24   A    
C118  C149  A    
C11   O23   S    
C12   N4    A    
C13   N5    A    
C88   C167  S    
C164  H58   S    
C137  C169  S    
C72   C96   A    
C150  H30   S    
C55   C63   A    
C180  H99   S    
C105  C129  A    
N2    C58   S    
C71   C128  A    
C113  C146  A    
O11   V2    S    
C45   C101  A    
C159  H51   S    
C176  H89   S    
C155  H41   S    
C108  C124  A    
C182  H105  S    
C47   C55   A    
C174  H84   S    
C28   C60   A    
C25   H10   S    
C184  H109  S    
C175  H92   S    
O14   C6    A    
C171  H82   S    
C116  C124  A    
C27   C35   A    
C179  H101  S    
C12   C76   A    
C119  C127  A    
C120  C128  A    
C31   C63   A    
C157  H46   S    
C156  H40   S    
C4    C101  S    
C22   O33   S    
C112  C136  A    
C36   I11   S    
C159  C160  S    
C8    C97   S    
C28   C36   A    
C134  C142  A    
C9    C73   A    
C17   O30   S    
C119  C152  A    
C26   C58   A    
C166  H64   S    
C32   C40   A    
C35   C99   A    
C15   C79   A    
C68   C92   A    
C70   C94   A    
C73   C81   A    
C163  C164  S    
C40   I15   S    
C135  H23   S    
C183  C184  S    
C164  H60   S    
C165  C166  S    
C44   C52   A    
C51   C59   A    
C161  C162  S    
C77   C85   A    
C20   O31   S    
C79   C87   A    
C48   C56   A    
C160  H50   S    
C7    C98   S    
C43   C99   A    
C90   C137  A    
C69   C77   A    
C160  H48   S    
C146  H26   S    
C41   C97   A    
C34   C98   A    
O11   C3    A    
C94   C141  A    
N7    C23   A    
C38   C102  A    
C70   C125  A    
C131  C139  A    
C9    N1    A    
C129  C137  A    
C23   O36   S    
C167  C168  S    
O13   V3    S    
C132  C140  A    
C133  C141  A    
C15   N7    A    
C173  H87   S    
C108  C115  A    
N5    C61   S    
C16   N8    A    
C170  H74   S    
C136  C144  A    
C115  C123  A    
C83   C157  S    
C27   C59   A    
C41   C49   A    
O7    V2    S    
C89   C138  A    
C56   I8    S    
C162  H55   S    
C109  C133  A    
C92   C139  A    
C42   H2    S    
C107  C131  A    
C93   C142  A    
C67   C124  A    
C44   H4    S    
C115  C148  A    
C134  H22   S    
C170  H75   S    
C65   C122  A    
C96   C143  A    
C153  H36   S    
N2    C18   A    
N8    C64   S    
C181  C182  S    
C69   C126  A    
C32   C64   A    
C169  H77   S    
C69   C93   A    
C116  C147  A    
C114  C122  A    
C144  C183  S    
C154  H33   S    
C120  C151  A    
C27   H12   S    
C37   I14   S    
O4    C1    A    
C16   C80   A    
C84   C148  A    
C3    C102  S    
C106  C130  A    
C155  C156  S    
C46   C102  A    
C17   C89   A    
C173  H86   S    
C76   C84   A    
C33   I10   S    
C30   H13   S    
C130  H18   S    
O14   V4    S    
C21   O34   S    
C80   C88   A    
C19   O32   S    
N6    C22   A    
C42   C50   A    
C140  C175  S    
C105  C114  A    
C9    O21   S    
C68   C76   A    
C176  H88   S    
C71   C95   A    
C172  H78   S    
C177  H96   S    
C18   C90   A    
C178  H94   S    
O3    V4    S    
O4    V3    S    
C173  C174  S    
C14   C78   A    
C169  C170  S    
C24   O35   S    
C105  C121  A    
C162  H53   S    
C5    C100  S    
C109  C125  A    
C38   I13   S    
C30   C38   A    
C180  H98   S    
C165  H67   S    
C66   C74   A    
C71   C79   A    
C159  H52   S    
C155  H42   S    
C163  H61   S    
C117  C125  A    
C183  H111  S    
N7    C63   S    
C25   C33   A    
C111  C120  A    
C50   I2    S    
O3    C2    A    
C138  C171  S    
C112  C119  A    
C87   C165  S    
C46   C54   A    
C54   I6    S    
C14   N6    A    
C148  H28   S    
C117  C150  A    
O9    V1    S    
C91   C140  A    
O15   C7    A    
O16   C8    A    
C47   H7    S    
C112  C128  A    
C179  H102  S    
C182  H104  S    
O5    V1    S    
C113  C121  A    
C36   C100  A    
N3    C59   S    
C156  H39   S    
C14   O26   S    
C161  H57   S    
C114  C145  A    
C167  H71   S    
C168  H70   S    
C67   C91   A    
C172  H80   S    
C65   C89   A    
C49   C57   A    
C23   C95   A    
C178  H93   S    
C84   C159  S    
C158  H43   S    
C72   C127  A    
O8    C5    A    
C181  H107  S    
C26   H9    S    
C110  C134  A    
C67   C75   A    
C43   H3    S    
O9    C1    A    
C41   H1    S    
C164  H59   S    
C66   C121  A    
C132  H20   S    
N3    C19   A    
C157  C158  S    
C52   C60   A    
C82   C155  S    
C180  H100  S    
C136  H24   S    
C135  C143  A    
C109  C118  A    
C176  H90   S    
C107  C116  A    
C10   C74   A    
C47   C103  A    
C174  H83   S    
C22   C94   A    
O20   V2    S    
C25   C57   A    
C160  H49   S    
C151  H31   S    
O5    C8    A    
O6    C7    A    
C48   C104  A    
C45   H5    S    
C74   C82   A    
C107  C123  A    
C184  H110  S    
C44   C100  A    
C68   C123  A    
C175  H91   S    
C171  H81   S    
C34   I9    S    
C111  C127  A    
C78   C86   A    
C111  C135  A    
C28   H11   S    
C13   O25   S    
C50   C58   A    
