data_mof_unit_37799.cif
_audit_creation_date              2012-12-11T16:56:10-0500
_audit_creation_method            fapswitch 2.2
_symmetry_space_group_name_H-M    P1
_symmetry_Int_Tables_number       1
_space_group_crystal_system       triclinic
_cell_length_a                    6.97372
_cell_length_b                    14.573469
_cell_length_c                    16.167573
_cell_angle_alpha                 90.335747
_cell_angle_beta                  89.911607
_cell_angle_gamma                 89.927042
_cell_volume                      1643.09981871

loop_
_atom_site_label
_atom_site_type_symbol
_atom_type_description
_atom_site_fract_x
_atom_site_fract_y
_atom_site_fract_z
_atom_type_partial_charge
O1    O     O_R   0.505830 0.583360 0.413880 -0.540808
O2    O     O_R   0.175830 0.595460 0.585520 -0.533164
O3    O     O_R   0.005520 0.416640 0.586120 -0.534390
C1    C     C_R   0.344455 0.616920 0.614890 0.704428
O4    O     O_R   0.176120 0.594390 0.414490 -0.546384
O5    O     O_R   0.005810 0.415570 0.413870 -0.549634
C2    C     C_R   0.344900 0.616441 0.386110 0.681757
O6    O     O_R   0.505540 0.584430 0.586130 -0.529819
O7    O     O_3   0.339200 0.441330 0.500000 -0.378466
V1    V     V_3+5 0.064350 0.510880 0.500000 1.422266
O8    O     O_R   0.676100 0.404540 0.414480 -0.543681
C3    C     C_R   0.845566 0.385103 0.383726 0.698058
O9    O     O_R   0.675810 0.405610 0.585510 -0.536483
C4    C     C_R   0.845152 0.382727 0.612771 0.825771
V2    V     V_3+5 0.564340 0.489120 0.500000 1.422875
O10   O     O_3   0.839360 0.558670 0.500000 -0.367767
C5    C     C_2   0.721285 0.209026 0.786147 -0.133809
C6    C     C_2   0.885592 0.181919 0.822703 -0.309361
H1    H     H_    0.586077 0.180414 0.807125 0.137008
H2    H     H_    0.022349 0.210129 0.804003 0.129703
C7    C     C_2   0.708942 0.277554 0.718170 -0.134923
C8    C     C_2   0.861585 0.314343 0.679528 -0.291422
H3    H     H_    0.565699 0.297596 0.699086 0.134419
H4    H     H_    0.005914 0.294878 0.696696 0.122919
C9    C     C_R   0.741260 0.177871 0.247322 0.098424
C10   C     C_R   0.882421 0.181697 0.185895 -0.211068
C11   C     C_R   0.021771 0.250819 0.192693 -0.205805
H5    H     H_    0.133430 0.255643 0.146237 0.146228
C12   C     C_R   0.010867 0.319320 0.254602 0.289136
C13   C     C_R   0.861519 0.316668 0.315293 -0.155620
C14   C     C_R   0.731464 0.243507 0.310472 -0.005340
C15   C     C_3   0.517397 0.246827 0.307863 -0.430320
C16   C     C_3   0.527337 0.175437 0.238829 0.165498
H6    H     H_    0.465279 0.314398 0.286209 0.169229
H7    H     H_    0.450454 0.222928 0.366264 0.174990
H8    H     H_    0.476659 0.201537 0.178137 0.105461
C17   C     C_R   0.519300 0.737904 0.697643 0.038286
C18   C     C_R   0.353682 0.686421 0.682775 -0.104562
C19   C     C_R   0.200225 0.699868 0.737665 -0.151626
H9    H     H_    0.077453 0.656557 0.732704 0.158797
C20   C     C_R   0.211767 0.762701 0.804059 -0.169386
H10   H     H_    0.094052 0.767135 0.847418 0.129278
C21   C     C_R   0.378890 0.814470 0.818009 -0.072496
C22   C     C_R   0.530093 0.803046 0.761697 0.090704
C23   C     C_3   0.731994 0.777985 0.780980 -0.469011
C24   C     C_3   0.716096 0.703281 0.715325 -0.179205
H11   H     H_    0.749862 0.753010 0.845423 0.192631
H12   H     H_    0.831833 0.833977 0.763346 0.160435
H13   H     H_    0.813385 0.712898 0.661496 0.119128
C25   C     C_R   0.511633 0.744725 0.310715 0.095928
C26   C     C_R   0.352962 0.687009 0.320335 -0.102666
C27   C     C_R   0.198528 0.699796 0.265617 -0.189219
H14   H     H_    0.073185 0.657040 0.270649 0.138708
C28   C     C_R   0.210558 0.762728 0.199884 -0.187333
H15   H     H_    0.093241 0.767126 0.156513 0.134241
C29   C     C_R   0.377649 0.814911 0.186866 -0.106007
C30   C     C_R   0.523896 0.806767 0.245568 0.107434
C31   C     C_3   0.731656 0.787956 0.233205 -0.416659
C32   C     C_3   0.718401 0.720700 0.304449 -0.401783
H16   H     H_    0.821526 0.848958 0.247452 0.171264
H17   H     H_    0.760597 0.754200 0.172618 0.171560
H18   H     H_    0.800188 0.742920 0.360013 0.173758
H19   H     H_    0.740360 0.648025 0.285303 0.164756
O11   O     O_R   0.229930 0.912420 0.917160 -0.543801
O12   O     O_R   0.559420 0.902500 0.088780 -0.536716
O13   O     O_R   0.729660 0.081330 0.089380 -0.530093
C33   C     C_R   0.390400 0.880496 0.117186 0.728656
O14   O     O_R   0.559650 0.901420 0.917750 -0.540192
O15   O     O_R   0.729880 0.080250 0.917130 -0.538527
C34   C     C_R   0.390888 0.879666 0.888819 0.685443
O16   O     O_R   0.229700 0.913500 0.089410 -0.541121
O17   O     O_3   0.396250 0.055540 0.003280 -0.369888
V3    V     V_3+5 0.671130 0.986010 0.003260 1.419003
O18   O     O_R   0.059600 0.091310 0.917720 -0.545869
C35   C     C_R   0.890912 0.113221 0.889626 0.738734
O19   O     O_R   0.059370 0.092380 0.088750 -0.542889
C36   C     C_R   0.890391 0.114225 0.117308 0.723188
V4    V     V_3+5 0.171120 0.007820 0.003230 1.403042
O20   O     O_3   0.896130 0.938240 0.003240 -0.376161
N1    N     N_2   0.439017 0.087949 0.260095 -0.497086
H20   H     H_    0.291545 0.091641 0.263792 0.256939
C37   C     C_3   0.524779 0.031349 0.323685 -0.528331
H21   H     H_    0.435044 0.969496 0.333379 0.183932
H22   H     H_    0.533849 0.069230 0.383268 0.186339
H23   H     H_    0.669905 0.008337 0.304225 0.196589
C38   C     C_2   0.715312 0.607507 0.751301 0.777039
O21   O     O_2   0.811144 0.547156 0.718755 -0.576401
O22   O     O_R   0.603362 0.587741 0.820847 -0.660898
H24   H     H_    0.614179 0.521197 0.838185 0.288100
N2    N     N_2   0.138048 0.395120 0.247150 -0.537748
H25   H     H_    0.204808 0.417480 0.300140 0.268463
C39   C     C_3   0.067540 0.468463 0.195663 -0.564579
H26   H     H_    0.183000 0.519707 0.186298 0.200178
H27   H     H_    0.942611 0.502464 0.225674 0.176976
H28   H     H_    0.024568 0.441450 0.134006 0.210813

loop_
_geom_bond_atom_site_label_1
_geom_bond_atom_site_label_2
_ccdc_geom_bond_type
C9    C14   A    
C6    C35   S    
C11   C12   A    
C20   H10   S    
C1    O6    A    
C30   C31   S    
C19   C20   A    
C23   C24   S    
C27   H14   S    
C24   H13   S    
C10   C11   A    
C17   C18   A    
C25   C32   S    
O19   V4    S    
O5    C3    A    
C13   C14   A    
C38   O22   S    
C31   H16   S    
V2    O10   S    
C16   H8    S    
O12   V3    S    
C29   C30   A    
O17   V4    S    
O8    V2    S    
O12   C33   A    
O15   V3    S    
O1    V2    S    
O11   C34   A    
O7    V1    S    
C33   O16   A    
C31   H17   S    
C7    C8    D    
C20   C21   A    
C12   N2    S    
C9    C10   A    
C27   C28   A    
C5    C6    D    
C23   H11   S    
C28   C29   A    
C10   C36   S    
O18   C35   A    
C26   C27   A    
C15   H7    S    
O19   C36   A    
N1    C37   S    
C19   H9    S    
O4    C2    A    
C38   O21   D    
N1    H20   S    
O14   V3    S    
O13   V3    S    
C39   H28   S    
C5    C7    S    
C15   H6    S    
O2    C1    A    
C21   C22   A    
C12   C13   A    
N2    C39   S    
C14   C15   S    
C39   H27   S    
C25   C26   A    
V3    O20   S    
O3    C4    A    
C1    C18   S    
C21   C34   S    
C37   H22   S    
O9    V2    S    
C8    H4    S    
C29   C33   S    
C22   C23   S    
C23   H12   S    
O13   C36   A    
C28   H15   S    
C32   H18   S    
C3    C13   S    
O1    C2    A    
C25   C30   A    
O11   V4    S    
O17   V3    S    
O5    V1    S    
O8    C3    A    
C16   N1    S    
O6    V2    S    
C37   H23   S    
C32   H19   S    
C15   C16   S    
C4    C8    S    
C17   C22   A    
C7    H3    S    
C31   C32   S    
C2    C26   S    
O4    V1    S    
O3    V1    S    
V1    O10   S    
V4    O20   S    
N2    H25   S    
C18   C19   A    
C39   H26   S    
C5    H1    S    
O15   C35   A    
C6    H2    S    
O7    V2    S    
O22   H24   S    
O14   C34   A    
C37   H21   S    
O18   V4    S    
C11   H5    S    
C17   C24   S    
O9    C4    A    
O16   V4    S    
C9    C16   S    
C24   C38   S    
O2    V1    S    
