data_mof_unit_19129.cif
_audit_creation_date              2013-03-05T15:47:40-0500
_audit_creation_method            fapswitch 2.2
_symmetry_space_group_name_H-M    P1
_symmetry_Int_Tables_number       1
_space_group_crystal_system       triclinic
_cell_length_a                    10.254461
_cell_length_b                    10.824639
_cell_length_c                    11.021305
_cell_angle_alpha                 88.897488
_cell_angle_beta                  94.294355
_cell_angle_gamma                 81.745662
_cell_volume                      1206.74388678

loop_
_atom_site_label
_atom_site_type_symbol
_atom_site_description
_atom_site_fract_x
_atom_site_fract_y
_atom_site_fract_z
_atom_type_partial_charge
O1    O     O_R   0.568940 0.489540 0.307530 -0.616859
O2    O     O_R   0.348880 0.522880 0.340350 -0.546156
C1    C     C_R   0.444585 0.513512 0.268501 0.879425
O3    O     O_R   0.610030 0.298130 0.483570 -0.621636
O4    O     O_R   0.389960 0.331470 0.516390 -0.601366
C2    C     C_R   0.500710 0.257412 0.507154 0.955278
Zn1   Zn    Zn3+2 0.646940 0.477740 0.478080 1.096568
Zn2   Zn    Zn3+2 0.353060 0.522260 0.521920 1.146788
O5    O     O_R   0.651120 0.477120 0.659650 -0.569468
O6    O     O_R   0.431060 0.510460 0.692470 -0.590002
O7    O     O_R   0.610040 0.668530 0.483610 -0.583767
O8    O     O_R   0.389970 0.701870 0.516430 -0.554136
C3    C     C_R   0.555353 0.493032 0.731017 0.924186
C4    C     C_R   0.499388 0.741186 0.491956 0.905446
C5    C     C_3   0.644503 0.052645 0.472648 0.059554
C6    C     C_3   0.645526 0.909241 0.482613 0.071299
H1    H     H_    0.693987 0.878835 0.573447 0.151971
C7    C     C_3   0.473236 0.064549 0.640782 0.246987
C8    C     C_3   0.378742 0.090380 0.412128 0.052334
C9    C     C_3   0.499162 0.119443 0.508233 -0.081167
C10   C     C_3   0.500622 0.876663 0.490980 -0.213010
C11   C     C_3   0.454452 0.923683 0.619144 -0.212233
C12   C     C_3   0.400299 0.945085 0.383088 0.222360
H2    H     H_    0.348293 0.918915 0.613371 0.297883
C13   C     C_2   0.411979 0.522341 0.137606 -0.048036
C14   C     C_2   0.506380 0.543438 0.062855 0.063007
C15   C     C_2   0.586967 0.521126 0.856000 -0.051932
C16   C     C_2   0.511364 0.486031 0.942849 0.052042
N1    N     N_2   0.157300 0.551950 0.551120 -0.047962
C17   C     C_2   0.069225 0.504334 0.482996 0.283429
N2    N     N_2   0.842730 0.448000 0.448950 -0.073401
C18   C     C_2   0.931607 0.491132 0.520835 0.294823
N3    N     N_3   0.753101 0.083172 0.559791 -0.427112
H3    H     H_    0.834620 0.012517 0.563024 0.237375
H4    H     H_    0.793993 0.160753 0.531388 0.249838
N4    N     N_R   0.271610 0.893233 0.370987 0.207389
O9    O     O_R   0.229342 0.851385 0.267404 -0.347893
O10   O     O_R   0.197074 0.888222 0.461032 -0.316346
N5    N     N_R   0.353046 0.130981 0.692052 0.204549
O11   O     O_R   0.348338 0.247260 0.719622 -0.416634
O12   O     O_R   0.267097 0.069987 0.738700 -0.344205
N6    N     N_3   0.442274 0.380599 0.924130 -0.452743
H5    H     H_    0.505297 0.307152 0.889820 0.220383
H6    H     H_    0.358579 0.407153 0.864772 0.285895
N7    N     N_3   0.612242 0.609310 0.103970 -0.431918
H7    H     H_    0.693859 0.541644 0.124153 0.286835
H8    H     H_    0.591172 0.663137 0.179208 0.240711
N8    N     N_3   0.687492 0.599953 0.875992 -0.373172
H9    H     H_    0.764597 0.555015 0.935438 0.264272
H10   H     H_    0.647550 0.686730 0.906958 0.218201
N9    N     N_3   0.282580 0.498878 0.092980 -0.332080
H11   H     H_    0.282730 0.402545 0.087912 0.232132
H12   H     H_    0.255056 0.542717 0.007719 0.258171
N10   N     N_R   0.901941 0.515252 0.643418 0.213997
O13   O     O_R   0.947194 0.433397 0.729905 -0.348652
O14   O     O_R   0.840603 0.623804 0.670144 -0.325760
N11   N     N_R   0.106749 0.462088 0.366558 0.217171
O15   O     O_R   0.109715 0.345549 0.339641 -0.428306
O16   O     O_R   0.104436 0.544737 0.278844 -0.250276
N12   N     N_R   0.853051 0.463316 0.325209 0.297658
O17   O     O_R   0.834913 0.371879 0.253962 -0.348884
O18   O     O_R   0.847528 0.575570 0.278797 -0.308254
N13   N     N_3   0.673811 0.094586 0.350201 -0.397836
H13   H     H_    0.775517 0.075521 0.340946 0.249491
H14   H     H_    0.631610 0.047745 0.280223 0.241339
N14   N     N_R   0.119053 0.623526 0.649117 0.315164
O19   O     O_R   0.175455 0.592496 0.757075 -0.341859
O20   O     O_R   0.058846 0.737048 0.628955 -0.259446
N15   N     N_R   0.734487 0.838608 0.399731 0.245783
O21   O     O_R   0.851417 0.787156 0.443498 -0.284268
O22   O     O_R   0.706105 0.832902 0.283409 -0.385108
N16   N     N_3   0.584935 0.076525 0.730850 -0.437393
H15   H     H_    0.661001 0.001752 0.731748 0.200371
H16   H     H_    0.553669 0.076500 0.819083 0.210273
N17   N     N_3   0.505899 0.837610 0.722576 -0.441895
H17   H     H_    0.608456 0.816050 0.728894 0.203831
H18   H     H_    0.476079 0.876362 0.803968 0.233527
N18   N     N_3   0.250415 0.117394 0.466605 -0.351220
H19   H     H_    0.172577 0.111529 0.400931 0.261811
H20   H     H_    0.231457 0.208185 0.495747 0.274444
N19   N     N_3   0.366883 0.172625 0.301619 -0.427518
H21   H     H_    0.289086 0.153882 0.241143 0.233552
H22   H     H_    0.451215 0.165892 0.254558 0.191320
N20   N     N_3   0.460236 0.924905 0.266854 -0.437161
H23   H     H_    0.397571 0.967884 0.194321 0.216152
H24   H     H_    0.469738 0.829658 0.249749 0.212056

loop_
_geom_bond_atom_site_label_1
_geom_bond_atom_site_label_2
_geom_bond_distance
_ccdc_geom_bond_type
C15   N8    1.437017 S    
N14   O20   1.300645 A    
N13   H14   1.033072 S    
C6    C10   1.584464 S    
C8    C9    1.635299 S    
C7    N5    1.490254 S    
N19   H21   1.045893 S    
N5    O12   1.303427 A    
N7    H7    1.037435 S    
Zn1   O7    2.048412 S    
Zn2   N1    2.037658 S    
C4    C10   1.468193 S    
N4    O9    1.303269 A    
N20   H24   1.043748 S    
O4    C2    1.304537 A    
O7    C4    1.294869 A    
N18   H20   1.036067 S    
N11   O16   1.301034 A    
C5    C6    1.552537 S    
C17   N11   1.431799 S    
N12   O18   1.301287 A    
N15   O22   1.297852 A    
O5    C3    1.298108 A    
C14   N7    1.432914 S    
C6    H1    1.106052 S    
N8    H10   1.043734 S    
N14   O19   1.299550 A    
C7    C11   1.584463 S    
C10   C11   1.592826 S    
N6    H6    1.041650 S    
C11   N17   1.474388 S    
O3    Zn1   2.033982 S    
C18   N10   1.427695 S    
N19   H22   1.035709 S    
N7    H8    1.040687 S    
C7    N16   1.480358 S    
C5    C9    1.639184 S    
N10   O14   1.300746 A    
Zn1   N2    2.037787 S    
C12   N20   1.468583 S    
N9    H11   1.045127 S    
C1    C13   1.454445 S    
N20   H23   1.044673 S    
N16   H16   1.046491 S    
N5    O11   1.295530 A    
N18   H19   1.046340 S    
C13   C14   1.357806 D    
N13   H13   1.046740 S    
N12   O17   1.300672 A    
O1    C1    1.302698 A    
N2    N12   1.384392 S    
C8    N18   1.480623 S    
C8    C12   1.598449 S    
N17   H17   1.040787 S    
C13   N9    1.439087 S    
N1    C17   1.300798 D    
N2    C18   1.305588 D    
Zn2   O8    2.033983 S    
N3    H3    1.046855 S    
N17   H18   1.045416 S    
O3    C2    1.303694 A    
N8    H9    1.044394 S    
O8    C4    1.300317 A    
C10   C12   1.607793 S    
C11   H2    1.094377 S    
N6    H5    1.045641 S    
Zn1   O5    1.998248 S    
N10   O13   1.300846 A    
O1    Zn1   1.981299 S    
O2    Zn2   1.998246 S    
C6    N15   1.484111 S    
N16   H15   1.039661 S    
O6    C3    1.298981 A    
O4    Zn2   2.048412 S    
C2    C9    1.495651 S    
C14   C16   1.473332 S    
N4    O10   1.302095 A    
O2    C1    1.300534 A    
C17   C18   1.526302 S    
N11   O15   1.298088 A    
C16   N6    1.437476 S    
N3    H4    1.043894 S    
C7    C9    1.621115 S    
N15   O21   1.300729 A    
N1    N14   1.388894 S    
Zn2   O6    1.981301 S    
C12   N4    1.504479 S    
C15   C16   1.357674 D    
C5    N13   1.481213 S    
C3    C15   1.439632 S    
N9    H12   1.045236 S    
C8    N19   1.481821 S    
C5    N3    1.493138 S    
