data_mof_unit_23970.cif
_audit_creation_date              2012-12-11T16:26:19-0500
_audit_creation_method            fapswitch 2.2
_symmetry_space_group_name_H-M    P1
_symmetry_Int_Tables_number       1
_space_group_crystal_system       monoclinic
_cell_length_a                    14.00651
_cell_length_b                    14.006511
_cell_length_c                    31.971842
_cell_angle_alpha                 90.0
_cell_angle_beta                  90.0
_cell_angle_gamma                 120.000241
_cell_volume                      5431.96718236

loop_
_atom_site_label
_atom_site_type_symbol
_atom_type_description
_atom_site_fract_x
_atom_site_fract_y
_atom_site_fract_z
_atom_type_partial_charge
C1    C     C_R   0.568206 0.443767 0.810581 0.547326
C2    C     C_R   0.875562 0.431794 0.689419 0.547322
C3    C     C_R   0.556232 0.124438 0.810581 0.547325
C4    C     C_R   0.568206 0.443768 0.689419 0.547325
C5    C     C_R   0.875562 0.431794 0.810581 0.547324
C6    C     C_R   0.556232 0.124438 0.689419 0.547325
C7    C     C_R   0.443768 0.568206 0.310581 0.547325
C8    C     C_R   0.431794 0.875561 0.189418 0.547326
C9    C     C_R   0.124438 0.556232 0.310581 0.547324
C10   C     C_R   0.443767 0.568206 0.189418 0.547327
C11   C     C_R   0.431794 0.875561 0.310581 0.547323
C12   C     C_R   0.124438 0.556232 0.189418 0.547325
C13   C     C_1   0.008284 0.548532 0.018488 0.193880
C14   C     C_1   0.540248 0.991715 0.481512 0.193879
C15   C     C_1   0.451468 0.459751 0.018488 0.193880
C16   C     C_1   0.008283 0.548532 0.481511 0.193878
C17   C     C_1   0.540248 0.991716 0.018488 0.193880
C18   C     C_1   0.451468 0.459751 0.481511 0.193878
C19   C     C_1   0.548532 0.008283 0.518489 0.193879
C20   C     C_1   0.991716 0.540249 0.981511 0.193880
C21   C     C_1   0.459751 0.451468 0.518488 0.193878
C22   C     C_1   0.548532 0.008284 0.981511 0.193880
C23   C     C_1   0.991716 0.540248 0.518488 0.193878
C24   C     C_1   0.459751 0.451467 0.981511 0.193880
C25   C     C_R   0.922525 0.465451 0.852856 -0.052557
C26   C     C_R   0.542925 0.077474 0.647144 -0.052558
C27   C     C_R   0.534549 0.457074 0.852856 -0.052557
C28   C     C_R   0.922525 0.465451 0.647144 -0.052560
C29   C     C_R   0.542926 0.077475 0.852856 -0.052556
C30   C     C_R   0.534548 0.457074 0.647144 -0.052561
C31   C     C_R   0.465451 0.922525 0.352856 -0.052560
C32   C     C_R   0.077475 0.542926 0.147144 -0.052555
C33   C     C_R   0.457074 0.534548 0.352856 -0.052559
C34   C     C_R   0.465451 0.922525 0.147144 -0.052556
C35   C     C_R   0.077474 0.542925 0.352856 -0.052559
C36   C     C_R   0.457074 0.534549 0.147144 -0.052555
C37   C     C_R   0.988674 0.577915 0.864382 -0.073575
C38   C     C_R   0.589242 0.011327 0.635618 -0.073574
C39   C     C_R   0.422085 0.410758 0.864382 -0.073575
C40   C     C_R   0.988673 0.577915 0.635618 -0.073575
C41   C     C_R   0.589240 0.011326 0.864382 -0.073574
C42   C     C_R   0.422084 0.410754 0.635618 -0.073574
C43   C     C_R   0.577915 0.988672 0.364382 -0.073574
C44   C     C_R   0.011325 0.589240 0.135618 -0.073575
C45   C     C_R   0.410756 0.422084 0.364382 -0.073575
C46   C     C_R   0.577915 0.988674 0.135618 -0.073574
C47   C     C_R   0.011327 0.589241 0.364382 -0.073575
C48   C     C_R   0.410759 0.422085 0.135618 -0.073575
C49   C     C_R   0.014528 0.605856 0.907359 -0.029668
C50   C     C_R   0.591328 0.985472 0.592641 -0.029669
C51   C     C_R   0.394144 0.408672 0.907359 -0.029669
C52   C     C_R   0.014528 0.605856 0.592640 -0.029669
C53   C     C_R   0.591327 0.985472 0.907359 -0.029668
C54   C     C_R   0.394143 0.408667 0.592640 -0.029669
C55   C     C_R   0.605856 0.014526 0.407360 -0.029669
C56   C     C_R   0.985471 0.591326 0.092641 -0.029668
C57   C     C_R   0.408670 0.394143 0.407359 -0.029669
C58   C     C_R   0.605856 0.014528 0.092641 -0.029669
C59   C     C_R   0.985472 0.591328 0.407359 -0.029669
C60   C     C_R   0.408673 0.394144 0.092641 -0.029669
C61   C     C_R   0.970063 0.520427 0.937595 -0.020420
C62   C     C_R   0.550364 0.029936 0.562405 -0.020421
C63   C     C_R   0.479573 0.449635 0.937595 -0.020420
C64   C     C_R   0.970062 0.520427 0.562405 -0.020422
C65   C     C_R   0.550364 0.029937 0.937595 -0.020420
C66   C     C_R   0.479573 0.449636 0.562405 -0.020423
C67   C     C_R   0.520427 0.970062 0.437595 -0.020422
C68   C     C_R   0.029937 0.550364 0.062405 -0.020420
C69   C     C_R   0.449636 0.479572 0.437595 -0.020422
C70   C     C_R   0.520427 0.970063 0.062405 -0.020419
C71   C     C_R   0.029937 0.550364 0.437595 -0.020421
C72   C     C_R   0.449635 0.479573 0.062405 -0.020420
C73   C     C_R   0.907238 0.410402 0.925418 0.430413
C74   C     C_R   0.503161 0.092759 0.574582 0.430411
C75   C     C_R   0.589598 0.496836 0.925418 0.430414
C76   C     C_R   0.907238 0.410401 0.574582 0.430409
C77   C     C_R   0.503164 0.092762 0.925418 0.430414
C78   C     C_R   0.589599 0.496843 0.574582 0.430409
C79   C     C_R   0.410401 0.907240 0.425418 0.430410
C80   C     C_R   0.092763 0.503165 0.074582 0.430415
C81   C     C_R   0.496840 0.589598 0.425418 0.430412
C82   C     C_R   0.410402 0.907238 0.074582 0.430414
C83   C     C_R   0.092760 0.503162 0.425418 0.430411
C84   C     C_R   0.496835 0.589598 0.074582 0.430416
C85   C     C_R   0.884551 0.382931 0.883647 0.426317
C86   C     C_R   0.498376 0.115445 0.616353 0.426315
C87   C     C_R   0.617069 0.501621 0.883647 0.426318
C88   C     C_R   0.884552 0.382931 0.616353 0.426313
C89   C     C_R   0.498379 0.115448 0.883647 0.426317
C90   C     C_R   0.617069 0.501627 0.616354 0.426313
C91   C     C_R   0.382931 0.884554 0.383646 0.426314
C92   C     C_R   0.115449 0.498380 0.116353 0.426318
C93   C     C_R   0.501625 0.617069 0.383646 0.426314
C94   C     C_R   0.382931 0.884552 0.116353 0.426318
C95   C     C_R   0.115446 0.498377 0.383646 0.426315
C96   C     C_R   0.501620 0.617069 0.116353 0.426319
Cr1   Cr    Cr6+3 0.504240 0.249200 0.750000 1.156282
Cr2   Cr    Cr6+3 0.744960 0.495760 0.750000 1.156283
Cr3   Cr    Cr6+3 0.750800 0.255040 0.750000 1.156281
Cr4   Cr    Cr6+3 0.249200 0.504240 0.250000 1.156282
Cr5   Cr    Cr6+3 0.495760 0.744960 0.250000 1.156283
Cr6   Cr    Cr6+3 0.255040 0.750800 0.250000 1.156282
O1    O     O_R   0.480350 0.140770 0.796330 -0.441856
O2    O     O_R   0.660420 0.519650 0.703670 -0.441854
O3    O     O_R   0.859230 0.339580 0.796330 -0.441856
O4    O     O_R   0.480350 0.140770 0.703670 -0.441855
O5    O     O_R   0.660420 0.519650 0.796330 -0.441856
O6    O     O_R   0.859230 0.339580 0.703670 -0.441855
O7    O     O_R   0.140770 0.480350 0.296330 -0.441856
O8    O     O_R   0.519650 0.660420 0.203670 -0.441857
O9    O     O_R   0.339580 0.859230 0.296330 -0.441855
O10   O     O_R   0.140770 0.480350 0.203670 -0.441857
O11   O     O_R   0.519650 0.660420 0.296330 -0.441855
O12   O     O_R   0.339580 0.859230 0.203670 -0.441856
O13   O     O_R   0.514930 0.348530 0.793250 -0.476820
O14   O     O_R   0.833600 0.485070 0.706750 -0.476822
O15   O     O_R   0.651470 0.166400 0.793250 -0.476819
O16   O     O_R   0.514930 0.348530 0.706750 -0.476822
O17   O     O_R   0.833600 0.485070 0.793250 -0.476820
O18   O     O_R   0.651470 0.166400 0.706750 -0.476821
O19   O     O_R   0.348530 0.514930 0.293250 -0.476822
O20   O     O_R   0.485070 0.833600 0.206750 -0.476820
O21   O     O_R   0.166400 0.651470 0.293250 -0.476821
O22   O     O_R   0.348530 0.514930 0.206750 -0.476820
O23   O     O_R   0.485070 0.833600 0.293250 -0.476822
O24   O     O_R   0.166400 0.651470 0.206750 -0.476819
O25   O     O_3   0.666667 0.333333 0.750000 -0.287193
O26   O     O_3   0.333333 0.666667 0.250000 -0.287193
C97   C     C_2   0.028320 0.663826 0.831142 0.265168
H1    H     H_    0.046131 0.645381 0.800102 0.083331
O27   O     O_2   0.036651 0.753681 0.837369 -0.418458
C98   C     C_2   0.635508 0.971683 0.668858 0.265170
H2    H     H_    0.599253 0.953871 0.699898 0.083331
O28   O     O_2   0.717035 0.963355 0.662631 -0.418455
C99   C     C_2   0.336174 0.364493 0.831142 0.265168
H3    H     H_    0.354619 0.400748 0.800102 0.083331
O29   O     O_2   0.246319 0.282968 0.837369 -0.418459
C100  C     C_2   0.028319 0.663826 0.668858 0.265171
H4    H     H_    0.046130 0.645382 0.699897 0.083331
O30   O     O_2   0.036649 0.753681 0.662631 -0.418455
C101  C     C_2   0.635505 0.971680 0.831142 0.265169
H5    H     H_    0.599250 0.953870 0.800102 0.083331
O31   O     O_2   0.717030 0.963350 0.837368 -0.418459
C102  C     C_2   0.336173 0.364484 0.668857 0.265173
H6    H     H_    0.354614 0.400739 0.699897 0.083331
O32   O     O_2   0.246320 0.282955 0.662630 -0.418452
C103  C     C_2   0.663826 0.028316 0.331142 0.265171
H7    H     H_    0.645384 0.046128 0.300103 0.083331
O33   O     O_2   0.753681 0.036644 0.337369 -0.418454
C104  C     C_2   0.971679 0.635503 0.168858 0.265168
H8    H     H_    0.953869 0.599248 0.199898 0.083331
O34   O     O_2   0.963347 0.717027 0.162632 -0.418459
C105  C     C_2   0.364488 0.336173 0.331142 0.265171
H9    H     H_    0.400743 0.354616 0.300102 0.083331
O35   O     O_2   0.282961 0.246319 0.337369 -0.418454
C106  C     C_2   0.663826 0.028320 0.168858 0.265169
H10   H     H_    0.645382 0.046130 0.199898 0.083331
O36   O     O_2   0.753681 0.036651 0.162631 -0.418459
C107  C     C_2   0.971682 0.635507 0.331142 0.265170
H11   H     H_    0.953871 0.599252 0.300102 0.083331
O37   O     O_2   0.963353 0.717032 0.337369 -0.418456
C108  C     C_2   0.364495 0.336175 0.168858 0.265168
H12   H     H_    0.400750 0.354620 0.199898 0.083331
O38   O     O_2   0.282971 0.246318 0.162632 -0.418460
C109  C     C_2   0.908633 0.630779 0.079936 0.345436
H13   H     H_    0.844496 0.622530 0.101134 0.140917
O39   O     O_2   0.916280 0.673547 0.045895 -0.365278
C110  C     C_2   0.722148 0.091362 0.420065 0.345439
H14   H     H_    0.778038 0.155498 0.398866 0.140919
O40   O     O_2   0.757268 0.083714 0.454105 -0.365275
C111  C     C_2   0.369220 0.277853 0.079936 0.345437
H15   H     H_    0.377469 0.221965 0.101134 0.140917
O41   O     O_2   0.326452 0.242731 0.045895 -0.365279
C112  C     C_2   0.908636 0.630783 0.420065 0.345438
H16   H     H_    0.844500 0.622536 0.398866 0.140918
O42   O     O_2   0.916284 0.673551 0.454105 -0.365275
C113  C     C_2   0.722147 0.091366 0.079935 0.345437
H17   H     H_    0.778037 0.155502 0.101134 0.140917
O43   O     O_2   0.757268 0.083719 0.045895 -0.365278
C114  C     C_2   0.369212 0.277851 0.420065 0.345438
H18   H     H_    0.377456 0.221961 0.398866 0.140920
O44   O     O_2   0.326444 0.242731 0.454105 -0.365275
C115  C     C_2   0.630784 0.908637 0.579935 0.345439
H19   H     H_    0.622538 0.844501 0.601134 0.140919
O45   O     O_2   0.673552 0.916284 0.545895 -0.365275
C116  C     C_2   0.091366 0.722147 0.920065 0.345437
H20   H     H_    0.155503 0.778036 0.898866 0.140917
O46   O     O_2   0.083719 0.757268 0.954105 -0.365277
C117  C     C_2   0.277851 0.369206 0.579935 0.345439
H21   H     H_    0.221959 0.377448 0.601134 0.140921
O47   O     O_2   0.242732 0.326439 0.545894 -0.365274
C118  C     C_2   0.630781 0.908634 0.920064 0.345438
H22   H     H_    0.622533 0.844498 0.898866 0.140917
O48   O     O_2   0.673549 0.916282 0.954105 -0.365278
C119  C     C_2   0.091364 0.722148 0.579935 0.345440
H23   H     H_    0.155501 0.778037 0.601134 0.140918
O49   O     O_2   0.083717 0.757268 0.545895 -0.365275
C120  C     C_2   0.277853 0.369217 0.920065 0.345438
H24   H     H_    0.221964 0.377464 0.898866 0.140918
O50   O     O_2   0.242731 0.326449 0.954105 -0.365278
F1    F     F_    0.181594 0.456521 0.126348 -0.548171
F2    F     F_    0.274926 0.818411 0.373652 -0.548168
F3    F     F_    0.543479 0.725073 0.126348 -0.548170
F4    F     F_    0.181589 0.456516 0.373652 -0.548168
F5    F     F_    0.274926 0.818407 0.126348 -0.548169
F6    F     F_    0.543488 0.725074 0.373652 -0.548165
F7    F     F_    0.456515 0.181588 0.626348 -0.548166
F8    F     F_    0.818407 0.274926 0.873652 -0.548170
F9    F     F_    0.725074 0.543493 0.626349 -0.548163
F10   F     F_    0.456519 0.181592 0.873652 -0.548169
F11   F     F_    0.818408 0.274926 0.626348 -0.548169
F12   F     F_    0.725074 0.543481 0.873652 -0.548169
F13   F     F_    0.133655 0.462128 0.045548 -0.536267
F14   F     F_    0.328472 0.866350 0.454451 -0.536265
F15   F     F_    0.537873 0.671528 0.045548 -0.536266
F16   F     F_    0.133650 0.462122 0.454452 -0.536266
F17   F     F_    0.328472 0.866347 0.045548 -0.536265
F18   F     F_    0.537882 0.671528 0.454451 -0.536262
F19   F     F_    0.462121 0.133648 0.545548 -0.536265
F20   F     F_    0.866346 0.328472 0.954452 -0.536266
F21   F     F_    0.671529 0.537887 0.545549 -0.536261
F22   F     F_    0.462125 0.133653 0.954452 -0.536265
F23   F     F_    0.866348 0.328472 0.545548 -0.536267
F24   F     F_    0.671528 0.537875 0.954452 -0.536265

loop_
_geom_bond_atom_site_label_1
_geom_bond_atom_site_label_2
_ccdc_geom_bond_type
C68   C80   A    
C39   C51   A    
C111  H15   S    
C52   C119  S    
C109  H13   S    
C82   C94   A    
C54   C117  S    
C21   C66   S    
C18   C21   T    
C33   C45   A    
C87   F12   S    
C103  H7    S    
C94   F5    S    
C30   C90   A    
C59   C112  S    
C35   C47   A    
C29   C89   A    
C83   F16   S    
C4    C30   S    
Cr2   O17   S    
C5    O3    A    
C78   C90   A    
Cr3   O6    S    
C111  O41   D    
C45   C57   A    
C54   C66   A    
C31   C43   A    
C5    O17   A    
C90   F9    S    
C106  H10   S    
C11   O23   A    
C108  H12   S    
Cr6   O26   S    
C115  O45   D    
C48   C108  S    
C60   C72   A    
C19   C62   S    
C3    O1    A    
C119  O49   D    
Cr1   O16   S    
Cr5   O26   S    
C37   C49   A    
C117  O47   D    
Cr4   O19   S    
C84   C96   A    
C2    O6    A    
C20   C61   S    
C3    C29   S    
C44   C56   A    
C112  H16   S    
C3    O15   A    
C25   C37   A    
Cr3   O18   S    
C110  H14   S    
C2    O14   A    
C79   F14   S    
C49   C116  S    
C50   C115  S    
C27   C39   A    
C98   H2    S    
C113  O43   D    
C88   F11   S    
C40   C100  S    
C74   F19   S    
C28   C88   A    
Cr5   O23   S    
C14   C67   S    
C107  O37   D    
C43   C103  S    
C10   O8    A    
C120  H24   S    
C34   C46   A    
Cr1   O13   S    
C53   C65   A    
C76   C88   A    
C108  O38   D    
C84   F15   S    
C8    O12   A    
C39   C99   S    
C18   C69   S    
C110  O40   D    
C116  H20   S    
C11   C31   S    
Cr4   O7    S    
C109  O39   D    
C46   C58   A    
Cr5   O20   S    
C7    C33   S    
C4    O16   A    
Cr6   O9    S    
C117  H21   S    
C16   C71   S    
C55   C110  S    
C7    O19   A    
Cr3   O3    S    
C93   F6    S    
C6    O18   A    
C114  O44   D    
C48   C60   A    
C71   C83   A    
C76   F23   S    
C9    O7    A    
C66   C78   A    
C72   C84   A    
C49   C61   A    
C11   O9    A    
Cr2   O25   S    
C99   H3    S    
C67   C79   A    
C102  O32   D    
C12   O24   A    
C52   C64   A    
C2    C28   S    
C58   C70   A    
C47   C107  S    
C61   C73   A    
Cr5   O8    S    
C40   C52   A    
C44   C104  S    
Cr2   O5    S    
C73   F20   S    
Cr4   O22   S    
C38   C98   S    
C80   C92   A    
C115  H19   S    
C22   C65   S    
C41   C101  S    
Cr6   O12   S    
C51   C120  S    
Cr3   O15   S    
C65   C77   A    
C81   C93   A    
C36   C96   A    
Cr2   O14   S    
C107  H11   S    
C26   C86   A    
C62   C74   A    
C83   C95   A    
C25   C85   A    
C64   C76   A    
C51   C63   A    
C8    C34   S    
C74   C86   A    
C27   C87   A    
C6    O4    A    
C41   C53   A    
Cr1   O1    S    
C100  O30   D    
C1    O5    A    
Cr3   O25   S    
Cr1   O4    S    
C75   C87   A    
C15   C24   T    
C75   F24   S    
Cr4   O10   S    
C24   C63   S    
C31   C91   A    
C42   C102  S    
C50   C62   A    
C5    C25   S    
C105  O35   D    
C116  O46   D    
Cr6   O21   S    
C12   O10   A    
C56   C109  S    
C46   C106  S    
C114  H18   S    
C96   F3    S    
C9    C35   S    
C97   H1    S    
C73   C85   A    
C43   C55   A    
Cr1   O25   S    
C99   O29   D    
C23   C64   S    
C13   C20   T    
C29   C41   A    
Cr4   O26   S    
C60   C111  S    
C79   C91   A    
C14   C19   T    
C26   C38   A    
C34   C94   A    
C102  H6    S    
Cr6   O24   S    
C33   C93   A    
C86   F7    S    
C57   C114  S    
C55   C67   A    
C89   F10   S    
C38   C50   A    
C35   C95   A    
C16   C23   T    
C103  O33   D    
C80   F13   S    
C10   O22   A    
C17   C22   T    
C118  H22   S    
C7    O11   A    
C101  O31   D    
C95   F4    S    
C56   C68   A    
C101  H5    S    
C42   C54   A    
C8    O20   A    
C6    C26   S    
C82   F17   S    
C63   C75   A    
Cr2   O2    S    
C81   F18   S    
C4    O2    A    
C106  O36   D    
C77   C89   A    
C9    O21   A    
C15   C72   S    
C36   C48   A    
C58   C113  S    
C104  O34   D    
Cr5   O11   S    
C70   C82   A    
C53   C118  S    
C112  O42   D    
C91   F2    S    
C69   C81   A    
C100  H4    S    
C32   C92   A    
C78   F21   S    
C47   C59   A    
C119  H23   S    
C77   F22   S    
C17   C70   S    
C45   C105  S    
C32   C44   A    
C98   O28   D    
C113  H17   S    
C1    C27   S    
C28   C40   A    
C104  H8    S    
C30   C42   A    
C120  O50   D    
C1    O13   A    
C10   C36   S    
C57   C69   A    
C105  H9    S    
C37   C97   S    
C12   C32   S    
C92   F1    S    
C85   F8    S    
C59   C71   A    
C97   O27   D    
C13   C68   S    
C118  O48   D    
