data_mof_unit_35404.cif
_audit_creation_date              2013-03-05T15:49:11-0500
_audit_creation_method            fapswitch 2.2
_symmetry_space_group_name_H-M    P1
_symmetry_Int_Tables_number       1
_space_group_crystal_system       triclinic
_cell_length_a                    17.434977
_cell_length_b                    24.645328
_cell_length_c                    15.17355
_cell_angle_alpha                 90.126803
_cell_angle_beta                  126.903313
_cell_angle_gamma                 89.82966
_cell_volume                      5213.64082174

loop_
_atom_site_label
_atom_site_type_symbol
_atom_site_description
_atom_site_fract_x
_atom_site_fract_y
_atom_site_fract_z
_atom_type_partial_charge
C1    C     C_R   0.307242 0.124197 0.905000 0.393795
C2    C     C_R   0.308294 0.874701 0.905624 0.408443
C3    C     C_R   0.807274 0.624316 0.904517 0.398270
C4    C     C_R   0.807435 0.375889 0.905972 0.392110
N1    N     N_R   0.392450 0.103580 0.942190 -0.104195
N2    N     N_R   0.392450 0.896420 0.942190 -0.104155
N3    N     N_R   0.892450 0.603580 0.942190 -0.105942
N4    N     N_R   0.892450 0.396420 0.942190 -0.105733
C5    C     C_R   0.400797 0.875034 0.089111 -0.142823
C6    C     C_R   0.398838 0.123657 0.088044 -0.157984
C7    C     C_R   0.900249 0.375598 0.088994 -0.154786
C8    C     C_R   0.898111 0.623392 0.087583 -0.151881
H1    H     H_    0.429861 0.867806 0.172763 0.222025
H2    H     H_    0.426765 0.129454 0.171839 0.204081
H3    H     H_    0.929851 0.368546 0.172942 0.206101
H4    H     H_    0.925019 0.628521 0.171279 0.203849
N5    N     N_R   0.450490 0.896000 0.057360 -0.080596
N6    N     N_R   0.450490 0.104000 0.057360 -0.083064
N7    N     N_R   0.950490 0.396000 0.057360 -0.082687
N8    N     N_R   0.950490 0.604000 0.057360 -0.078653
C9    C     C_R   0.542481 0.044196 0.302678 0.520796
C10   C     C_R   0.544953 0.954621 0.302159 0.600038
C11   C     C_R   0.044192 0.545797 0.301771 0.571042
C12   C     C_R   0.043073 0.456189 0.303028 0.519182
N9    N     N_R   0.525490 0.028390 0.207550 -0.122777
N10   N     N_R   0.525490 0.971610 0.207550 -0.126432
N11   N     N_R   0.025490 0.528390 0.207550 -0.127379
N12   N     N_R   0.025490 0.471610 0.207550 -0.121908
C13   C     C_R   0.253406 0.955543 0.687102 0.006516
C14   C     C_R   0.253701 0.044327 0.686927 0.012880
C15   C     C_R   0.754555 0.455569 0.686799 0.020692
C16   C     C_R   0.754331 0.544272 0.686673 0.008894
H5    H     H_    0.248185 0.915204 0.656374 0.174897
H6    H     H_    0.248589 0.084626 0.656193 0.169824
H7    H     H_    0.749444 0.415080 0.656618 0.171886
H8    H     H_    0.749318 0.584638 0.656227 0.172634
N13   N     N_R   0.317450 0.971190 0.792000 -0.063628
N14   N     N_R   0.317450 0.028810 0.792000 -0.063337
N15   N     N_R   0.817450 0.471190 0.792000 -0.063202
N16   N     N_R   0.817450 0.528810 0.792000 -0.063697
C17   C     C_R   0.307496 0.137867 0.994614 0.000494
C18   C     C_R   0.310924 0.859573 0.996347 -0.043614
C19   C     C_R   0.806764 0.637693 0.993692 -0.011492
C20   C     C_R   0.808716 0.361720 0.996151 -0.001923
C21   C     C_R   0.552156 0.998956 0.362383 -0.164521
C22   C     C_R   0.053361 0.501663 0.363232 -0.144504
C23   C     C_R   0.212769 0.999911 0.620708 0.096168
C24   C     C_R   0.714286 0.499851 0.620018 0.090398
C25   C     C_R   0.524311 0.045092 0.757983 -0.116842
C26   C     C_R   0.524030 0.953986 0.758864 -0.028403
C27   C     C_R   0.024023 0.545651 0.758789 -0.020043
C28   C     C_R   0.023441 0.454448 0.756991 -0.087999
H9    H     H_    0.531693 0.086903 0.743048 0.096572
H10   H     H_    0.534045 0.911702 0.750466 0.091467
H11   H     H_    0.032475 0.587848 0.747740 0.092786
H12   H     H_    0.029767 0.412572 0.740982 0.097877
N17   N     N_R   0.473900 0.028390 0.792280 -0.051379
N18   N     N_R   0.473900 0.971610 0.792280 -0.059502
N19   N     N_R   0.973900 0.528390 0.792280 -0.057972
N20   N     N_R   0.973900 0.471610 0.792280 -0.053829
C29   C     C_R   0.772532 0.954802 0.253101 0.511639
C30   C     C_R   0.772538 0.044917 0.253170 0.515812
C31   C     C_R   0.272630 0.454818 0.253667 0.520360
C32   C     C_R   0.272734 0.544943 0.253753 0.515249
N21   N     N_R   0.682310 0.971180 0.208170 -0.156841
N22   N     N_R   0.682310 0.028820 0.208170 -0.154616
N23   N     N_R   0.182310 0.471180 0.208170 -0.152168
N24   N     N_R   0.182310 0.528820 0.208170 -0.153521
C33   C     C_R   0.646185 0.152114 0.092400 0.008712
C34   C     C_R   0.645075 0.847440 0.092109 0.009152
C35   C     C_R   0.145435 0.652147 0.092365 0.009835
C36   C     C_R   0.145756 0.347715 0.092380 0.005823
H13   H     H_    0.681323 0.166814 0.175216 0.116752
H14   H     H_    0.680699 0.832751 0.174992 0.117213
H15   H     H_    0.180439 0.666861 0.175158 0.116058
H16   H     H_    0.181197 0.333140 0.175316 0.117907
N25   N     N_R   0.606470 0.103570 0.057210 -0.043849
N26   N     N_R   0.606470 0.896430 0.057210 -0.043494
N27   N     N_R   0.106470 0.603570 0.057210 -0.044393
N28   N     N_R   0.106470 0.396430 0.057210 -0.044666
C37   C     C_R   0.555982 0.847612 0.909818 -0.147840
C38   C     C_R   0.557400 0.151924 0.909887 -0.137783
C39   C     C_R   0.056695 0.347823 0.909854 -0.140291
C40   C     C_R   0.056140 0.652242 0.910001 -0.155561
H17   H     H_    0.514157 0.834531 0.824811 0.118701
H18   H     H_    0.515851 0.165047 0.824946 0.116289
H19   H     H_    0.015142 0.334765 0.824842 0.116973
H20   H     H_    0.013844 0.665675 0.825197 0.123841
N29   N     N_R   0.549740 0.896000 0.943240 -0.049274
N30   N     N_R   0.549740 0.104000 0.943240 -0.045095
N31   N     N_R   0.049740 0.396000 0.943240 -0.046878
N32   N     N_R   0.049740 0.604000 0.943240 -0.050496
Ni1   Ni    Ni4+2 0.433780 0.065390 0.868430 0.268555
Ni2   Ni    Ni4+2 0.433780 0.934610 0.868430 0.270464
Ni3   Ni    Ni4+2 0.933780 0.565390 0.868430 0.270329
Ni4   Ni    Ni4+2 0.933780 0.434610 0.868430 0.266954
Ni5   Ni    Ni4+2 0.565800 0.934190 0.131570 0.209742
Ni6   Ni    Ni4+2 0.565800 0.065810 0.131570 0.202396
Ni7   Ni    Ni4+2 0.065800 0.434190 0.131570 0.205288
Ni8   Ni    Ni4+2 0.065800 0.565810 0.131570 0.210669
C41   C     C_R   0.552554 0.999094 0.730904 0.167751
C42   C     C_R   0.051970 0.500216 0.730378 0.117771
C43   C     C_R   0.828769 0.999785 0.274711 -0.130410
C44   C     C_R   0.329092 0.499751 0.275702 -0.134518
C45   C     C_R   0.619169 0.182429 0.002762 0.019487
C46   C     C_R   0.616375 0.816674 0.002313 0.022552
C47   C     C_R   0.118453 0.682447 0.002904 0.027043
C48   C     C_R   0.117767 0.317116 0.002637 0.019962
C49   C     C_3   0.047270 0.955066 0.489812 -0.213287
C50   C     C_3   0.046647 0.044709 0.489737 -0.205539
C51   C     C_3   0.548029 0.455130 0.490723 -0.203748
C52   C     C_3   0.548078 0.544765 0.489147 -0.207128
C53   C     C_3   0.975920 0.999811 0.467747 -0.264851
C54   C     C_3   0.477183 0.500244 0.468497 -0.256354
H21   H     H_    0.934732 0.999747 0.501984 0.182014
H22   H     H_    0.436481 0.500689 0.503335 0.188305
H23   H     H_    0.062549 0.917527 0.537730 0.202533
H24   H     H_    0.061056 0.082387 0.537111 0.201870
H25   H     H_    0.562960 0.417706 0.538807 0.202624
H26   H     H_    0.563190 0.582706 0.536051 0.200631
C55   C     C_3   0.934109 0.999762 0.344556 -0.017324
C56   C     C_3   0.434593 0.499550 0.345081 -0.022882
C57   C     C_3   0.007171 0.956375 0.368214 0.357441
C58   C     C_3   0.006574 0.043314 0.368151 0.355220
C59   C     C_3   0.507189 0.455769 0.368882 0.355647
C60   C     C_3   0.507253 0.542684 0.367335 0.352316
C61   C     C_3   0.080762 0.999920 0.390878 -0.245422
C62   C     C_3   0.580955 0.498896 0.390237 -0.240506
C63   C     C_3   0.118543 0.999962 0.512783 0.088809
C64   C     C_3   0.619506 0.499667 0.512404 0.087066
H27   H     H_    0.123710 0.999915 0.358948 0.245120
H28   H     H_    0.623850 0.498498 0.358227 0.242703
C65   C     C_3   0.294420 0.800358 0.122365 0.127661
C66   C     C_3   0.275078 0.189233 0.116149 0.126502
C67   C     C_3   0.778717 0.309033 0.118435 0.130109
C68   C     C_3   0.768660 0.686560 0.112653 0.129340
H29   H     H_    0.370647 0.787820 0.165395 0.118006
H30   H     H_    0.353575 0.194160 0.178136 0.096006
H31   H     H_    0.857301 0.303266 0.178665 0.096542
H32   H     H_    0.846748 0.689367 0.178666 0.104563
C69   C     C_3   0.737768 0.254553 0.123448 -0.509080
C70   C     C_3   0.729635 0.741509 0.120812 -0.512745
C71   C     C_3   0.245511 0.749661 0.124952 -0.493777
C72   C     C_3   0.234459 0.243805 0.122472 -0.510124
H33   H     H_    0.215132 0.757562 0.170672 0.201379
H34   H     H_    0.200120 0.240069 0.164432 0.208632
H35   H     H_    0.704911 0.258166 0.167124 0.207662
H36   H     H_    0.693009 0.737694 0.160143 0.211873
H37   H     H_    0.797316 0.224567 0.171437 0.204379
H38   H     H_    0.790816 0.769792 0.174071 0.199643
H39   H     H_    0.299670 0.716610 0.169728 0.210972
H40   H     H_    0.294453 0.273209 0.172493 0.202865
H41   H     H_    0.854550 0.256306 0.032098 0.189700
H42   H     H_    0.857541 0.742217 0.046341 0.191091
H43   H     H_    0.347307 0.753403 0.007251 0.185445
H44   H     H_    0.354864 0.242885 0.036142 0.190923
H45   H     H_    0.763846 0.182280 0.995816 0.211863
H46   H     H_    0.767094 0.817186 0.007577 0.209743
H47   H     H_    0.257937 0.681074 0.984417 0.207663
H48   H     H_    0.264305 0.317237 0.999767 0.213523
C73   C     C_3   0.777437 0.265806 0.966943 -0.445317
C74   C     C_3   0.781504 0.734320 0.975213 -0.441072
C75   C     C_3   0.269829 0.764667 0.953462 -0.435552
C76   C     C_3   0.277991 0.233998 0.969065 -0.446775
C77   C     C_3   0.138669 0.826962 0.925131 0.804249
C78   C     C_3   0.132445 0.174841 0.910492 0.787718
C79   C     C_3   0.634091 0.325705 0.914543 0.782703
C80   C     C_3   0.631536 0.676818 0.903332 0.803125
C81   C     C_3   0.252080 0.816127 0.999003 -0.016238
C82   C     C_3   0.247028 0.181264 0.996044 -0.006985
C83   C     C_3   0.748564 0.318334 0.997717 -0.006479
C84   C     C_3   0.745918 0.681100 0.994676 -0.018713
C85   C     C_3   0.664238 0.232883 0.005195 0.229776
C86   C     C_3   0.661244 0.766137 0.004150 0.238465
C87   C     C_3   0.165715 0.731823 0.005819 0.227819
C88   C     C_3   0.162678 0.266564 0.004804 0.229138
C89   C     C_3   0.716824 0.218531 0.954740 -0.316186
C90   C     C_3   0.719888 0.781634 0.961690 -0.319012
C91   C     C_3   0.211077 0.717624 0.946712 -0.334830
C92   C     C_3   0.217163 0.281283 0.956908 -0.311954
C93   C     C_3   0.589026 0.278043 0.938391 -0.563538
C94   C     C_3   0.585338 0.722373 0.930601 -0.587441
C95   C     C_3   0.093639 0.779281 0.948417 -0.566445
C96   C     C_3   0.087164 0.221988 0.935639 -0.566569
H49   H     H_    0.072646 0.792337 0.001391 0.217699
H50   H     H_    0.059797 0.207646 0.981371 0.225181
H51   H     H_    0.562248 0.291739 0.985232 0.225993
H52   H     H_    0.557668 0.706168 0.974829 0.227298
H53   H     H_    0.526031 0.260411 0.860769 0.174053
H54   H     H_    0.521940 0.741009 0.854938 0.170255
H55   H     H_    0.026966 0.764142 0.870899 0.178860
H56   H     H_    0.024468 0.240234 0.858590 0.174153
H57   H     H_    0.768973 0.269673 0.888797 0.242819
H58   H     H_    0.779613 0.732338 0.900845 0.237873
H59   H     H_    0.250432 0.770393 0.870179 0.250571
H60   H     H_    0.271449 0.230896 0.891946 0.242245
H61   H     H_    0.663952 0.208696 0.865558 0.189708
H62   H     H_    0.670776 0.793072 0.872946 0.192148
H63   H     H_    0.154114 0.708259 0.858222 0.184277
H64   H     H_    0.165457 0.291742 0.867880 0.191380
C97   C     C_3   0.459933 0.019401 0.534502 0.075895
C98   C     C_3   0.638723 0.038492 0.658246 0.069929
C99   C     C_3   0.141975 0.462830 0.661769 0.061343
C100  C     C_3   0.962310 0.477433 0.533655 0.107207
H65   H     H_    0.448460 0.061594 0.551194 0.070605
H66   H     H_    0.614330 0.080423 0.657732 0.028875
H67   H     H_    0.128403 0.421155 0.677952 0.058692
H68   H     H_    0.964152 0.432672 0.546073 0.051069
C101  C     C_3   0.461020 0.024264 0.433809 0.050878
C102  C     C_3   0.643262 0.034031 0.558365 0.085934
C103  C     C_3   0.136642 0.459287 0.554914 0.101925
C104  C     C_3   0.959147 0.484674 0.430783 0.031795
H69   H     H_    0.463349 0.068357 0.419441 0.106956
H70   H     H_    0.634438 0.076195 0.528212 0.134407
H71   H     H_    0.108611 0.418087 0.521389 0.108884
H72   H     H_    0.943144 0.443740 0.391856 0.133572
H73   H     H_    0.533018 0.909299 0.610190 0.201273
H74   H     H_    0.654769 0.927898 0.684546 0.241882
H75   H     H_    0.138951 0.578348 0.690602 0.211661
H76   H     H_    0.014041 0.585457 0.587923 0.229584
H77   H     H_    0.502779 0.915993 0.447906 0.276592
H78   H     H_    0.629846 0.918672 0.522206 0.227749
H79   H     H_    0.164255 0.568653 0.559940 0.232035
H80   H     H_    0.045005 0.592257 0.469879 0.249902
C105  C     C_3   0.580865 0.940973 0.616486 -0.414815
C106  C     C_3   0.076161 0.558913 0.615210 -0.429116
C107  C     C_3   0.559755 0.998779 0.638689 -0.049659
C108  C     C_3   0.059267 0.500492 0.638516 -0.057790
C109  C     C_3   0.556720 0.998731 0.463496 -0.041467
C110  C     C_3   0.060771 0.501871 0.466424 -0.016394
C111  C     C_3   0.567589 0.940252 0.508123 -0.236484
C112  C     C_3   0.088977 0.558396 0.524653 -0.240747
N33   N     N_R   0.237676 0.139635 0.793354 0.229527
O1    O     O_R   0.261579 0.172315 0.746337 -0.439622
O2    O     O_R   0.158942 0.111849 0.732969 -0.409235
N34   N     N_R   0.237785 0.860137 0.793447 0.223726
O3    O     O_R   0.158426 0.887709 0.734882 -0.406993
O4    O     O_R   0.261417 0.828661 0.744253 -0.448656
N35   N     N_R   0.738428 0.639912 0.792803 0.231766
O5    O     O_R   0.762787 0.673059 0.746903 -0.435148
O6    O     O_R   0.658982 0.612734 0.731614 -0.392480
N36   N     N_R   0.735163 0.362691 0.793739 0.229559
O7    O     O_R   0.658139 0.392337 0.737258 -0.405992
O8    O     O_R   0.754154 0.329065 0.742932 -0.439486
N37   N     N_R   0.986359 0.909167 0.299286 0.271752
O9    O     O_R   0.019155 0.861637 0.343787 -0.375276
O10   O     O_R   0.944256 0.915494 0.194477 -0.301380
N38   N     N_R   0.985086 0.090519 0.299193 0.272650
O11   O     O_R   0.015082 0.138340 0.343352 -0.380540
O12   O     O_R   0.944179 0.084128 0.194648 -0.296342
N39   N     N_R   0.485550 0.408106 0.300721 0.273208
O13   O     O_R   0.515300 0.360408 0.345646 -0.377654
O14   O     O_R   0.444335 0.413853 0.195992 -0.296461
N40   N     N_R   0.485811 0.589446 0.297387 0.272684
O15   O     O_R   0.519419 0.637017 0.341017 -0.372632
O16   O     O_R   0.442730 0.582526 0.192482 -0.302399
N41   N     N_R   0.293529 0.843909 0.188095 0.268218
O17   O     O_R   0.371626 0.852717 0.286618 -0.336798
O18   O     O_R   0.213181 0.861691 0.165266 -0.273678
N42   N     N_R   0.245602 0.142348 0.149592 0.264254
O19   O     O_R   0.280538 0.094616 0.156178 -0.305709
O20   O     O_R   0.185185 0.147008 0.172923 -0.308851
N43   N     N_R   0.751537 0.355373 0.156173 0.264298
O21   O     O_R   0.794065 0.401750 0.175203 -0.322253
O22   O     O_R   0.686886 0.351255 0.173103 -0.311748
N44   N     N_R   0.732572 0.639358 0.137148 0.277616
O23   O     O_R   0.760418 0.590887 0.134044 -0.266091
O24   O     O_R   0.673852 0.644481 0.162854 -0.292196
O25   O     O_3   0.099417 0.823600 0.811483 -0.627569
C113  C     C_3   0.005002 0.845052 0.739179 0.024588
H81   H     H_    0.971163 0.828037 0.655645 0.128365
H82   H     H_    0.007407 0.889834 0.733042 0.200812
H83   H     H_    0.957905 0.834978 0.763324 0.106640
O26   O     O_3   0.101306 0.183110 0.800614 -0.622278
C114  C     C_3   0.005105 0.166256 0.718737 0.021729
H84   H     H_    0.978019 0.187309 0.640471 0.128207
H85   H     H_    0.954971 0.175466 0.739011 0.104640
H86   H     H_    0.002127 0.121985 0.703448 0.202049
O27   O     O_3   0.601300 0.319140 0.803606 -0.626770
C115  C     C_3   0.505260 0.337077 0.724075 0.040977
H87   H     H_    0.477260 0.317888 0.643799 0.124154
H88   H     H_    0.502842 0.381682 0.712708 0.206161
H89   H     H_    0.455624 0.326598 0.744343 0.111464
O28   O     O_3   0.607105 0.688488 0.797280 -0.607056
C116  C     C_3   0.507691 0.683613 0.709005 -0.030692
H90   H     H_    0.478249 0.724514 0.674271 0.115260
H91   H     H_    0.463498 0.665030 0.731358 0.128395
H92   H     H_    0.498517 0.658736 0.642316 0.178914
N45   N     N_R   0.117963 0.880915 0.950079 0.236609
O29   O     O_R   0.155447 0.924295 0.941506 -0.298675
O30   O     O_R   0.048372 0.887161 0.958507 -0.311186
N46   N     N_R   0.103317 0.120331 0.921828 0.232523
O31   O     O_R   0.037046 0.114435 0.935767 -0.292299
O32   O     O_R   0.135217 0.077103 0.903985 -0.293990
N47   N     N_R   0.606560 0.379915 0.930145 0.233016
O33   O     O_R   0.639985 0.423507 0.916070 -0.286728
O34   O     O_R   0.539304 0.385426 0.942653 -0.293107
N48   N     N_R   0.597739 0.621791 0.904201 0.234742
O35   O     O_R   0.531980 0.614609 0.918608 -0.313744
O36   O     O_R   0.627532 0.579612 0.880874 -0.280591
N49   N     N_R   0.379389 0.986615 0.512196 0.279346
O37   O     O_R   0.315470 0.009306 0.518560 -0.411430
O38   O     O_R   0.367093 0.936436 0.479400 -0.331132
N50   N     N_R   0.733654 0.032290 0.765345 0.297236
O39   O     O_R   0.798832 0.068980 0.796197 -0.276390
O40   O     O_R   0.752200 0.993620 0.833919 -0.325132
N51   N     N_R   0.236585 0.479481 0.760693 0.295991
O41   O     O_R   0.280700 0.448907 0.848057 -0.294458
O42   O     O_R   0.279627 0.522729 0.761438 -0.299541
N52   N     N_R   0.874777 0.497109 0.517859 0.277222
O43   O     O_R   0.813528 0.462059 0.505985 -0.400357
O44   O     O_R   0.858130 0.548524 0.518641 -0.355643
N53   N     N_R   0.370772 0.003923 0.332643 0.305621
O45   O     O_R   0.290006 0.026354 0.300119 -0.215450
O46   O     O_R   0.368297 0.963745 0.275465 -0.293735
N54   N     N_R   0.736692 0.014377 0.590047 0.273573
O47   O     O_R   0.787439 0.045081 0.573431 -0.421357
O48   O     O_R   0.774127 0.969144 0.643726 -0.359268
N55   N     N_R   0.232079 0.462052 0.579278 0.281988
O49   O     O_R   0.293619 0.423348 0.636492 -0.360646
O50   O     O_R   0.254437 0.499752 0.538484 -0.436685
N56   N     N_R   0.880943 0.520815 0.347937 0.290873
O51   O     O_R   0.803450 0.499640 0.261629 -0.200943
O52   O     O_R   0.881728 0.572590 0.365068 -0.318094
O53   O     O_3   0.554581 0.097008 0.339492 -0.646589
C117  C     C_3   0.628654 0.121471 0.342439 -0.265676
H93   H     H_    0.606208 0.130171 0.258431 0.142073
H94   H     H_    0.694120 0.095928 0.388639 0.169158
H95   H     H_    0.646671 0.160745 0.386540 0.193465
O54   O     O_3   0.559638 0.901141 0.335159 -0.623383
C118  C     C_3   0.644687 0.882662 0.354832 -0.316350
H96   H     H_    0.706148 0.909099 0.415618 0.153440
H97   H     H_    0.636483 0.879487 0.276786 0.155406
H98   H     H_    0.660333 0.841380 0.390842 0.202432
O55   O     O_3   0.061551 0.599214 0.335520 -0.642899
C119  C     C_3   0.146719 0.616247 0.354258 -0.291007
H99   H     H_    0.136633 0.620680 0.275374 0.154915
H100  H     H_    0.206987 0.588274 0.411388 0.174563
H101  H     H_    0.165675 0.656762 0.394009 0.191344
O56   O     O_3   0.054624 0.403404 0.339237 -0.646450
C120  C     C_3   0.131922 0.379546 0.347670 -0.255004
H102  H     H_    0.197963 0.403985 0.402147 0.172267
H103  H     H_    0.115421 0.373612 0.265499 0.137810
H104  H     H_    0.145657 0.338940 0.385912 0.191966
O57   O     O_3   0.802461 0.901629 0.266805 -0.596605
C121  C     C_3   0.842581 0.883781 0.374980 -0.250961
H105  H     H_    0.801109 0.848659 0.370900 0.141368
H106  H     H_    0.846830 0.915026 0.430968 0.106738
H107  H     H_    0.915831 0.868267 0.413366 0.212654
O58   O     O_3   0.802910 0.097947 0.268064 -0.595601
C122  C     C_3   0.839886 0.115899 0.375329 -0.259363
H108  H     H_    0.912259 0.133019 0.414828 0.209908
H109  H     H_    0.845732 0.084209 0.431411 0.130014
H110  H     H_    0.795119 0.149779 0.369365 0.137926
O59   O     O_3   0.303046 0.401677 0.269715 -0.597082
C123  C     C_3   0.339985 0.384624 0.377393 -0.254059
H111  H     H_    0.296165 0.350515 0.372059 0.137892
H112  H     H_    0.344189 0.416698 0.432104 0.124726
H113  H     H_    0.413056 0.368115 0.418084 0.208989
O60   O     O_3   0.302458 0.598006 0.266158 -0.597793
C124  C     C_3   0.343894 0.616509 0.374358 -0.266908
H114  H     H_    0.416449 0.632391 0.410785 0.211601
H115  H     H_    0.350121 0.585579 0.431798 0.119495
H116  H     H_    0.302115 0.651522 0.370643 0.141186

loop_
_geom_bond_atom_site_label_1
_geom_bond_atom_site_label_2
_geom_bond_distance
_ccdc_geom_bond_type
N56   O52   1.300133 A    
C65   H29   1.115544 S    
C71   C87   1.541555 S    
C68   H32   1.106436 S    
C50   H24   1.106199 S    
C93   H51   1.110665 S    
N49   O37   1.299738 A    
C67   H31   1.108280 S    
N19   Ni3   1.902128 S    
O28   C116  1.423095 S    
C10   O54   1.378559 S    
C13   H5    1.077772 S    
C14   N14   1.339985 A    
C88   C96   1.544609 S    
O26   C114  1.424291 S    
C38   C45   1.374208 A    
C97   C101  1.544253 S    
N29   Ni2   1.875829 S    
C32   O60   1.378421 S    
C5    H1    1.061905 S    
N40   O16   1.300279 A    
N31   Ni4   1.875829 S    
C7    H3    1.063045 S    
C100  H68   1.116662 S    
C1    N33   1.420651 S    
N2    Ni2   1.906555 S    
C51   C59   1.531120 S    
N36   O8    1.301081 A    
C117  H93   1.107071 S    
C71   H39   1.115419 S    
N19   N20   1.399359 A    
C11   C22   1.379405 A    
N37   O9    1.300343 A    
C6    C17   1.398622 A    
C97   N49   1.474531 S    
C100  N52   1.475968 S    
N38   O12   1.300288 A    
N26   N29   1.383771 A    
C77   C81   1.604374 S    
C124  H116  1.107033 S    
N52   O44   1.300752 A    
O54   C118  1.400107 S    
C77   C95   1.569249 S    
N43   O21   1.298472 A    
C78   C96   1.572682 S    
O56   C120  1.402474 S    
C52   H26   1.106172 S    
C30   N22   1.345689 A    
C119  H99   1.106000 S    
C79   C83   1.607179 S    
N1    N6    1.397952 A    
C97   C107  1.574968 S    
C123  H113  1.105982 S    
C101  H69   1.114474 S    
H41   C73   1.114767 S    
N54   O47   1.300675 A    
N13   N14   1.420066 A    
C51   C64   1.542787 S    
O59   C123  1.413737 S    
C7    N7    1.326326 A    
C8    N8    1.331190 A    
C117  H95   1.108977 S    
C110  C112  1.562040 S    
C58   C61   1.547090 S    
C1    C17   1.397589 A    
C15   C24   1.362616 A    
C113  H82   1.110819 S    
N48   O35   1.302287 A    
N16   Ni3   1.858170 S    
C73   C89   1.509926 S    
C43   C55   1.469269 S    
C79   O27   1.424841 S    
H79   C112  1.109337 S    
N30   Ni1   1.879377 S    
C87   C95   1.545039 S    
N43   O22   1.302063 A    
N24   Ni8   1.861888 S    
C40   H20   1.081695 S    
C31   C44   1.384463 A    
C39   N31   1.323379 A    
C41   C107  1.478037 S    
C12   C22   1.386558 A    
N46   O32   1.301415 A    
H46   C90   1.115013 S    
C116  H91   1.111358 S    
C6    N6    1.327550 A    
C25   H9    1.080086 S    
C102  C109  1.580981 S    
C29   O57   1.378293 S    
C27   H11   1.078288 S    
O58   C122  1.413795 S    
C61   H27   1.109552 S    
C55   C57   1.529501 S    
C69   H35   1.109351 S    
O55   C119  1.399336 S    
C29   N21   1.345967 A    
C10   C21   1.379602 A    
C26   C41   1.386317 A    
C94   H54   1.107293 S    
N51   O42   1.301488 A    
C102  N54   1.474826 S    
C53   H21   1.110672 S    
N55   O50   1.301084 A    
C103  C110  1.587166 S    
C33   N25   1.324370 A    
C122  H108  1.106013 S    
C86   C94   1.545854 S    
C35   N27   1.321422 A    
C122  H110  1.107353 S    
N47   O34   1.302183 A    
C27   C42   1.387081 A    
C47   C87   1.457301 S    
C23   C63   1.466202 S    
C32   N24   1.347117 A    
C30   O58   1.377929 S    
C106  C112  1.518806 S    
N53   O46   1.298679 A    
C44   C56   1.471792 S    
C40   C47   1.372067 A    
C25   N17   1.328600 A    
N34   O3    1.298574 A    
C50   C63   1.541691 S    
C51   H25   1.106459 S    
N41   O17   1.300678 A    
C78   O26   1.424710 S    
C28   N20   1.328131 A    
C57   C61   1.546901 S    
C36   C48   1.364090 A    
N34   O4    1.301398 A    
C99   N51   1.473173 S    
N33   O1    1.301121 A    
N50   O40   1.301543 A    
C12   O56   1.379674 S    
C45   C85   1.461427 S    
C99   C103  1.569555 S    
C93   H53   1.108786 S    
C119  H101  1.109030 S    
C4    N36   1.420085 S    
O60   C124  1.414061 S    
C9    C21   1.382805 A    
C120  H103  1.107878 S    
N4    N7    1.397965 A    
C14   H6    1.078627 S    
C73   H57   1.107776 S    
C8    H4    1.064438 S    
C59   N39   1.456195 S    
C114  H86   1.109810 S    
C115  H87   1.109218 S    
C60   N40   1.456288 S    
C6    H2    1.063142 S    
N15   N16   1.420066 A    
C49   C57   1.531366 S    
H45   C89   1.115016 S    
H43   C75   1.114747 S    
N9    N10   1.399359 A    
C58   N38   1.456229 S    
C61   C63   1.546664 S    
C34   H14   1.077524 S    
C92   H64   1.114289 S    
C118  H97   1.106889 S    
C121  H106  1.114453 S    
C72   C88   1.544491 S    
N26   Ni5   1.895823 S    
C42   C108  1.473823 S    
N45   O29   1.301485 A    
H76   C106  1.109428 S    
C7    C20   1.396260 A    
N35   O6    1.299066 A    
C94   H52   1.110754 S    
N44   O24   1.301857 A    
N12   Ni7   1.907376 S    
C103  N55   1.473717 S    
C78   C82   1.608651 S    
N28   Ni7   1.895823 S    
C49   C63   1.541503 S    
C121  H107  1.105086 S    
C2    N34   1.422777 S    
C32   C44   1.385292 A    
N2    N5    1.397965 A    
C9    N9    1.344506 A    
C60   C62   1.547168 S    
H42   C74   1.114677 S    
C12   N12   1.343750 A    
N42   O19   1.299226 A    
C54   H22   1.110650 S    
C76   H60   1.107932 S    
N23   Ni7   1.865279 S    
N22   Ni6   1.861887 S    
C56   C59   1.530139 S    
C72   H40   1.115333 S    
C75   C91   1.511443 S    
N17   N18   1.399359 A    
C2    C18   1.400889 A    
N14   Ni1   1.858170 S    
C105  C107  1.556357 S    
C80   N48   1.483488 S    
H75   C106  1.110525 S    
C118  H98   1.109027 S    
C74   C90   1.511551 S    
N10   Ni5   1.907376 S    
C66   C72   1.547568 S    
C73   C83   1.556637 S    
C88   C92   1.547408 S    
C53   C55   1.545643 S    
C66   C82   1.589848 S    
C97   H65   1.115320 S    
C117  H94   1.107812 S    
C40   N32   1.323405 A    
C52   C64   1.541579 S    
N5    Ni5   1.866415 S    
C37   H17   1.081398 S    
H73   C105  1.105557 S    
C39   H19   1.081489 S    
C35   C47   1.362752 A    
C22   C110  1.491778 S    
N35   O5    1.301002 A    
C115  H89   1.109730 S    
C49   H23   1.106560 S    
N39   O13   1.300325 A    
C124  H115  1.114142 S    
C28   C42   1.389005 A    
C26   H10   1.076000 S    
C77   O25   1.425259 S    
C1    N1    1.331767 A    
C29   C43   1.384442 A    
C3    N3    1.330641 A    
C25   C41   1.390701 A    
C39   C48   1.374110 A    
C116  H90   1.109834 S    
N54   O48   1.301294 A    
C65   C81   1.594312 S    
C68   C70   1.551501 S    
C50   C58   1.531295 S    
C76   C82   1.555630 S    
C68   C84   1.589573 S    
C104  N56   1.473772 S    
O27   C115  1.423651 S    
C96   H56   1.108407 S    
C33   H13   1.077233 S    
C67   C83   1.590222 S    
C86   C90   1.549471 S    
C52   C60   1.531459 S    
C76   C92   1.508482 S    
C4    N4    1.334184 A    
C37   N29   1.324387 A    
C65   N41   1.469926 S    
N56   O51   1.299639 A    
C85   C93   1.544612 S    
O25   C113  1.421758 S    
C16   C24   1.363999 A    
C113  H83   1.110409 S    
C24   C64   1.468527 S    
N48   O36   1.300637 A    
C52   C54   1.539914 S    
C99   C108  1.564575 S    
N49   O38   1.301409 A    
N11   Ni8   1.911859 S    
N25   N30   1.383785 A    
C67   C69   1.545858 S    
N23   N24   1.420557 A    
C26   N18   1.318578 A    
N27   Ni8   1.900339 S    
C72   H34   1.109347 S    
C34   C46   1.364071 A    
N47   O33   1.301396 A    
C4    C20   1.400050 A    
C11   O55   1.378494 S    
C38   H18   1.081517 S    
N51   O41   1.301214 A    
C118  H96   1.112668 S    
N40   O15   1.300362 A    
C18   C81   1.502351 S    
N8    Ni8   1.862898 S    
C75   H59   1.103844 S    
N7    Ni7   1.866415 S    
N36   O7    1.298652 A    
C46   C86   1.460216 S    
N20   Ni4   1.906569 S    
C119  H100  1.111430 S    
C13   C23   1.362223 A    
C80   C94   1.572670 S    
N37   O10   1.300284 A    
C15   H7    1.078377 S    
C16   H8    1.078797 S    
N38   O11   1.300320 A    
C77   N45   1.483494 S    
N52   O43   1.301041 A    
C33   C45   1.364931 A    
H47   C91   1.114825 S    
C62   C64   1.546608 S    
C122  H109  1.114808 S    
C8    C19   1.401565 A    
C17   C82   1.508806 S    
C38   N30   1.324292 A    
C70   H38   1.115105 S    
N28   N31   1.383771 A    
H80   C112  1.099535 S    
C20   C83   1.510130 S    
C109  C111  1.555698 S    
N53   O45   1.301576 A    
C91   H63   1.114014 S    
C48   C88   1.459412 S    
C96   H50   1.110787 S    
C51   C54   1.539123 S    
O53   C117  1.403041 S    
C75   C81   1.559596 S    
N55   O49   1.301428 A    
C98   N50   1.474144 S    
C80   C84   1.609452 S    
C36   N28   1.324525 A    
N3    N8    1.397952 A    
C10   N10   1.329697 A    
C13   N13   1.339553 A    
C113  H81   1.109744 S    
C3    N35   1.420736 S    
C103  H71   1.109377 S    
C67   N43   1.475294 S    
C34   N26   1.327076 A    
N4    Ni4   1.906555 S    
C36   H16   1.077637 S    
C69   H37   1.115434 S    
C70   C86   1.545739 S    
C120  H102  1.109384 S    
C3    C19   1.397179 A    
C5    C18   1.390741 A    
C105  C111  1.516675 S    
C68   N44   1.474576 S    
N46   O31   1.302117 A    
C114  H85   1.109791 S    
C115  H88   1.109887 S    
C116  H92   1.108565 S    
C95   H49   1.111343 S    
N39   O14   1.300289 A    
C55   C58   1.529597 S    
H48   C92   1.115124 S    
C104  H72   1.116074 S    
C59   C62   1.547554 S    
C11   N11   1.331386 A    
C100  C108  1.575993 S    
H74   C105  1.109752 S    
C49   C53   1.539146 S    
C78   N46   1.483995 S    
C90   H62   1.114195 S    
N17   Ni1   1.902128 S    
C69   C85   1.544549 S    
C100  C104  1.539213 S    
C2    N2    1.331499 A    
C21   C109  1.487847 S    
C98   C102  1.567951 S    
C62   H28   1.109729 S    
C101  N53   1.477868 S    
C79   N47   1.484127 S    
C31   N23   1.345690 A    
C65   C71   1.528582 S    
C70   H36   1.109518 S    
C14   C23   1.362266 A    
N42   O20   1.301946 A    
C80   O28   1.425399 S    
C87   C91   1.549542 S    
C102  H70   1.108819 S    
C99   H67   1.115123 S    
N32   Ni3   1.879377 S    
N41   O18   1.299530 A    
C123  H112  1.115224 S    
C56   C60   1.530244 S    
C104  C110  1.569758 S    
C85   C89   1.546495 S    
C74   H58   1.109913 S    
C74   C84   1.555364 S    
N25   Ni6   1.900339 S    
C101  C109  1.573290 S    
N33   O2    1.298133 A    
C50   C53   1.539040 S    
N27   N32   1.383785 A    
C5    N5    1.324686 A    
N50   O39   1.301343 A    
C114  H84   1.109200 S    
H78   C111  1.106895 S    
C106  C108  1.553932 S    
C27   N19   1.318853 A    
N11   N12   1.399359 A    
C30   C43   1.383986 A    
C120  H104  1.108964 S    
C71   H33   1.113457 S    
C37   C46   1.372972 A    
C31   O59   1.377654 S    
C57   N37   1.456216 S    
C95   H55   1.110218 S    
C66   H30   1.107711 S    
N1    Ni1   1.901990 S    
C19   C84   1.510707 S    
C98   C107  1.567704 S    
N3    Ni3   1.901990 S    
C124  H114  1.105102 S    
N18   Ni2   1.906569 S    
N21   Ni5   1.865280 S    
C35   H15   1.077360 S    
C121  H105  1.107075 S    
C79   C93   1.573808 S    
C123  H111  1.107327 S    
N45   O30   1.302823 A    
C15   N15   1.340299 A    
N13   Ni2   1.854807 S    
C16   N16   1.341080 A    
N15   Ni4   1.854807 S    
N44   O23   1.299511 A    
C54   C56   1.545485 S    
N9    Ni6   1.911859 S    
H44   C76   1.114797 S    
C66   N42   1.475163 S    
N21   N22   1.420557 A    
C98   H66   1.114584 S    
H77   C111  1.109415 S    
C89   H61   1.114222 S    
N6    Ni6   1.862898 S    
O57   C121  1.414044 S    
C28   H12   1.080142 S    
C9    O53   1.381123 S    
