data_mof_unit_8087.cif
_audit_creation_date              2012-12-10T17:32:18-0500
_audit_creation_method            fapswitch 2.2
_symmetry_space_group_name_H-M    P1
_symmetry_Int_Tables_number       1
_space_group_crystal_system       triclinic
_cell_length_a                    12.31553
_cell_length_b                    13.194159
_cell_length_c                    15.064588
_cell_angle_alpha                 77.490527
_cell_angle_beta                  101.370497
_cell_angle_gamma                 116.616654
_cell_volume                      2122.41860119

loop_
_atom_site_label
_atom_site_type_symbol
_atom_type_description
_atom_site_fract_x
_atom_site_fract_y
_atom_site_fract_z
_atom_type_partial_charge
C1    C     C_R   0.854862 0.286593 0.508007 0.776869
C2    C     C_R   0.904419 0.511508 0.075472 0.108688
C3    C     C_R   0.187479 0.472195 0.081542 -0.215220
C4    C     C_R   0.187165 0.472051 0.988992 -0.215341
C5    C     C_R   0.093300 0.485024 0.924824 0.107204
C6    C     C_R   0.998645 0.498107 0.953621 0.063087
C7    C     C_R   0.903798 0.511232 0.889446 0.108908
C8    C     C_R   0.810047 0.524000 0.918760 -0.214559
C9    C     C_R   0.810371 0.524163 0.011324 -0.216181
C10   C     C_R   0.092610 0.485379 0.832242 -0.247544
C11   C     C_R   0.998732 0.498868 0.768170 -0.073755
C12   C     C_R   0.999436 0.499556 0.671223 0.811765
C13   C     C_R   0.904492 0.511535 0.797007 -0.253120
C14   C     C_R   0.275280 0.021280 0.377351 -0.190380
C15   C     C_R   0.227943 0.834482 0.467405 -0.048980
C16   C     C_R   0.815624 0.085313 0.567916 -0.187656
C17   C     C_R   0.736915 0.970369 0.585773 -0.145333
C18   C     C_R   0.613501 0.932614 0.553416 -0.182351
C19   C     C_R   0.566619 0.009406 0.498923 0.079582
C20   C     C_R   0.650069 0.123863 0.471845 0.082234
C21   C     C_R   0.439888 0.976095 0.469550 0.073292
C22   C     C_R   0.400104 0.053288 0.406887 0.166862
C23   C     C_R   0.145104 0.713403 0.486464 0.801996
C24   C     C_R   0.485423 0.160457 0.372656 -0.240663
C25   C     C_R   0.608641 0.194670 0.403490 -0.197347
C26   C     C_R   0.351066 0.868482 0.501249 -0.252308
C27   C     C_R   0.189497 0.911916 0.406986 -0.194169
C28   C     C_R   0.773084 0.163635 0.513143 -0.102136
C29   C     C_R   0.347578 0.329285 0.646566 -0.302543
C30   C     C_R   0.759031 0.645056 0.375684 0.070280
C31   C     C_R   0.662225 0.676531 0.348815 -0.257014
C32   C     C_R   0.558990 0.621880 0.395543 -0.196049
C33   C     C_R   0.551300 0.534496 0.470307 -0.006480
C34   C     C_R   0.000228 0.499960 0.328809 0.807448
C35   C     C_R   0.653129 0.505316 0.495458 0.289558
C36   C     C_R   0.447102 0.475251 0.521094 -0.037758
C37   C     C_R   0.447367 0.388671 0.595529 0.177915
C38   C     C_R   0.547228 0.361766 0.618912 -0.288064
C39   C     C_R   0.647612 0.418769 0.570191 -0.191201
C40   C     C_R   0.341824 0.497657 0.501770 0.015650
C41   C     C_R   0.247352 0.355565 0.624116 0.066824
C42   C     C_R   0.905619 0.511977 0.167999 -0.252717
C43   C     C_R   0.999977 0.499254 0.231970 -0.072075
C44   C     C_R   0.093732 0.485818 0.203164 -0.246938
C45   C     C_R   0.093913 0.485287 0.110816 0.107949
C46   C     C_R   0.998957 0.498240 0.046675 0.062933
Cu1   Cu    Cu3+1 0.098270 0.475420 0.521130 0.933128
Cu2   Cu    Cu3+1 0.901730 0.524580 0.478870 0.921664
H1    H     H_    0.832785 0.522050 0.190042 0.154324
H2    H     H_    0.456839 0.218292 0.321733 0.143363
H3    H     H_    0.244463 0.079755 0.329343 0.133905
H4    H     H_    0.909631 0.113328 0.598952 0.152045
H5    H     H_    0.558086 0.842294 0.570578 0.129420
H6    H     H_    0.771054 0.910535 0.627427 0.142554
H7    H     H_    0.670779 0.276227 0.370896 0.175190
H8    H     H_    0.169993 0.310050 0.663203 0.120605
H9    H     H_    0.548067 0.295747 0.675895 0.154466
H10   H     H_    0.347188 0.262969 0.703541 0.136942
H11   H     H_    0.166863 0.476176 0.252412 0.154270
H12   H     H_    0.333592 0.561797 0.446422 0.122661
H13   H     H_    0.838786 0.688027 0.339054 0.123828
H14   H     H_    0.486895 0.649762 0.371802 0.135614
H15   H     H_    0.667236 0.743578 0.291556 0.144951
H16   H     H_    0.719123 0.391852 0.594099 0.208269
H17   H     H_    0.260842 0.462182 0.130177 0.141878
H18   H     H_    0.260311 0.461932 0.967574 0.141029
H19   H     H_    0.165631 0.475588 0.810216 0.155855
H20   H     H_    0.831561 0.521491 0.747708 0.159758
H21   H     H_    0.736683 0.534001 0.870117 0.144482
H22   H     H_    0.737238 0.534299 0.032743 0.141046
H23   H     H_    0.094239 0.886498 0.379892 0.148133
N1    N     N_R   0.246280 0.438190 0.553160 -0.179617
N2    N     N_R   0.754320 0.561190 0.447410 -0.206733
O1    O     O_R   0.972510 0.318130 0.526570 -0.579035
O2    O     O_R   0.806530 0.359650 0.490890 -0.604637
O3    O     O_R   0.082980 0.479210 0.647590 -0.587354
O4    O     O_R   0.917000 0.520730 0.611900 -0.602170
O5    O     O_R   0.193470 0.640350 0.509110 -0.587427
O6    O     O_R   0.027490 0.681870 0.473430 -0.585333
O7    O     O_R   0.083000 0.479270 0.388100 -0.586832
O8    O     O_R   0.917020 0.520790 0.352410 -0.599352
H24   H     H_    0.375030 0.808249 0.551871 0.147948

loop_
_geom_bond_atom_site_label_1
_geom_bond_atom_site_label_2
_ccdc_geom_bond_type
C16   C28   A    
C21   C26   A    
C40   H12   S    
C19   C20   A    
C7    C8    A    
C10   H19   S    
C2    C46   A    
C39   H16   S    
C8    H21   S    
C1    O1    A    
Cu2   O6    S    
C36   C37   A    
C19   C21   A    
Cu1   O3    S    
C5    C6    A    
C20   C25   A    
C44   H11   S    
C33   C36   A    
Cu2   O8    S    
C18   C19   A    
C18   H5    S    
C34   O7    A    
Cu1   Cu2   S    
C8    C9    A    
C1    C28   S    
C34   O8    A    
C14   C27   A    
C40   N1    A    
C15   C23   S    
C26   H24   S    
C21   C22   A    
Cu2   O2    S    
C3    H17   S    
Cu1   O7    S    
C24   H2    S    
C38   C39   A    
C1    O2    A    
C31   H15   S    
C36   C40   A    
C24   C25   A    
C16   H4    S    
C30   N2    A    
C16   C17   A    
C15   C26   A    
C20   C28   A    
C45   C46   A    
C3    C45   A    
Cu2   O4    S    
C35   C39   A    
C43   C44   A    
C41   H8    S    
C37   C38   A    
C38   H9    S    
C15   C27   A    
C14   H3    S    
C12   O4    A    
C17   C18   A    
C9    H22   S    
C41   N1    A    
C12   O3    A    
C22   C24   A    
C42   C43   A    
C3    C4    A    
C27   H23   S    
C44   C45   A    
C35   N2    A    
C6    C46   A    
C29   C41   A    
Cu2   N2    S    
C31   C32   A    
C34   C43   S    
C25   H7    S    
Cu1   O1    S    
C4    C5    A    
C11   C12   S    
C6    C7    A    
C32   C33   A    
C14   C22   A    
C32   H14   S    
C5    C10   A    
C4    H18   S    
C11   C13   A    
C30   C31   A    
C2    C42   A    
C33   C35   A    
C23   O5    A    
Cu1   N1    S    
C10   C11   A    
C42   H1    S    
C7    C13   A    
C29   H10   S    
C30   H13   S    
C29   C37   A    
Cu1   O5    S    
C23   O6    A    
C2    C9    A    
C17   H6    S    
C13   H20   S    
