data_mof_unit_60792.cif
_audit_creation_date              2012-12-10T17:11:50-0500
_audit_creation_method            fapswitch 2.2
_symmetry_space_group_name_H-M    P1
_symmetry_Int_Tables_number       1
_space_group_crystal_system       triclinic
_cell_length_a                    21.708496
_cell_length_b                    21.642426
_cell_length_c                    21.982484
_cell_angle_alpha                 61.065497
_cell_angle_beta                  119.49088
_cell_angle_gamma                 89.909687
_cell_volume                      7467.80390042

loop_
_atom_site_label
_atom_site_type_symbol
_atom_type_description
_atom_site_fract_x
_atom_site_fract_y
_atom_site_fract_z
_atom_type_partial_charge
C1    C     C_R   0.623821 0.496600 0.507316 0.883081
C2    C     C_R   0.793725 0.584764 0.630534 -0.111935
C3    C     C_R   0.839501 0.606724 0.600714 -0.045197
C4    C     C_R   0.418800 0.580911 0.337526 0.884118
C5    C     C_R   0.845812 0.578912 0.557782 -0.197807
C6    C     C_R   0.802625 0.535084 0.537159 0.058634
C7    C     C_R   0.747361 0.523546 0.553804 0.076321
C8    C     C_R   0.694657 0.492867 0.515571 -0.126785
C9    C     C_R   0.705116 0.464702 0.474794 -0.194295
C10   C     C_R   0.764965 0.467822 0.468295 0.145445
C11   C     C_R   0.813658 0.502704 0.499551 -0.126139
C12   C     C_3   0.287896 0.705678 0.082700 -0.033854
C13   C     C_3   0.727650 0.190581 0.027007 -0.143851
C14   C     C_3   0.676594 0.271323 0.972876 -0.157663
C15   C     C_1   0.624002 0.375366 0.751182 -0.012441
C16   C     C_R   0.375791 0.504241 0.490490 0.878697
C17   C     C_1   0.874522 0.125398 0.249043 -0.080753
C18   C     C_3   0.757201 0.212774 0.970545 0.113901
C19   C     C_3   0.706385 0.293522 0.916999 -0.031755
C20   C     C_3   0.820279 0.231240 0.027698 0.118306
C21   C     C_3   0.790158 0.209170 0.083392 -0.028522
C22   C     C_3   0.768930 0.312060 0.973457 -0.150580
C23   C     C_3   0.174655 0.756042 0.970445 0.075493
C24   C     C_3   0.739398 0.289704 0.029776 -0.158251
C25   C     C_1   0.661184 0.338471 0.826141 0.165709
C26   C     C_1   0.836588 0.163145 0.174143 0.152367
C27   C     C_R   0.232099 0.514853 0.349466 0.047885
C28   C     C_R   0.580183 0.419079 0.662387 0.926412
C29   C     C_R   0.158408 0.540239 0.279462 -0.116324
C30   C     C_R   0.103219 0.521143 0.294596 0.152859
C31   C     C_R   0.123583 0.482757 0.377888 -0.108670
C32   C     C_R   0.184483 0.493166 0.434794 -0.007035
C33   C     C_R   0.243845 0.502215 0.425056 0.022495
C34   C     C_3   0.206617 0.789516 0.916967 0.004400
C35   C     C_R   0.308822 0.503202 0.488204 -0.035514
C36   C     C_R   0.311655 0.502009 0.553466 -0.251556
C37   C     C_R   0.250509 0.501224 0.558020 -0.162586
C38   C     C_R   0.186808 0.495704 0.499229 -0.084678
C39   C     C_R   0.999965 0.879940 0.500129 0.871632
C40   C     C_3   0.267675 0.714935 0.971105 0.131630
C41   C     C_R   0.081181 0.918184 0.662343 0.903276
C42   C     C_R   0.002834 0.116214 0.506731 0.886139
C43   C     C_R   0.918898 0.080965 0.337728 0.864828
C44   C     C_R   0.008879 0.619844 0.500696 0.915966
C45   C     C_3   0.226689 0.780283 0.027989 -0.110428
C46   C     C_R   0.879658 0.499372 0.499721 0.882350
C47   C     C_R   0.993227 0.379722 0.499858 0.951611
C48   C     C_R   0.120546 0.499343 0.499994 0.942199
C49   C     C_R   0.921013 0.887853 0.346183 -0.181538
C50   C     C_R   0.897830 0.894987 0.271197 -0.185865
C51   C     C_R   0.927510 0.836911 0.272589 0.180192
C52   C     C_3   0.319727 0.739261 0.028887 -0.249174
C53   C     C_R   0.976810 0.768943 0.350049 0.158946
C54   C     C_R   0.988878 0.756974 0.425252 -0.021625
C55   C     C_R   0.969110 0.819521 0.424101 0.054046
C56   C     C_3   0.257784 0.814439 0.973501 0.132080
C57   C     C_R   0.001046 0.813262 0.500823 -0.162466
C58   C     C_R   0.048788 0.745326 0.578189 -0.098361
C59   C     C_R   0.059519 0.680737 0.579712 0.213590
C60   C     C_R   0.022488 0.685920 0.502267 -0.169525
C61   C     C_R   0.051310 0.107626 0.662113 0.087331
C62   C     C_R   0.094883 0.104840 0.736157 -0.194261
C63   C     C_R   0.086836 0.169954 0.734041 -0.090853
C64   C     C_1   0.373175 0.624361 0.248642 -0.070120
C65   C     C_R   0.035165 0.236053 0.656029 0.177500
C66   C     C_R   0.014590 0.242435 0.580434 -0.005232
C67   C     C_1   0.334506 0.660837 0.173632 0.165840
C68   C     C_R   0.022517 0.176016 0.583912 0.026884
C69   C     C_R   0.000305 0.180747 0.509314 -0.095049
C70   C     C_R   0.962807 0.248516 0.432010 -0.228025
C71   C     C_R   0.951730 0.314066 0.426744 0.181600
C72   C     C_R   0.984010 0.312055 0.501669 -0.153350
C73   C     C_1   0.125478 0.873419 0.751192 -0.107363
C74   C     C_3   0.236620 0.681203 0.025714 -0.104985
C75   C     C_2   0.884717 0.655211 0.617454 0.951204
C76   C     C_2   0.596734 0.292946 0.943864 1.014632
C77   C     C_2   0.703783 0.122738 0.055841 0.990366
C78   C     C_1   0.162322 0.835523 0.826164 0.074651
C79   C     C_2   0.728748 0.333947 0.061362 1.013867
C80   C     C_2   0.793005 0.379802 0.945153 1.012900
C81   C     C_2   0.143183 0.578186 0.194097 1.004414
C82   C     C_2   0.101718 0.414803 0.410765 0.952891
C83   C     C_2   0.253566 0.512248 0.621034 1.006986
C84   C     C_2   0.085176 0.742073 0.657648 0.945747
C85   C     C_2   0.124416 0.167007 0.813419 0.990830
C86   C     C_2   0.202593 0.817902 0.058335 1.018484
C87   C     C_2   0.224364 0.606788 0.053379 0.990467
C88   C     C_2   0.718159 0.502546 0.659373 0.964253
C89   C     C_R   0.749147 0.541247 0.609380 -0.201094
C90   C     C_2   0.799957 0.599285 0.692296 0.972990
H1    H     H_    0.379669 0.731883 0.053718 0.193740
H2    H     H_    0.489122 0.348616 0.846615 0.359145
H3    H     H_    0.718595 0.025543 0.153001 0.355105
H4    H     H_    0.755858 0.337997 0.160960 0.368351
H5    H     H_    0.778195 0.477396 0.848592 0.385456
H6    H     H_    0.090525 0.590324 0.081736 0.370260
H7    H     H_    0.058174 0.339178 0.390482 0.350745
H8    H     H_    0.350075 0.428216 0.718478 0.307108
H9    H     H_    0.072303 0.753346 0.736905 0.354010
H10   H     H_    0.155163 0.223517 0.868916 0.365607
H11   H     H_    0.214630 0.814932 0.156766 0.364756
H12   H     H_    0.883748 0.593402 0.538467 0.161187
H13   H     H_    0.250308 0.502926 0.149367 0.369052
H14   H     H_    0.655850 0.597190 0.624838 0.323663
H15   H     H_    0.761677 0.667463 0.712542 0.371533
H16   H     H_    0.361422 0.504809 0.599572 0.169230
H17   H     H_    0.901143 0.936117 0.342710 0.156599
H18   H     H_    0.860508 0.947601 0.211997 0.198832
H19   H     H_    0.940233 0.250190 0.374679 0.177413
H20   H     H_    0.122607 0.051476 0.795850 0.226821
H21   H     H_    0.665639 0.441058 0.446153 0.193676
H22   H     H_    0.896197 0.737302 0.637715 0.384183
I1    I     I_    0.777051 0.419430 0.409040 -0.252964
I2    I     I_    0.133956 0.578354 0.701435 -0.022581
I3    I     I_    0.984596 0.037788 0.676291 -0.203726
I4    I     I_    0.955404 0.295261 0.654829 -0.189698
I5    I     I_    0.882650 0.410356 0.300936 -0.164916
I6    I     I_    0.058973 0.770462 0.922050 -0.144538
I7    I     I_    0.935273 0.198502 0.073366 -0.156111
I8    I     I_    0.770239 0.152417 0.921857 -0.155714
I9    I     I_    0.300520 0.664472 0.924276 -0.137074
I10   I     I_    0.304847 0.449265 0.348835 -0.197257
I11   I     I_    0.989249 0.553594 0.195993 -0.070902
I12   I     I_    0.898081 0.857781 0.155344 -0.177329
I13   I     I_    0.054964 0.702375 0.356152 -0.229691
I14   I     I_    0.276726 0.919859 0.931652 -0.236328
O1    O     O_R   0.591660 0.448290 0.500000 -0.607605
O2    O     O_R   0.034730 0.556800 0.569600 -0.587466
O3    O     O_R   0.873600 0.534810 0.430420 -0.605574
O4    O     O_R   0.591590 0.551700 0.500020 -0.638550
O5    O     O_R   0.943150 0.465220 0.569550 -0.594049
O6    O     O_R   0.965270 0.443220 0.430400 -0.593434
O7    O     O_R   0.034830 0.373630 0.569530 -0.595862
O8    O     O_R   0.056850 0.534790 0.430450 -0.619524
O9    O     O_R   0.126400 0.465210 0.569580 -0.597104
O10   O     O_R   0.438430 0.509910 0.376770 -0.590763
O11   O     O_R   0.438360 0.613320 0.376790 -0.606180
O12   O     O_R   0.948250 0.908380 0.499990 -0.592735
O13   O     O_R   0.408410 0.448300 0.499980 -0.596769
O14   O     O_R   0.408340 0.551710 0.500000 -0.614261
O15   O     O_R   0.561640 0.386680 0.623210 -0.612263
O16   O     O_R   0.561570 0.490090 0.623230 -0.568075
O17   O     O_R   0.051700 0.908270 0.500000 -0.607901
O18   O     O_2   0.942581 0.650352 0.620887 -0.627077
O19   O     O_R   0.860729 0.707605 0.627397 -0.747252
O20   O     O_2   0.581342 0.270894 0.995832 -0.572764
O21   O     O_R   0.540484 0.338017 0.857995 -0.795875
O22   O     O_2   0.652846 0.115238 0.003779 -0.571262
O23   O     O_R   0.113330 0.938270 0.623230 -0.605443
O24   O     O_R   0.739576 0.068640 0.141681 -0.813930
O25   O     O_2   0.686047 0.397619 0.011016 -0.571159
O26   O     O_R   0.767602 0.302498 0.147748 -0.781072
O27   O     O_2   0.843859 0.387058 0.997538 -0.556091
O28   O     O_R   0.757185 0.434323 0.859475 -0.734923
O29   O     O_2   0.174994 0.623096 0.174561 -0.595413
O30   O     O_R   0.095071 0.561224 0.137113 -0.734586
O31   O     O_2   0.125471 0.375603 0.485375 -0.651786
O32   O     O_R   0.061496 0.390481 0.358643 -0.743182
O33   O     O_2   0.204155 0.561373 0.598482 -0.567935
O34   O     O_R   0.009880 0.938380 0.623210 -0.581923
O35   O     O_R   0.313526 0.469114 0.705559 -0.725117
O36   O     O_2   0.152984 0.726032 0.701709 -0.566438
O37   O     O_R   0.041347 0.758737 0.680894 -0.780025
O38   O     O_2   0.154124 0.107247 0.881265 -0.563965
O39   O     O_R   0.127726 0.232677 0.810894 -0.768544
O40   O     O_2   0.153569 0.878072 0.007279 -0.551295
O41   O     O_R   0.235883 0.784154 0.144415 -0.775869
O42   O     O_2   0.180063 0.595837 0.000659 -0.567345
O43   O     O_R   0.263741 0.550297 0.138873 -0.766490
O44   O     O_2   0.733590 0.434980 0.696933 -0.574963
O45   O     O_R   0.051750 0.091470 0.500010 -0.610593
O46   O     O_R   0.674288 0.541538 0.667305 -0.724336
O47   O     O_2   0.847743 0.555128 0.767229 -0.571037
O48   O     O_R   0.751843 0.663746 0.664498 -0.750907
O49   O     O_R   0.948300 0.091580 0.500000 -0.590817
O50   O     O_R   0.990120 0.061470 0.376790 -0.607347
O51   O     O_R   0.886670 0.061580 0.376770 -0.598782
O52   O     O_R   0.965170 0.626380 0.430470 -0.620800
Zn1   Zn    Zn3+2 0.500040 0.430950 0.499990 1.075923
Zn2   Zn    Zn3+2 0.499960 0.569050 0.500010 1.052556
Zn3   Zn    Zn3+2 0.069070 0.999850 0.500010 1.060392
Zn4   Zn    Zn3+2 0.930930 1.000000 0.499990 1.087134
Zn5   Zn    Zn3+2 0.953560 0.546470 0.407100 1.079811
Zn6   Zn    Zn3+2 0.046440 0.453550 0.592900 1.128065

loop_
_geom_bond_atom_site_label_1
_geom_bond_atom_site_label_2
_ccdc_geom_bond_type
C9    H21   S    
C66   C68   A    
C21   C26   S    
C63   C65   A    
C34   C56   S    
C23   C45   S    
C12   C74   S    
C27   C29   A    
C1    C8    S    
C48   O9    A    
C35   C36   A    
C86   O40   D    
O8    Zn5   S    
C46   O3    A    
C15   C28   S    
C80   O27   D    
C49   H17   S    
C54   C60   A    
C53   C54   A    
C27   C33   A    
C40   I9    S    
O10   Zn1   S    
C37   C38   A    
C81   O30   S    
C13   C18   S    
C88   O46   S    
C17   C26   T    
O17   Zn3   S    
C22   C24   S    
C48   O8    A    
C36   C37   A    
C43   O51   A    
C42   O49   A    
O6    Zn5   S    
C30   C31   A    
C82   O32   S    
O1    Zn1   S    
C15   C25   T    
C41   O23   A    
C42   O45   A    
H4    O26   S    
O51   Zn4   S    
C39   C57   S    
H22   O19   S    
C2    C90   S    
C18   C19   S    
C43   O50   A    
C14   C24   S    
H11   O41   S    
C84   O37   S    
O7    Zn6   S    
O14   Zn2   S    
C4    O11   A    
C54   C55   A    
C66   C72   A    
C87   O42   D    
C45   C56   S    
C8    C9    A    
O2    Zn6   S    
C61   I3    S    
C73   C78   T    
C70   C71   A    
C32   C38   A    
C74   C87   S    
C3    C75   S    
C9    C10   A    
C38   C48   S    
O52   Zn5   S    
C4    O10   A    
C88   C89   S    
C83   O35   S    
C39   O12   A    
C76   O20   D    
C59   C60   A    
C13   C14   S    
C47   O7    A    
H2    O21   S    
O23   Zn3   S    
C51   I12   S    
H3    O24   S    
C16   O14   A    
O9    Zn6   S    
C23   I6    S    
C19   C25   S    
O34   Zn4   S    
C12   C52   S    
C27   I10   S    
O45   Zn3   S    
O50   Zn3   S    
C12   C67   S    
C13   C77   S    
C88   O44   D    
C71   I5    S    
C36   H16   S    
C64   C67   T    
C7    C8    A    
C19   C22   S    
C76   O21   S    
C1    O4    A    
C10   C11   A    
C44   O52   A    
C6    C11   A    
C82   O31   D    
C68   C69   A    
C58   C59   A    
C49   C55   A    
C42   C69   S    
C75   O19   S    
H10   O39   S    
C51   C53   A    
C14   C76   S    
C2    C89   A    
C17   C43   S    
C29   C81   S    
C29   C30   A    
C70   H19   S    
C58   C84   S    
C41   O34   A    
O5    Zn6   S    
C24   C79   S    
C31   C32   A    
C90   O47   D    
C23   C34   S    
C62   C63   A    
C50   C51   A    
C87   O43   S    
C13   C21   S    
C30   I11   S    
C31   C82   S    
C77   O22   D    
C10   I1    S    
C53   I13   S    
O49   Zn4   S    
H9    O37   S    
C39   O17   A    
C65   C66   A    
C56   I14   S    
H15   O48   S    
C55   C57   A    
C65   I4    S    
C34   C40   S    
C16   O13   A    
C28   O16   A    
H6    O30   S    
C23   C74   S    
C18   I8    S    
C46   O5    A    
H8    O35   S    
C84   O36   D    
C79   O25   D    
C4    C64   S    
C5    H12   S    
C44   O2    A    
O15   Zn1   S    
C14   C19   S    
C50   H18   S    
C86   O41   S    
C1    O1    A    
C20   C22   S    
C12   C45   S    
C3    C5    A    
C77   O24   S    
C80   O28   S    
C6    C7    A    
O16   Zn2   S    
C90   O48   S    
C81   O29   D    
H14   O46   S    
C47   O6    A    
H5    O28   S    
C85   O39   S    
C32   C33   A    
C2    C3    A    
C22   C80   S    
C71   C72   A    
C16   C35   S    
C40   C52   S    
C34   C78   S    
H7    O32   S    
C61   C68   A    
C57   C58   A    
C5    C6    A    
O11   Zn2   S    
C62   H20   S    
C44   C60   S    
C59   I2    S    
C33   C35   A    
C40   C74   S    
C45   C86   S    
C18   C20   S    
O3    Zn5   S    
C61   C62   A    
O12   Zn4   S    
C69   C70   A    
C47   C72   S    
O13   Zn1   S    
C75   O18   D    
C41   C73   S    
O4    Zn2   S    
C83   O33   D    
C20   C21   S    
C49   C50   A    
C21   C24   S    
H13   O43   S    
C85   O38   D    
C37   C83   S    
C11   C46   S    
C28   O15   A    
C52   H1    S    
C20   I7    S    
C63   C85   S    
C52   C56   S    
C79   O26   S    
C7    C89   A    
