data_mof_unit_28701.cif
_audit_creation_date              2012-12-11T17:19:16-0500
_audit_creation_method            fapswitch 2.2
_symmetry_space_group_name_H-M    P1
_symmetry_Int_Tables_number       1
_space_group_crystal_system       triclinic
_cell_length_a                    14.940959
_cell_length_b                    7.273298
_cell_length_c                    13.357728
_cell_angle_alpha                 90.000025
_cell_angle_beta                  100.071404
_cell_angle_gamma                 90.000014
_cell_volume                      1429.21685328

loop_
_atom_site_label
_atom_site_type_symbol
_atom_type_description
_atom_site_fract_x
_atom_site_fract_y
_atom_site_fract_z
_atom_type_partial_charge
O1    O     O_R   0.648180 0.355050 0.151550 -0.534154
O2    O     O_R   0.351820 0.644950 0.848450 -0.537616
O3    O     O_R   0.851820 0.855050 0.348450 -0.534154
O4    O     O_R   0.148180 0.144950 0.651550 -0.537616
O5    O     O_R   0.835240 0.681980 0.154280 -0.544090
O6    O     O_R   0.164760 0.318020 0.845720 -0.525687
O7    O     O_R   0.664760 0.181980 0.345720 -0.544090
O8    O     O_R   0.335240 0.818020 0.654280 -0.525688
C1    C     C_R   0.859478 0.515049 0.128218 0.771289
C2    C     C_R   0.141581 0.483894 0.872958 0.765002
C3    C     C_R   0.640522 0.015049 0.371782 0.771289
C4    C     C_R   0.358419 0.983894 0.627041 0.765003
O9    O     O_R   0.647870 0.684600 0.139630 -0.541703
O10   O     O_R   0.352130 0.315400 0.860370 -0.536635
O11   O     O_R   0.852130 0.184600 0.360370 -0.541703
O12   O     O_R   0.147870 0.815400 0.639630 -0.536634
O13   O     O_R   0.663110 0.857440 0.333700 -0.527466
O14   O     O_R   0.336890 0.142560 0.666300 -0.542948
O15   O     O_R   0.836890 0.357440 0.166300 -0.527465
O16   O     O_R   0.163110 0.642560 0.833700 -0.542948
C5    C     C_R   0.614023 0.516471 0.114531 0.747352
C6    C     C_R   0.385700 0.484077 0.885831 0.743976
C7    C     C_R   0.885977 0.016471 0.385469 0.747353
C8    C     C_R   0.114299 0.984077 0.614169 0.743980
H1    H     H_    0.493700 0.961314 0.762042 0.116913
H2    H     H_    0.507813 0.955071 0.237147 0.119540
H3    H     H_    0.006300 0.461315 0.737958 0.116913
H4    H     H_    0.992187 0.455074 0.262853 0.119540
O17   O     O_3   0.755220 0.522230 0.313690 -0.382480
O18   O     O_3   0.244780 0.477770 0.686310 -0.382237
O19   O     O_3   0.744780 0.022230 0.186310 -0.382480
O20   O     O_3   0.255220 0.977770 0.813690 -0.382237
V1    V     V_3+5 0.749030 0.796100 0.238190 1.410576
V2    V     V_3+5 0.250970 0.203900 0.761810 1.414954
V3    V     V_3+5 0.750970 0.296100 0.261810 1.410576
V4    V     V_3+5 0.249030 0.703900 0.738190 1.414953
C9    C     C_1   0.966784 0.006518 0.465965 -0.201801
C10   C     C_1   0.033737 0.995512 0.533447 -0.201997
C11   C     C_1   0.533216 0.506518 0.034035 -0.201800
C12   C     C_1   0.466263 0.495512 0.966553 -0.201995
C13   C     C_R   0.544512 0.971761 0.713758 -0.143908
C14   C     C_R   0.456664 0.955896 0.285218 -0.148562
C15   C     C_R   0.955488 0.471762 0.786242 -0.143908
C16   C     C_R   0.043335 0.455897 0.214782 -0.148562
C17   C     C_R   0.633822 0.961385 0.762321 -0.210988
C18   C     C_R   0.368632 0.927504 0.236448 -0.212406
C19   C     C_R   0.866178 0.461385 0.737679 -0.210989
C20   C     C_R   0.131368 0.427503 0.263551 -0.212407
C21   C     C_R   0.703355 0.977268 0.707294 -0.147981
C22   C     C_R   0.298242 0.935715 0.290390 -0.144839
C23   C     C_R   0.796644 0.477267 0.792706 -0.147981
C24   C     C_R   0.201758 0.435711 0.209609 -0.144838
C25   C     C_R   0.684909 0.985012 0.600670 0.268194
C26   C     C_R   0.315169 0.949681 0.397025 0.268973
C27   C     C_R   0.815091 0.485011 0.899330 0.268194
C28   C     C_R   0.184830 0.449677 0.102975 0.268973
C29   C     C_R   0.593072 0.994453 0.547616 0.030480
C30   C     C_R   0.406271 0.974053 0.450770 0.025792
C31   C     C_R   0.906928 0.494453 0.952384 0.030479
C32   C     C_R   0.093729 0.474052 0.049230 0.025791
C33   C     C_R   0.521689 0.988399 0.606637 0.019452
C34   C     C_R   0.477929 0.980146 0.391970 0.018850
C35   C     C_R   0.978311 0.488399 0.893363 0.019452
C36   C     C_R   0.022071 0.480146 0.108030 0.018850
C37   C     C_R   0.570112 0.001481 0.439081 -0.161162
C38   C     C_R   0.428801 0.987837 0.559411 -0.162552
C39   C     C_R   0.929888 0.501480 0.060919 -0.161161
C40   C     C_R   0.071199 0.487836 0.940589 -0.162551
H5    H     H_    0.649107 0.940278 0.843694 0.127705
H6    H     H_    0.354818 0.902410 0.155362 0.127045
H7    H     H_    0.850893 0.440277 0.656306 0.127705
H8    H     H_    0.145182 0.402410 0.344637 0.127045
H9    H     H_    0.229696 0.922162 0.248587 0.130523
H10   H     H_    0.772749 0.971099 0.747709 0.132136
H11   H     H_    0.270303 0.422155 0.251412 0.130525
H12   H     H_    0.727250 0.471098 0.752292 0.132136
N1    N     N_2   0.758891 0.957555 0.548732 -0.540059
H13   H     H_    0.805204 0.063825 0.560774 0.239162
C41   C     C_3   0.801809 0.779750 0.569589 -0.520672
H14   H     H_    0.847291 0.747672 0.515532 0.210491
H15   H     H_    0.749749 0.669055 0.563287 0.199721
H16   H     H_    0.844355 0.780772 0.646353 0.186047
N2    N     N_2   0.240590 0.922863 0.448323 -0.537936
H17   H     H_    0.196821 0.033557 0.439670 0.235132
C42   C     C_3   0.193629 0.750028 0.423211 -0.505796
H18   H     H_    0.143623 0.722246 0.472574 0.206037
H19   H     H_    0.243086 0.634464 0.431715 0.198402
H20   H     H_    0.154057 0.755569 0.345045 0.181927
N3    N     N_2   0.741109 0.457554 0.951268 -0.540059
H21   H     H_    0.694797 0.563825 0.939227 0.239162
C43   C     C_3   0.698190 0.279749 0.930411 -0.520674
H22   H     H_    0.652710 0.247670 0.984469 0.210492
H23   H     H_    0.750250 0.169055 0.936710 0.199720
H24   H     H_    0.655643 0.280774 0.853648 0.186047
N4    N     N_2   0.259409 0.422857 0.051676 -0.537933
H25   H     H_    0.303178 0.533551 0.060327 0.235131
C44   C     C_3   0.306371 0.250023 0.076790 -0.505795
H26   H     H_    0.356371 0.222234 0.027421 0.206042
H27   H     H_    0.256913 0.134459 0.068295 0.198398
H28   H     H_    0.345949 0.255572 0.154954 0.181926

loop_
_geom_bond_atom_site_label_1
_geom_bond_atom_site_label_2
_ccdc_geom_bond_type
C30   C34   A    
C28   N4    S    
C16   C20   A    
O1    C5    A    
C27   C31   A    
O3    C7    A    
N4    H25   S    
C13   C33   A    
C24   H11   S    
O6    V2    S    
C44   H26   S    
C15   C35   A    
N1    H13   S    
C16   C36   A    
O7    C3    A    
O1    V3    S    
C22   C26   A    
O8    V4    S    
O4    C8    A    
O3    V1    S    
C14   C18   A    
C31   C39   A    
C33   C38   A    
C30   C38   A    
C2    O16   A    
O5    V1    S    
O2    C6    A    
C8    C10   S    
O19   V1    S    
N3    C43   S    
C14   C34   A    
O11   C7    A    
O12   C8    A    
O13   V1    S    
C20   H8    S    
O11   V3    S    
C26   N2    S    
C44   H27   S    
C1    O15   A    
N1    C41   S    
O4    V2    S    
C42   H19   S    
C17   H5    S    
C36   C39   A    
C23   H12   S    
C22   H9    S    
H1    C13   S    
C43   H22   S    
C41   H15   S    
C25   C29   A    
C19   C23   A    
C42   H18   S    
C4    C38   S    
H4    C16   S    
C28   C32   A    
O20   V2    S    
C25   N1    S    
C1    C39   S    
O5    C1    A    
C9    C10   T    
C7    C9    S    
C43   H23   S    
N2    H17   S    
C5    C11   S    
C17   C21   A    
O8    C4    A    
C6    C12   S    
O9    C5    A    
O14   V2    S    
C19   H7    S    
N2    C42   S    
C11   C12   T    
C44   H28   S    
H2    C14   S    
C26   C30   A    
C42   H20   S    
O2    V4    S    
O17   V3    S    
C35   C40   A    
C3    O13   A    
C34   C37   A    
O7    V3    S    
C29   C37   A    
O10   V2    S    
C41   H16   S    
N4    C44   S    
C29   C33   A    
C2    C40   S    
C18   C22   A    
C31   C35   A    
O18   V4    S    
C32   C36   A    
O10   C6    A    
C27   N3    S    
O15   V3    S    
O12   V4    S    
C43   H24   S    
C24   C28   A    
C21   C25   A    
C23   C27   A    
C18   H6    S    
O6    C2    A    
C41   H14   S    
O16   V4    S    
H3    C15   S    
C20   C24   A    
C32   C40   A    
O9    V1    S    
C4    O14   A    
C13   C17   A    
C21   H10   S    
N3    H21   S    
C15   C19   A    
C3    C37   S    
