data_mof_unit_56549.cif
_audit_creation_date              2012-12-10T20:42:42-0500
_audit_creation_method            fapswitch 2.2
_symmetry_space_group_name_H-M    P1
_symmetry_Int_Tables_number       1
_space_group_crystal_system       triclinic
_cell_length_a                    8.887208
_cell_length_b                    10.692044
_cell_length_c                    9.952792
_cell_angle_alpha                 88.504503
_cell_angle_beta                  89.850414
_cell_angle_gamma                 90.961661
_cell_volume                      945.278673325

loop_
_atom_site_label
_atom_site_type_symbol
_atom_type_description
_atom_site_fract_x
_atom_site_fract_y
_atom_site_fract_z
_atom_type_partial_charge
C1    C     C_R   0.508725 0.260750 0.501673 0.962569
C2    C     C_R   0.368035 0.492303 0.930050 0.074509
C3    C     C_3   0.244089 0.395800 0.924866 -0.437555
C4    C     C_R   0.219038 0.499638 0.500085 0.966005
C5    C     C_3   0.248840 0.390856 0.079729 0.740245
C6    C     C_R   0.508217 0.739687 0.498744 0.868299
C7    C     C_R   0.780979 0.500102 0.499895 0.865837
C8    C     C_1   0.065505 0.499600 0.500063 -0.097934
C9    C     C_1   0.934492 0.499781 0.499792 -0.111993
C10   C     C_R   0.492639 0.058832 0.618554 0.096932
C11   C     C_R   0.537965 0.130201 0.506556 -0.243208
C12   C     C_R   0.614955 0.939791 0.398711 -0.091428
C13   C     C_R   0.617577 0.071424 0.402135 0.430996
C14   C     C_2   0.707232 0.875080 0.298975 0.566102
C15   C     C_2   0.221184 0.117079 0.679739 0.275807
C16   C     C_2   0.421106 0.103051 0.857614 0.473606
C17   C     C_2   0.098835 0.445257 0.867726 0.598692
C18   C     C_R   0.534062 0.871752 0.500079 -0.312407
C19   C     C_R   0.490489 0.932874 0.614218 0.148057
C20   C     C_3   0.363696 0.915674 0.711797 0.151053
C21   C     C_3   0.368147 0.059152 0.722394 -0.146454
C22   C     C_R   0.368599 0.490830 0.071537 0.070665
C23   C     C_R   0.626869 0.529897 0.069579 0.416112
C24   C     C_R   0.626159 0.531918 0.927026 0.464840
H1    H     H_    0.279962 0.309933 0.875799 0.122857
H2    H     H_    0.721662 0.631273 0.196817 0.350826
H3    H     H_    0.714084 0.639494 0.792671 0.369454
H4    H     H_    0.003296 0.381780 0.857419 0.069394
H5    H     H_    0.260997 0.874414 0.664944 0.118689
H6    H     H_    0.736785 0.217197 0.345404 0.333990
H7    H     H_    0.043087 0.363861 0.138435 0.358598
H8    H     H_    0.398167 0.258244 0.098170 0.337356
H9    H     H_    0.762709 0.789465 0.328940 0.001947
H10   H     H_    0.318920 0.836550 0.883678 0.347639
H11   H     H_    0.128522 0.118031 0.750934 0.078553
H12   H     H_    0.352818 0.081720 0.946056 0.080564
N1    N     N_R   0.499010 0.499140 0.142800 -0.211557
N2    N     N_R   0.499010 0.499180 0.857150 -0.178266
O1    O     O_R   0.500020 0.316790 0.614690 -0.590883
O2    O     O_3   0.118491 0.433132 0.142923 -0.681974
O3    O     O_3   0.297816 0.276418 0.136342 -0.729590
O4    O     O_2   0.724001 0.917243 0.184617 -0.469961
O5    O     O_3   0.410811 0.850793 0.828210 -0.708550
O6    O     O_2   0.202877 0.160728 0.566507 -0.548089
O7    O     O_2   0.539069 0.162027 0.869442 -0.536452
O8    O     O_3   0.755452 0.570295 0.131142 -0.662261
O9    O     O_3   0.751347 0.579467 0.861800 -0.667008
O10   O     O_2   0.086111 0.555332 0.834298 -0.498013
O11   O     O_R   0.500000 0.316760 0.385350 -0.570189
O12   O     O_R   0.285350 0.500020 0.614650 -0.602080
O13   O     O_R   0.285340 0.499980 0.385310 -0.555097
O14   O     O_R   0.500000 0.683240 0.614650 -0.584364
O15   O     O_R   0.499980 0.683210 0.385310 -0.646014
O16   O     O_R   0.714660 0.500020 0.614690 -0.605797
O17   O     O_R   0.714650 0.499980 0.385350 -0.618339
O18   O     O_3   0.699795 0.138455 0.305768 -0.678001
Zn1   Zn    Zn3+2 0.500010 0.500020 0.653130 1.020710
Zn2   Zn    Zn3+2 0.499990 0.499980 0.346870 1.022560

loop_
_geom_bond_atom_site_label_1
_geom_bond_atom_site_label_2
_ccdc_geom_bond_type
C16   O7    D    
C2    C22   A    
C24   N2    A    
H8    O3    S    
C16   C21   S    
C5    C22   S    
O15   Zn2   S    
N2    Zn1   S    
C23   O8    S    
C2    N2    A    
N1    Zn2   S    
C1    C11   S    
C17   O10   D    
C7    O17   A    
C10   C19   A    
C4    C8    S    
C13   O18   S    
C17   H4    S    
C14   H9    S    
C2    C3    S    
C23   C24   A    
O13   Zn2   S    
C23   N1    A    
C14   O4    D    
C12   C13   A    
C24   O9    S    
C11   C13   A    
C15   C21   S    
C1    O11   A    
C15   H11   S    
C12   C14   S    
C15   O6    D    
C3    C17   S    
C20   H5    S    
C10   C21   S    
C6    C18   S    
C6    O15   A    
C5    O2    S    
C10   C11   A    
H2    O8    S    
O12   Zn1   S    
C12   C18   A    
O1    Zn1   S    
C3    H1    S    
C20   O5    S    
H7    O2    S    
C18   C19   A    
O14   Zn1   S    
O17   Zn2   S    
H3    O9    S    
C7    C9    S    
C1    O1    A    
C5    O3    S    
C4    O13   A    
C7    O16   A    
C6    O14   A    
C20   C21   S    
H10   O5    S    
C22   N1    A    
H6    O18   S    
C16   H12   S    
O11   Zn2   S    
C19   C20   S    
C4    O12   A    
C8    C9    T    
C3    C5    S    
O16   Zn1   S    
