data_mof_unit_13895.cif
_audit_creation_date              2012-12-10T20:27:53-0500
_audit_creation_method            fapswitch 2.2
_symmetry_space_group_name_H-M    P1
_symmetry_Int_Tables_number       1
_space_group_crystal_system       triclinic
_cell_length_a                    12.897609
_cell_length_b                    10.682424
_cell_length_c                    9.859633
_cell_angle_alpha                 89.713054
_cell_angle_beta                  96.934826
_cell_angle_gamma                 90.25118
_cell_volume                      1348.4730026

loop_
_atom_site_label
_atom_site_type_symbol
_atom_type_description
_atom_site_fract_x
_atom_site_fract_y
_atom_site_fract_z
_atom_type_partial_charge
C1    C     C_R   0.503922 0.259874 0.500683 0.877293
C2    C     C_R   0.028942 0.515222 0.564541 0.189403
C3    C     C_R   0.970945 0.499071 0.434891 0.188389
C4    C     C_R   0.863898 0.492719 0.424742 -0.279692
C5    C     C_R   0.871116 0.518721 0.670968 -0.203973
C6    C     C_R   0.979001 0.525037 0.682167 -0.225889
C7    C     C_R   0.548833 0.063171 0.622922 0.031048
C8    C     C_R   0.522123 0.128627 0.501077 -0.109502
C9    C     C_R   0.517867 0.065267 0.376028 -0.199186
C10   C     C_R   0.517736 0.936138 0.375517 -0.226223
C11   C     C_R   0.521574 0.871300 0.499998 -0.082809
C12   C     C_R   0.298167 0.501817 0.473494 0.884162
C13   C     C_R   0.547651 0.935147 0.622148 0.103945
C14   C     C_3   0.505395 0.926007 0.756453 -0.550532
C15   C     C_3   0.507371 0.068544 0.758164 -0.188685
C16   C     C_R   0.409472 0.480750 0.057140 0.206762
C17   C     C_R   0.587537 0.530221 0.085450 -0.102619
C18   C     C_R   0.587603 0.529936 0.941589 -0.090666
C19   C     C_R   0.409178 0.482026 0.914540 0.217346
C20   C     C_3   0.339669 0.369973 0.897743 -0.476262
C21   C     C_3   0.341880 0.366917 0.051929 -0.480449
C22   C     C_R   0.503591 0.740070 0.500032 0.879707
C23   C     C_R   0.701840 0.500214 0.526517 0.881689
C24   C     C_R   0.813907 0.502968 0.542062 -0.049733
C25   C     C_R   0.186073 0.505399 0.457803 -0.049626
C26   C     C_R   0.020752 0.489294 0.317260 -0.223403
C27   C     C_R   0.128608 0.492538 0.328764 -0.204520
C28   C     C_R   0.136143 0.519802 0.574700 -0.288443
H1    H     H_    0.819815 0.479836 0.324897 0.156849
H2    H     H_    0.561597 0.880389 0.835862 0.193759
H3    H     H_    0.428290 0.110542 0.752073 0.167276
H4    H     H_    0.658678 0.553090 0.150202 0.138427
H5    H     H_    0.658741 0.552166 0.898614 0.130919
H6    H     H_    0.261301 0.392526 0.843952 0.180708
H7    H     H_    0.377645 0.288343 0.856194 0.240890
H8    H     H_    0.264429 0.385757 0.085412 0.180271
H9    H     H_    0.383184 0.284106 0.100870 0.235710
H10   H     H_    0.832708 0.527089 0.762302 0.154201
H11   H     H_    0.023154 0.537250 0.781991 0.134706
H12   H     H_    0.166701 0.483769 0.237513 0.152066
H13   H     H_    0.505988 0.114015 0.278784 0.189468
H14   H     H_    0.505902 0.888465 0.278105 0.174789
H15   H     H_    0.424931 0.886480 0.746874 0.208981
N1    N     N_R   0.499290 0.499140 0.142710 -0.101824
N2    N     N_R   0.499290 0.499180 0.857070 -0.093622
O1    O     O_R   0.500010 0.316790 0.614690 -0.608113
O2    O     O_R   0.500000 0.316760 0.385350 -0.614764
O3    O     O_R   0.346360 0.499990 0.595720 -0.628287
O4    O     O_R   0.346350 0.499960 0.366370 -0.625435
O5    O     O_R   0.500000 0.683240 0.614650 -0.619549
O6    O     O_R   0.499990 0.683210 0.385310 -0.627733
O7    O     O_R   0.653650 0.500040 0.633630 -0.631711
O8    O     O_R   0.653640 0.500010 0.404280 -0.630513
Zn1   Zn    Zn3+2 0.500010 0.500020 0.653130 0.955922
Zn2   Zn    Zn3+2 0.499990 0.499980 0.346870 0.952343
C29   C     C_2   0.586594 0.121315 0.867720 0.457028
H16   H     H_    0.667376 0.090948 0.876201 0.059417
O9    O     O_2   0.560791 0.198113 0.948292 -0.598650
H17   H     H_    0.976567 0.477952 0.217322 0.136017
H18   H     H_    0.180403 0.533386 0.674178 0.152924

loop_
_geom_bond_atom_site_label_1
_geom_bond_atom_site_label_2
_ccdc_geom_bond_type
C23   C24   S    
C19   N2    A    
C12   O4    A    
C16   C21   S    
C27   H12   S    
C10   H14   S    
C1    C8    S    
C9    C10   A    
C16   N1    A    
C11   C22   S    
C9    H13   S    
C19   C20   S    
C14   C15   S    
C22   O5    A    
C12   C25   S    
C12   O3    A    
C20   H6    S    
C15   C29   S    
O1    Zn1   S    
C7    C15   S    
C17   C18   A    
C23   O7    A    
C17   N1    A    
C7    C8    A    
C21   H8    S    
C2    C6    A    
C13   C14   S    
C29   H16   S    
C25   C28   A    
O3    Zn1   S    
C11   C13   A    
N1    Zn2   S    
C26   C27   A    
O5    Zn1   S    
C5    C24   A    
C14   H2    S    
C16   C19   A    
O7    Zn1   S    
N2    Zn1   S    
C23   O8    A    
C2    C3    A    
C28   H18   S    
C5    C6    A    
C4    C24   A    
C18   H5    S    
C1    O1    A    
C22   O6    A    
C25   C27   A    
C10   C11   A    
O8    Zn2   S    
C3    C4    A    
C18   N2    A    
C7    C13   A    
C21   H9    S    
C20   C21   S    
O2    Zn2   S    
C26   H17   S    
C17   H4    S    
C6    H11   S    
C8    C9    A    
C2    C28   A    
O6    Zn2   S    
C5    H10   S    
C20   H7    S    
C15   H3    S    
C3    C26   A    
C1    O2    A    
C4    H1    S    
C29   O9    D    
C14   H15   S    
O4    Zn2   S    
