data_mof_unit_47672.cif
_audit_creation_date              2012-12-10T17:03:24-0500
_audit_creation_method            fapswitch 2.2
_symmetry_space_group_name_H-M    P1
_symmetry_Int_Tables_number       1
_space_group_crystal_system       triclinic
_cell_length_a                    15.000786
_cell_length_b                    11.040163
_cell_length_c                    9.884809
_cell_angle_alpha                 111.498564
_cell_angle_beta                  98.762848
_cell_angle_gamma                 90.403179
_cell_volume                      1501.83930466

loop_
_atom_site_label
_atom_site_type_symbol
_atom_type_description
_atom_site_fract_x
_atom_site_fract_y
_atom_site_fract_z
_atom_type_partial_charge
C1    C     C_R   0.493579 0.254040 0.440418 0.843461
C2    C     C_R   0.506413 0.745961 0.559581 0.844692
C3    C     C_R   0.030792 0.259104 0.373358 -0.042900
C4    C     C_R   0.961336 0.738273 0.542941 -0.025549
C5    C     C_2   0.489891 0.114343 0.406909 -0.323555
C6    C     C_2   0.509871 0.885662 0.593113 -0.324250
C7    C     C_2   0.501121 0.069664 0.516302 -0.121239
C8    C     C_2   0.498096 0.930352 0.483736 -0.116650
C9    C     C_2   0.508837 0.506290 0.080003 -0.003388
C10   C     C_2   0.491201 0.493646 0.919975 -0.006576
C11   C     C_R   0.329160 0.499274 0.500460 0.779793
C12   C     C_R   0.670871 0.501275 0.499442 0.781050
C13   C     C_R   0.820327 0.623131 0.553600 -0.043772
C14   C     C_R   0.182171 0.380308 0.471628 -0.052633
C15   C     C_R   0.767191 0.504810 0.496827 -0.123383
C16   C     C_R   0.232537 0.496862 0.499610 -0.122029
C17   C     C_R   0.804654 0.386948 0.433093 -0.206459
C18   C     C_R   0.190977 0.612554 0.519845 -0.205354
C19   C     C_R   0.897678 0.382003 0.431331 0.053646
C20   C     C_R   0.097667 0.617355 0.518790 0.051309
C21   C     C_R   0.951168 0.501084 0.478706 0.023930
C22   C     C_R   0.044927 0.498688 0.479451 0.024636
C23   C     C_R   0.910696 0.622660 0.526398 0.073189
C24   C     C_R   0.086327 0.377632 0.441724 0.075199
C25   C     C_R   0.936769 0.261011 0.374479 -0.104908
C26   C     C_R   0.055748 0.736618 0.545776 -0.095810
Cu1   Cu    Cu3+1 0.515770 0.521810 0.644910 0.962331
Cu2   Cu    Cu3+1 0.484230 0.478190 0.355090 0.968675
H1    H     H_    0.760017 0.299064 0.389539 0.134390
H2    H     H_    0.233394 0.698915 0.539062 0.131334
H3    H     H_    0.521972 0.952363 0.707716 0.180503
H4    H     H_    0.478082 0.047633 0.292309 0.180391
N1    N     N_2   0.460520 0.445420 0.137370 -0.258633
N2    N     N_2   0.539480 0.554580 0.862630 -0.260918
O1    O     O_R   0.508410 0.332340 0.577400 -0.582734
O2    O     O_R   0.491590 0.667660 0.422600 -0.580730
O3    O     O_R   0.481780 0.295500 0.332650 -0.576565
O4    O     O_R   0.518220 0.704500 0.667350 -0.579774
O5    O     O_R   0.383570 0.518390 0.622380 -0.579919
O6    O     O_R   0.616430 0.481610 0.377620 -0.569407
O7    O     O_R   0.356940 0.481550 0.377630 -0.592725
O8    O     O_R   0.643060 0.518450 0.622370 -0.603951
C27   C     C_2   0.782755 0.741290 0.652549 0.421600
H5    H     H_    0.711796 0.758175 0.630788 0.062185
O9    O     O_2   0.830083 0.817596 0.763342 -0.516612
C28   C     C_2   0.231089 0.269453 0.491551 0.429426
H6    H     H_    0.297510 0.250535 0.460984 0.057325
O10   O     O_2   0.199342 0.202303 0.549361 -0.511276
C29   C     C_2   0.878873 0.136649 0.315200 0.362470
H7    H     H_    0.833386 0.116950 0.381285 0.105125
O11   O     O_2   0.879635 0.057480 0.190910 -0.486137
C30   C     C_2   0.110852 0.859216 0.575347 0.357548
H8    H     H_    0.171087 0.887224 0.659040 0.103887
O12   O     O_2   0.090890 0.927479 0.503622 -0.526941
C31   C     C_2   0.068082 0.134739 0.287748 0.535589
H9    H     H_    0.045657 0.043300 0.293264 0.146707
O13   O     O_2   0.121987 0.133218 0.206262 -0.550332
C32   C     C_2   0.915953 0.857838 0.543024 0.496955
H10   H     H_    0.945309 0.953644 0.617262 0.106636
O14   O     O_2   0.846798 0.850035 0.456336 -0.546725
H11   H     H_    0.486128 0.863916 0.368941 0.204076
H12   H     H_    0.512808 0.136104 0.631095 0.204495
H13   H     H_    0.436317 0.427337 0.845217 0.189353
H14   H     H_    0.563774 0.572507 0.154715 0.190810
C33   C     C_2   0.606538 0.656218 0.951408 0.581044
H15   H     H_    0.668496 0.665257 0.910919 0.086929
O15   O     O_2   0.592262 0.740501 0.065639 -0.580242
C34   C     C_2   0.393344 0.343991 0.048530 0.573629
H16   H     H_    0.331237 0.335348 0.088794 0.082810
O16   O     O_2   0.407636 0.259497 0.934457 -0.585051

loop_
_geom_bond_atom_site_label_1
_geom_bond_atom_site_label_2
_ccdc_geom_bond_type
C12   O6    A    
C4    C26   A    
C27   H5    S    
C7    H12   S    
C4    C32   S    
C18   H2    S    
C26   C30   S    
C9    H14   S    
C17   H1    S    
C11   C16   S    
C2    O4    A    
C14   C24   A    
C18   C20   A    
C10   H13   S    
C12   C15   S    
C1    O3    A    
C8    H11   S    
C31   H9    S    
C5    H4    S    
Cu1   O1    S    
C29   O11   D    
C13   C15   A    
C6    H3    S    
C7    C8    S    
C10   N2    D    
C21   C22   A    
C9    N1    D    
C27   O9    D    
Cu1   O8    S    
C1    O1    A    
C3    C24   A    
C2    C6    S    
C12   O8    A    
C20   C26   A    
Cu2   O3    S    
C1    C5    S    
N2    C33   S    
C16   C18   A    
C19   C21   A    
C20   C22   A    
Cu2   N1    S    
C11   O7    A    
C22   C24   A    
C31   O13   D    
Cu1   N2    S    
C19   C25   A    
C29   H7    S    
C14   C16   A    
Cu1   O5    S    
Cu2   O6    S    
Cu1   O4    S    
C32   O14   D    
C28   O10   D    
C11   O5    A    
Cu2   O7    S    
C13   C27   S    
C3    C25   A    
C30   H8    S    
C13   C23   A    
C34   O16   D    
C33   H15   S    
C9    C10   S    
C2    O2    A    
Cu1   Cu2   S    
C5    C7    D    
C4    C23   A    
C28   H6    S    
Cu2   O2    S    
C6    C8    D    
C14   C28   S    
C17   C19   A    
C32   H10   S    
C15   C17   A    
C3    C31   S    
C21   C23   A    
N1    C34   S    
C30   O12   D    
C34   H16   S    
C33   O15   D    
C25   C29   S    
