data_mof_unit_6029.cif
_audit_creation_date              2013-03-05T16:07:26-0500
_audit_creation_method            fapswitch 2.2
_symmetry_space_group_name_H-M    P1
_symmetry_Int_Tables_number       1
_space_group_crystal_system       triclinic
_cell_length_a                    19.440987
_cell_length_b                    7.090636
_cell_length_c                    17.562702
_cell_angle_alpha                 90.095047
_cell_angle_beta                  108.614958
_cell_angle_gamma                 90.171956
_cell_volume                      2294.3267998

loop_
_atom_site_label
_atom_site_type_symbol
_atom_site_description
_atom_site_fract_x
_atom_site_fract_y
_atom_site_fract_z
_atom_type_partial_charge
O1    O     O_R   0.413720 0.494330 0.415730 -0.581649
O2    O     O_R   0.586280 0.994330 0.584270 -0.547962
O3    O     O_R   0.560210 0.819300 0.430070 -0.566949
O4    O     O_R   0.439790 0.319300 0.569930 -0.568390
C1    C     C_R   0.582902 0.655933 0.416224 1.070845
C2    C     C_R   0.417194 0.155763 0.583889 1.066826
O5    O     O_R   0.412670 0.823730 0.406310 -0.605482
O6    O     O_R   0.587330 0.323730 0.593690 -0.584995
O7    O     O_R   0.437690 0.998790 0.560340 -0.602294
O8    O     O_R   0.562310 0.498790 0.439660 -0.599052
C3    C     C_R   0.384670 0.654828 0.384522 1.007549
C4    C     C_R   0.615790 0.155812 0.614884 1.045896
O9    O     O_3   0.508380 0.662350 0.550560 -0.251790
O10   O     O_3   0.491620 0.162350 0.449440 -0.304671
V1    V     V_3+5 0.498450 0.935370 0.490620 1.295421
V2    V     V_3+5 0.501550 0.435370 0.509380 1.298894
C5    C     C_R   0.706096 0.984044 0.727082 0.008174
C6    C     C_R   0.306808 0.525631 0.251817 -0.100595
C7    C     C_R   0.687354 0.145548 0.679064 -0.335408
C8    C     C_R   0.314927 0.645784 0.317663 -0.306321
C9    C     C_R   0.741570 0.289996 0.693428 0.596980
C10   C     C_R   0.255564 0.769660 0.312556 0.636878
C11   C     C_R   0.805290 0.277658 0.760852 -0.104537
C12   C     C_R   0.191394 0.759506 0.245412 -0.194239
H1    H     H_    0.844180 0.392516 0.772466 0.160967
H2    H     H_    0.146473 0.851321 0.243718 0.170729
C13   C     C_R   0.819518 0.119064 0.812058 -0.287824
C14   C     C_R   0.182980 0.624946 0.183791 -0.236041
C15   C     C_R   0.770948 0.967849 0.789285 -0.134919
C16   C     C_R   0.243796 0.517930 0.186927 -0.000369
C17   C     C_3   0.738347 0.834277 0.834998 0.739799
C18   C     C_3   0.256106 0.319695 0.165831 0.745571
C19   C     C_3   0.666126 0.852176 0.765350 0.558857
C20   C     C_3   0.325074 0.323837 0.239850 0.576767
C21   C     C_R   0.314375 0.294952 0.624491 0.312905
C22   C     C_R   0.685800 0.796161 0.375563 0.314016
C23   C     C_R   0.366035 0.149752 0.631093 -0.323816
C24   C     C_R   0.634198 0.650029 0.369167 -0.333904
C25   C     C_R   0.370220 0.000476 0.684696 -0.124587
C26   C     C_R   0.630367 0.499340 0.316092 -0.121991
C27   C     C_R   0.324577 0.993837 0.732332 0.131227
C28   C     C_R   0.676024 0.492576 0.268509 0.127206
C29   C     C_R   0.273913 0.139228 0.727164 0.027786
C30   C     C_R   0.726545 0.638994 0.273362 0.029554
C31   C     C_R   0.268876 0.291101 0.673438 -0.021375
C32   C     C_R   0.731425 0.792026 0.326748 -0.021459
C33   C     C_R   0.329346 0.844216 0.785702 -0.145439
C34   C     C_R   0.671389 0.341777 0.215492 -0.145142
C35   C     C_R   0.284458 0.837744 0.833840 -0.115575
C36   C     C_R   0.716217 0.335260 0.167307 -0.117898
C37   C     C_R   0.232753 0.979934 0.829147 -0.036474
C38   C     C_R   0.767789 0.478491 0.171685 -0.038396
C39   C     C_R   0.227810 0.131872 0.775478 0.033181
C40   C     C_R   0.772678 0.631457 0.225099 0.035061
C41   C     C_R   0.177126 0.277206 0.770239 0.165898
C42   C     C_R   0.823300 0.777677 0.230092 0.160078
C43   C     C_R   0.172561 0.427252 0.717134 -0.195445
C44   C     C_R   0.827784 0.928761 0.282932 -0.192451
C45   C     C_R   0.217412 0.433721 0.668997 -0.140283
C46   C     C_R   0.782857 0.935492 0.330983 -0.143873
C47   C     C_R   0.186827 0.975497 0.877664 0.326592
C48   C     C_R   0.813588 0.474134 0.123043 0.316889
C49   C     C_R   0.134824 0.120156 0.870606 -0.316937
C50   C     C_R   0.865510 0.619725 0.129810 -0.284842
C51   C     C_R   0.131118 0.269995 0.817396 -0.198051
C52   C     C_R   0.869284 0.770371 0.182907 -0.187020
H3    H     H_    0.410087 0.890274 0.690236 0.189918
H4    H     H_    0.590802 0.387918 0.310957 0.201969
H5    H     H_    0.368127 0.731760 0.790451 0.165425
H6    H     H_    0.632717 0.228499 0.211009 0.167692
H7    H     H_    0.290816 0.720244 0.874661 0.195364
H8    H     H_    0.709923 0.216890 0.126713 0.195874
H9    H     H_    0.091233 0.380216 0.811654 0.168855
H10   H     H_    0.909130 0.881305 0.188458 0.167696
H11   H     H_    0.133861 0.539865 0.712469 0.143546
H12   H     H_    0.866441 0.042065 0.287411 0.144027
H13   H     H_    0.211124 0.551383 0.628266 0.184074
H14   H     H_    0.789041 0.054056 0.371462 0.182462
O11   O     O_R   0.937800 0.775460 0.060470 -0.580411
O12   O     O_R   0.062200 0.275460 0.939530 -0.592544
O13   O     O_R   0.087350 0.441340 0.093710 -0.570045
O14   O     O_R   0.912650 0.941340 0.906290 -0.610409
C53   C     C_R   0.114651 0.610667 0.116093 1.007055
C54   C     C_R   0.885406 0.109758 0.883471 1.043112
O15   O     O_R   0.939820 0.446010 0.069950 -0.574278
O16   O     O_R   0.060180 0.946010 0.930050 -0.569397
O17   O     O_R   0.913690 0.271230 0.915700 -0.586514
O18   O     O_R   0.086310 0.771230 0.084300 -0.578075
C55   C     C_R   0.917155 0.613739 0.083100 0.993183
C56   C     C_R   0.082968 0.113894 0.917051 0.991569
O19   O     O_3   0.991670 0.603050 0.949510 -0.295792
O20   O     O_3   0.008330 0.103050 0.050490 -0.263763
V3    V     V_3+5 0.001550 0.329940 0.009370 1.255715
V4    V     V_3+5 0.998450 0.829940 0.990630 1.245310
O21   O     O_3   0.735151 0.444663 0.644175 -0.689157
H15   H     H_    0.704868 0.409126 0.589152 0.327668
O22   O     O_3   0.255446 0.894386 0.372984 -0.686855
H16   H     H_    0.293242 0.857665 0.423375 0.329335
N1    N     N_R   0.195194 0.829796 0.936551 0.236227
O23   O     O_R   0.178507 0.656124 0.914122 -0.432685
O24   O     O_R   0.215012 0.872688 0.012558 -0.384020
N2    N     N_R   0.804998 0.327867 0.064111 0.233905
O25   O     O_R   0.821725 0.154630 0.086459 -0.411871
O26   O     O_R   0.785291 0.370097 0.988143 -0.374294
O27   O     O_3   0.736917 0.903403 0.909887 -0.692763
H17   H     H_    0.723978 0.039153 0.903948 0.348411
O28   O     O_3   0.269348 0.306843 0.091861 -0.704228
H18   H     H_    0.222054 0.328761 0.049642 0.341345
O29   O     O_3   0.768460 0.653223 0.841205 -0.695611
H19   H     H_    0.816788 0.660844 0.883011 0.350123
O30   O     O_3   0.202379 0.193949 0.172338 -0.719114
H20   H     H_    0.217340 0.067632 0.159251 0.356471
N3    N     N_R   0.606830 0.937128 0.788694 0.208135
O31   O     O_R   0.573147 0.836288 0.827640 -0.351619
O32   O     O_R   0.589292 0.113687 0.774623 -0.442660
N4    N     N_R   0.392676 0.299730 0.220641 0.232750
O33   O     O_R   0.439365 0.437156 0.231247 -0.418970
O34   O     O_R   0.408473 0.135495 0.197701 -0.329378
O35   O     O_3   0.644315 0.687615 0.719242 -0.673487
H21   H     H_    0.631563 0.593662 0.754397 0.361125
O36   O     O_3   0.319682 0.203652 0.301258 -0.704846
H22   H     H_    0.368752 0.192849 0.340939 0.352878
N5    N     N_R   0.305862 0.440589 0.565538 0.226042
O37   O     O_R   0.323227 0.613977 0.587929 -0.443861
O38   O     O_R   0.285683 0.397641 0.489514 -0.390786
N6    N     N_R   0.694272 0.942754 0.434351 0.225728
O39   O     O_R   0.676956 0.115585 0.411794 -0.443669
O40   O     O_R   0.714507 0.901197 0.510417 -0.403989

loop_
_geom_bond_atom_site_label_1
_geom_bond_atom_site_label_2
_geom_bond_distance
_ccdc_geom_bond_type
C16   C18   1.492379 S    
C49   C51   1.402873 A    
N6    O39   1.300386 A    
O14   V4    2.008677 S    
C18   O30   1.403551 S    
C13   C15   1.397365 A    
C5    C15   1.384990 A    
O21   H15   0.989451 S    
O1    C3    1.312548 A    
C54   O17   1.314913 A    
O2    C4    1.313907 A    
C45   H13   1.081423 S    
C2    O7    1.294232 A    
O22   H16   0.988787 S    
C44   H12   1.083906 S    
N5    O37   1.300485 A    
C33   C35   1.396174 A    
O5    C3    1.318569 A    
C46   H14   1.081419 S    
C5    C19   1.503639 S    
C13   C54   1.480967 S    
C7    C9    1.430570 A    
C12   H2    1.083657 S    
C43   C45   1.395565 A    
C44   C46   1.395714 A    
C52   H10   1.084525 S    
C51   H9    1.084531 S    
N4    O33   1.301636 A    
C4    C7    1.487003 S    
C47   C49   1.419923 A    
C36   H8    1.081401 S    
C33   H5    1.083931 S    
C48   C50   1.419679 A    
O16   V4    2.015361 S    
C41   C51   1.400496 A    
O15   V3    2.016861 S    
C29   C39   1.418259 A    
O30   H20   0.991568 S    
C42   C44   1.400337 A    
C14   C16   1.393077 A    
C35   C37   1.409680 A    
C18   O28   1.405539 S    
C37   C47   1.417691 A    
C36   C38   1.409603 A    
O28   H18   0.992636 S    
C17   C19   1.545581 S    
C22   C32   1.417109 A    
C6    C16   1.382218 A    
C11   C13   1.412896 A    
C32   C46   1.409365 A    
O5    V1    2.002981 S    
C53   O18   1.311864 A    
O6    V2    2.008872 S    
C10   O22   1.380913 S    
C1    C24   1.485124 S    
C14   C53   1.476142 S    
C15   C17   1.505668 S    
C27   C29   1.410852 A    
C47   N1    1.435461 S    
C28   C30   1.410651 A    
C50   C55   1.486218 S    
O13   C53   1.318775 A    
C38   C40   1.415826 A    
O18   V4    2.002454 S    
C39   C41   1.410617 A    
C9    C11   1.417368 A    
C27   C33   1.400397 A    
C40   C42   1.410551 A    
C3    C8    1.484634 S    
C26   H4    1.084342 S    
O11   V4    1.991516 S    
O4    C2    1.290093 A    
O16   C56   1.314440 A    
O15   C55   1.314973 A    
C9    O21   1.378984 S    
C37   C39   1.415795 A    
C18   C20   1.541242 S    
O4    V2    2.015428 S    
O19   V3    2.184565 S    
O13   V3    2.002796 S    
N1    O23   1.300487 A    
O6    C4    1.317674 A    
O20   V4    2.180449 S    
C17   O29   1.402483 S    
C2    C23   1.484767 S    
O1    V2    2.002292 S    
C28   C34   1.400357 A    
N2    O26   1.300848 A    
O2    V1    1.999010 S    
C6    C20   1.505752 S    
O36   H22   0.988834 S    
N1    O24   1.300955 A    
C8    C10   1.432375 A    
C19   O35   1.404196 S    
C20   O36   1.405362 S    
O14   C54   1.317997 A    
C41   C43   1.400243 A    
C35   H7    1.081406 S    
C10   C12   1.418480 A    
C22   C24   1.419174 A    
C21   C31   1.416871 A    
O3    V1    2.016929 S    
N3    O31   1.301023 A    
C31   C45   1.409358 A    
N6    O40   1.301071 A    
C21   C23   1.419288 A    
C25   H3    1.084664 S    
C22   N6    1.435413 S    
C12   C14   1.411001 A    
C34   H6    1.083948 S    
C26   C28   1.400786 A    
O3    C1    1.290819 A    
O35   H21   0.992254 S    
O27   H17   0.992818 S    
C19   N3    1.471367 S    
C43   H11   1.083908 S    
C21   N5    1.435604 S    
O7    V1    2.005397 S    
C1    O8    1.294314 A    
C29   C31   1.415842 A    
O8    V2    2.004718 S    
O29   H19   0.991922 S    
O19   V4    1.749638 S    
C24   C26   1.402845 A    
C42   C52   1.400598 A    
O17   V3    1.999185 S    
C49   C56   1.486113 S    
C34   C36   1.395968 A    
O20   V3    1.752567 S    
C5    C7    1.401748 A    
N4    O34   1.300906 A    
C6    C8    1.402670 A    
C11   H1    1.083427 S    
O12   C56   1.316938 A    
N2    O25   1.300457 A    
O11   C55   1.317031 A    
N5    O38   1.301112 A    
C30   C40   1.418157 A    
C25   C27   1.401184 A    
C23   C25   1.402907 A    
C17   O27   1.411451 S    
O9    V2    1.750576 S    
O10   V1    1.753512 S    
C38   C48   1.417462 A    
N3    O32   1.301699 A    
O12   V3    1.992098 S    
C20   N4    1.467815 S    
C30   C32   1.415890 A    
C50   C52   1.403048 A    
C48   N2    1.435211 S    
