data_mof_unit_45400.cif
_audit_creation_date              2013-03-05T16:37:43-0500
_audit_creation_method            fapswitch 2.2
_symmetry_space_group_name_H-M    P1
_symmetry_Int_Tables_number       1
_space_group_crystal_system       triclinic
_cell_length_a                    19.308982
_cell_length_b                    18.467043
_cell_length_c                    10.618282
_cell_angle_alpha                 90.006281
_cell_angle_beta                  90.711691
_cell_angle_gamma                 89.77639
_cell_volume                      3785.94395397

loop_
_atom_site_label
_atom_site_type_symbol
_atom_site_description
_atom_site_fract_x
_atom_site_fract_y
_atom_site_fract_z
_atom_type_partial_charge
O1    O     O_R   0.398180 0.560840 0.500010 -0.587301
O2    O     O_R   0.398180 0.439160 0.500010 -0.584997
C1    C     C_R   0.365650 0.499985 0.502513 0.918758
O3    O     O_R   0.499990 0.560810 0.314820 -0.584678
O4    O     O_R   0.499990 0.439190 0.314820 -0.592082
C2    C     C_R   0.502480 0.500131 0.257572 0.863576
Zn1   Zn    Zn3+2 0.500000 0.581210 0.500040 0.977702
Zn2   Zn    Zn3+2 0.500000 0.418790 0.500040 0.980121
O5    O     O_R   0.601820 0.560790 0.500050 -0.636221
O6    O     O_R   0.601820 0.439210 0.500050 -0.630750
O7    O     O_R   0.500010 0.560810 0.685230 -0.637974
O8    O     O_R   0.500010 0.439190 0.685230 -0.639639
C3    C     C_R   0.634331 0.499862 0.500543 0.836284
C4    C     C_R   0.502482 0.500095 0.742486 0.822407
C5    C     C_3   0.525085 0.576633 0.071917 -0.392548
C6    C     C_3   0.430887 0.481706 0.070385 -0.359293
H1    H     H_    0.577793 0.591017 0.107333 0.163553
H2    H     H_    0.414168 0.428061 0.106131 0.237079
H3    H     H_    0.488668 0.619083 0.105000 0.229406
H4    H     H_    0.392564 0.522540 0.103281 0.190190
C7    C     C_3   0.524102 0.576804 0.928593 -0.405980
C8    C     C_3   0.431134 0.480411 0.926158 -0.417651
H5    H     H_    0.486113 0.618291 0.894971 0.188766
H6    H     H_    0.391802 0.519408 0.888880 0.163580
H7    H     H_    0.576048 0.592520 0.893492 0.164754
H8    H     H_    0.416339 0.425459 0.892294 0.188626
H9    H     H_    0.610319 0.457912 0.110256 0.150456
H10   H     H_    0.544967 0.389208 0.106918 0.227142
H11   H     H_    0.610530 0.458621 0.894922 0.156576
H12   H     H_    0.545509 0.389290 0.894184 0.184718
C9    C     C_3   0.557679 0.444541 0.073360 -0.397172
C10   C     C_3   0.504060 0.500659 0.121234 0.155122
C11   C     C_3   0.503993 0.500490 0.878700 0.188881
C12   C     C_3   0.557912 0.444707 0.928893 -0.399401
C13   C     C_R   0.745497 0.434773 0.481349 -0.201166
C14   C     C_R   0.745562 0.563234 0.531993 -0.201536
H13   H     H_    0.718433 0.384965 0.459523 0.155143
H14   H     H_    0.718514 0.613583 0.550298 0.150938
C15   C     C_R   0.817179 0.434044 0.486245 -0.183017
C16   C     C_R   0.817280 0.562285 0.537854 -0.182005
H15   H     H_    0.844680 0.383835 0.468898 0.133163
H16   H     H_    0.844900 0.611880 0.558932 0.133641
C17   C     C_R   0.853061 0.497734 0.514705 0.117257
C18   C     C_R   0.709428 0.499405 0.503985 -0.027149
C19   C     C_R   0.963499 0.525003 0.623295 -0.187396
C20   C     C_R   0.964372 0.468646 0.416144 -0.191924
H17   H     H_    0.935599 0.546547 0.702963 0.132896
H18   H     H_    0.937210 0.447517 0.334238 0.133107
C21   C     C_R   0.035254 0.524494 0.626049 -0.180061
C22   C     C_R   0.036026 0.468830 0.418379 -0.169073
H19   H     H_    0.062716 0.545783 0.707493 0.135454
H20   H     H_    0.064054 0.447802 0.338427 0.138581
C23   C     C_R   0.071357 0.496691 0.523303 0.105697
C24   C     C_R   0.928082 0.496999 0.518346 0.104804
C25   C     C_R   0.183691 0.431388 0.518930 0.000705
C26   C     C_R   0.182053 0.564396 0.526146 -0.001899
C27   C     C_R   0.255442 0.433251 0.511251 -0.207195
C28   C     C_R   0.253980 0.564233 0.522576 -0.201206
H21   H     H_    0.283855 0.382626 0.507383 0.199138
H22   H     H_    0.281279 0.615114 0.526693 0.214790
C29   C     C_R   0.290569 0.499309 0.511297 -0.093790
C30   C     C_R   0.146643 0.497499 0.524163 -0.004791
C31   C     C_R   0.550388 0.721804 0.570790 -0.125065
C32   C     C_R   0.536114 0.277102 0.594368 -0.121898
H23   H     H_    0.587361 0.688087 0.621276 0.153543
H24   H     H_    0.562463 0.310133 0.664074 0.155780
C33   C     C_R   0.555157 0.797781 0.579606 -0.075775
C34   C     C_R   0.541352 0.200999 0.600957 -0.072464
C35   C     C_R   0.507019 0.841667 0.513082 -0.050875
C36   C     C_R   0.507885 0.158050 0.507841 -0.049143
C37   C     C_R   0.454249 0.807300 0.442153 -0.191969
C38   C     C_R   0.470309 0.194123 0.410850 -0.196493
C39   C     C_R   0.450915 0.730570 0.438495 0.400706
C40   C     C_R   0.467395 0.270781 0.408562 0.419261
N1    N     N_R   0.499980 0.689440 0.500020 -0.149535
N2    N     N_R   0.499980 0.310560 0.500020 -0.154049
C41   C     C_R   0.538210 0.960702 0.413794 -0.188920
C42   C     C_R   0.538849 0.036655 0.412872 -0.185557
H25   H     H_    0.558820 0.931383 0.334169 0.126720
H26   H     H_    0.561477 0.064329 0.333709 0.124454
C43   C     C_R   0.510439 0.076590 0.512728 0.147859
C44   C     C_R   0.511184 0.922693 0.516468 0.155505
C45   C     C_R   0.484179 0.038405 0.616410 -0.163257
C46   C     C_R   0.485036 0.962235 0.618660 -0.178881
H27   H     H_    0.462248 0.067615 0.694951 0.134142
H28   H     H_    0.463711 0.934052 0.698664 0.128767
C47   C     C_R   0.149181 0.359647 0.522176 0.106248
C48   C     C_R   0.161957 0.308322 0.427334 -0.157012
C49   C     C_R   0.130129 0.240496 0.430738 -0.140108
C50   C     C_R   0.085497 0.223281 0.528801 -0.120708
C51   C     C_R   0.072887 0.273735 0.623975 -0.137945
C52   C     C_R   0.104793 0.341536 0.621201 -0.121124
H29   H     H_    0.196195 0.321013 0.350434 0.158814
H30   H     H_    0.140065 0.201283 0.357300 0.126205
H31   H     H_    0.060860 0.170766 0.531260 0.117465
H32   H     H_    0.038603 0.260190 0.700251 0.124568
H33   H     H_    0.095274 0.379651 0.696582 0.127272
C53   C     C_R   0.145605 0.635297 0.527208 0.129322
C54   C     C_R   0.159170 0.685427 0.623895 -0.151282
C55   C     C_R   0.125637 0.752672 0.624186 -0.123055
C56   C     C_R   0.078640 0.770487 0.527844 -0.114800
C57   C     C_R   0.065299 0.721201 0.430749 -0.137290
C58   C     C_R   0.098837 0.653980 0.429915 -0.097662
H34   H     H_    0.195378 0.672245 0.699256 0.124421
H35   H     H_    0.136104 0.790991 0.699110 0.122918
H36   H     H_    0.052734 0.822567 0.528207 0.116593
H37   H     H_    0.029179 0.735207 0.355802 0.123666
H38   H     H_    0.088707 0.616754 0.353133 0.126850
C59   C     C_R   0.610592 0.829650 0.659005 0.137796
C60   C     C_R   0.661767 0.873355 0.605358 -0.125901
C61   C     C_R   0.713888 0.903444 0.681138 -0.150922
C62   C     C_R   0.715241 0.890214 0.810752 -0.113353
C63   C     C_R   0.664779 0.846328 0.864631 -0.133148
C64   C     C_R   0.612753 0.815805 0.789050 -0.175408
H39   H     H_    0.661594 0.883653 0.504976 0.118827
H40   H     H_    0.753241 0.937033 0.639338 0.115188
H41   H     H_    0.755470 0.913834 0.869351 0.112962
H42   H     H_    0.665971 0.835959 0.964958 0.121929
H43   H     H_    0.573832 0.781997 0.831890 0.122214
C65   C     C_R   0.583504 0.168535 0.704209 0.124143
C66   C     C_R   0.569735 0.186243 0.830244 -0.181574
C67   C     C_R   0.610175 0.156686 0.927670 -0.139679
C68   C     C_R   0.664646 0.109478 0.900226 -0.115712
C69   C     C_R   0.679130 0.092173 0.775201 -0.125436
C70   C     C_R   0.638877 0.121564 0.677396 -0.123246
H44   H     H_    0.527597 0.222673 0.853020 0.139098
H45   H     H_    0.599586 0.170708 0.024423 0.126947
H46   H     H_    0.695964 0.086741 0.975769 0.115693
H47   H     H_    0.721988 0.056514 0.754052 0.121624
H48   H     H_    0.651334 0.108334 0.580913 0.122914
C71   C     C_R   0.401986 0.850696 0.371730 0.181080
C72   C     C_R   0.400195 0.849036 0.239532 -0.096613
C73   C     C_R   0.347614 0.885339 0.173202 -0.122453
C74   C     C_R   0.296490 0.923138 0.238411 -0.100806
C75   C     C_R   0.298672 0.926052 0.369937 -0.128310
C76   C     C_R   0.351223 0.889922 0.436627 -0.079371
H49   H     H_    0.438913 0.818838 0.188241 0.120577
H50   H     H_    0.346112 0.883614 0.071322 0.119093
H51   H     H_    0.255366 0.950529 0.186953 0.110217
H52   H     H_    0.259260 0.955739 0.420201 0.116240
H53   H     H_    0.351500 0.891097 0.538599 0.114122
C77   C     C_R   0.429667 0.153131 0.316036 0.176109
C78   C     C_R   0.360492 0.135398 0.339753 -0.104014
C79   C     C_R   0.320252 0.101865 0.246446 -0.128996
C80   C     C_R   0.349074 0.085186 0.129718 -0.103126
C81   C     C_R   0.418131 0.102272 0.105962 -0.131124
C82   C     C_R   0.458219 0.136648 0.198511 -0.081731
H54   H     H_    0.337529 0.148720 0.429423 0.122419
H55   H     H_    0.266667 0.088939 0.264544 0.113152
H56   H     H_    0.317868 0.059111 0.057651 0.113497
H57   H     H_    0.440358 0.089645 0.015433 0.126033
H58   H     H_    0.511153 0.151225 0.178494 0.109806
N3    N     N_R   0.393745 0.696327 0.375472 0.211292
O9    O     O_R   0.404050 0.659599 0.273149 -0.426821
O10   O     O_R   0.330784 0.715439 0.402784 -0.434841
N4    N     N_R   0.429804 0.306829 0.309945 0.216642
O11   O     O_R   0.367806 0.331180 0.331055 -0.431875
O12   O     O_R   0.450350 0.300480 0.194290 -0.466476

loop_
_geom_bond_atom_site_label_1
_geom_bond_atom_site_label_2
_geom_bond_distance
_ccdc_geom_bond_type
C2    C10   1.448408 S    
C47   C48   1.406238 A    
C31   H23   1.082530 S    
C56   C57   1.397393 A    
C38   C77   1.478957 S    
C61   C62   1.397730 A    
C26   C53   1.484171 S    
C4    C11   1.446314 S    
C80   C81   1.397444 A    
C50   C51   1.397435 A    
C75   C76   1.397580 A    
C15   H15   1.083594 S    
C41   C42   1.402759 A    
C5    H3    1.110940 S    
C55   H35   1.082368 S    
C76   H53   1.082926 S    
C40   N2    1.366335 A    
C45   C46   1.406881 A    
C32   C34   1.410334 A    
N4    O11   1.299232 A    
C13   H13   1.083302 S    
C46   H28   1.082845 S    
C81   C82   1.397392 A    
C62   H41   1.082307 S    
Zn2   O6    2.003321 S    
O7    C4    1.275953 A    
C42   H26   1.081490 S    
C27   H21   1.083157 S    
C7    C11   1.554509 S    
C28   H22   1.079790 S    
C78   C79   1.397600 A    
C25   C30   1.414042 A    
C67   H45   1.081222 S    
C5    H1    1.113717 S    
C19   H17   1.083374 S    
C49   H30   1.082477 S    
C35   C37   1.412127 A    
C36   C43   1.505811 S    
O5    C3    1.286260 A    
C60   C61   1.397570 A    
C35   C44   1.499184 S    
C51   H32   1.082316 S    
C70   H48   1.082929 S    
C33   C59   1.478261 S    
C16   C17   1.398740 A    
C9    C10   1.552055 S    
C72   C73   1.397617 A    
C21   H19   1.083410 S    
C22   H20   1.083555 S    
C61   H40   1.082249 S    
C19   C21   1.385462 A    
N3    O10   1.300784 A    
C64   H43   1.083400 S    
Zn2   O8    2.002119 S    
C28   C29   1.395138 A    
C1    C29   1.453986 S    
C54   H34   1.083146 S    
C73   H50   1.082291 S    
C47   C52   1.405971 A    
C39   N1    1.371274 A    
C78   H54   1.083186 S    
O3    Zn1   2.002433 S    
C62   C63   1.397720 A    
C43   C45   1.408268 A    
C52   H33   1.082781 S    
Zn1   O7    2.002200 S    
C20   H18   1.083458 S    
C41   H25   1.083021 S    
C75   H52   1.082277 S    
C31   C33   1.409471 A    
C22   C23   1.398248 A    
H12   C12   1.113624 S    
H9    C9    1.113378 S    
C68   C69   1.396842 A    
C38   C40   1.416735 A    
C71   C76   1.404097 A    
C74   H51   1.082168 S    
C37   C39   1.419187 A    
C65   C70   1.406026 A    
Zn1   N1    1.998685 S    
C72   H49   1.083196 S    
H11   C12   1.113363 S    
C63   H42   1.082348 S    
O1    C1    1.290013 A    
C32   H24   1.082454 S    
C13   C15   1.384454 A    
C79   H55   1.082287 S    
C23   C30   1.453752 S    
C17   C24   1.448639 S    
C16   H16   1.083577 S    
C54   C55   1.398258 A    
C14   C16   1.385483 A    
C6    H4    1.113654 S    
C20   C24   1.399543 A    
C11   C12   1.551494 S    
C32   N2    1.360735 A    
C9    C12   1.534056 S    
C40   N4    1.429694 S    
C57   H37   1.082345 S    
C25   C27   1.389412 A    
C13   C18   1.401782 A    
C66   C67   1.398062 A    
C58   H38   1.082819 S    
C59   C64   1.404430 A    
C5    C10   1.554794 S    
C34   C36   1.418516 A    
C45   H27   1.082906 S    
O8    C4    1.279246 A    
C19   C24   1.400228 A    
C44   C46   1.405758 A    
C7    H5    1.114302 S    
Zn2   N2    1.998688 S    
C73   C74   1.397378 A    
C8    H6    1.113729 S    
C14   C18   1.402083 A    
O3    C2    1.275790 A    
C71   C72   1.404041 A    
C49   C50   1.397312 A    
C51   C52   1.398074 A    
C65   C66   1.405939 A    
C63   C64   1.398295 A    
C56   H36   1.082358 S    
Zn1   O5    2.000430 S    
C8    C11   1.546730 S    
C7    H7    1.113912 S    
C48   H29   1.083233 S    
C6    C8    1.531692 S    
O1    Zn1   2.003144 S    
C77   C82   1.403414 A    
H10   C9    1.111575 S    
O2    Zn2   2.000260 S    
C80   H56   1.082241 S    
C79   C80   1.398757 A    
O6    C3    1.286101 A    
C50   H31   1.082320 S    
O4    Zn2   2.002514 S    
C15   C17   1.398504 A    
C27   C29   1.398075 A    
C74   C75   1.397725 A    
C6    C10   1.547647 S    
C20   C22   1.383502 A    
N4    O12   1.300363 A    
O2    C1    1.285251 A    
C67   C68   1.397005 A    
C66   H44   1.083358 S    
C59   C60   1.404507 A    
C34   C65   1.482578 S    
C42   C43   1.407192 A    
C68   H46   1.082335 S    
O4    C2    1.280487 A    
C31   N1    1.362182 A    
C41   C44   1.403838 A    
C21   C23   1.398494 A    
C14   H14   1.083392 S    
C55   C56   1.397462 A    
C26   C28   1.389822 A    
C69   H47   1.081300 S    
C82   H58   1.081612 S    
C26   C30   1.414353 A    
C25   C47   1.485897 S    
C57   C58   1.397972 A    
C37   C71   1.481509 S    
C81   H57   1.082594 S    
C5    C7    1.521744 S    
C48   C49   1.398015 A    
C6    H2    1.111446 S    
C53   C54   1.405217 A    
C8    H8    1.113716 S    
C39   N3    1.432927 S    
C77   C78   1.402341 A    
C36   C38   1.417275 A    
C33   C35   1.413384 A    
N3    O9    1.297787 A    
C60   H39   1.082700 S    
C3    C18   1.450058 S    
C53   C58   1.405799 A    
C69   C70   1.397856 A    
