data_mof_unit_48153.cif
_audit_creation_date              2013-03-05T15:47:46-0500
_audit_creation_method            fapswitch 2.2
_symmetry_space_group_name_H-M    P1
_symmetry_Int_Tables_number       1
_space_group_crystal_system       triclinic
_cell_length_a                    21.773107
_cell_length_b                    7.202441
_cell_length_c                    18.576887
_cell_angle_alpha                 90.198579
_cell_angle_beta                  95.92377
_cell_angle_gamma                 90.151846
_cell_volume                      2897.63148787

loop_
_atom_site_label
_atom_site_type_symbol
_atom_site_description
_atom_site_fract_x
_atom_site_fract_y
_atom_site_fract_z
_atom_type_partial_charge
O1    O     O_R   0.449650 0.506500 0.414480 -0.577168
O2    O     O_R   0.550350 0.006500 0.585520 -0.559438
O3    O     O_R   0.432010 0.173150 0.560250 -0.565104
O4    O     O_R   0.567990 0.673150 0.439750 -0.573558
C1    C     C_R   0.416916 0.344141 0.581893 1.047804
C2    C     C_R   0.583281 0.844128 0.418446 1.053174
O5    O     O_R   0.442320 0.176650 0.413480 -0.580838
O6    O     O_R   0.557680 0.676650 0.586520 -0.598832
O7    O     O_R   0.560730 0.008380 0.437700 -0.540935
O8    O     O_R   0.439270 0.508380 0.562300 -0.548499
C3    C     C_R   0.429084 0.345441 0.386813 1.162413
C4    C     C_R   0.571374 0.846281 0.612758 1.155592
O9    O     O_3   0.538840 0.339860 0.508120 -0.286615
O10   O     O_3   0.461160 0.839860 0.491880 -0.289258
V1    V     V_3+5 0.492800 0.064220 0.498490 1.310200
V2    V     V_3+5 0.507200 0.564220 0.501510 1.294844
C5    C     C_R   0.877591 0.851720 0.690333 0.451524
C6    C     C_R   0.129997 0.502763 0.309540 0.449336
H1    H     H_    0.963426 0.863533 0.758456 0.196979
H2    H     H_    0.047414 0.569743 0.241166 0.193983
C7    C     C_R   0.887498 0.930262 0.818507 -0.297713
C8    C     C_R   0.114512 0.443068 0.179957 -0.294169
C9    C     C_R   0.587657 0.858512 0.748167 0.300097
C10   C     C_R   0.414087 0.382016 0.252105 0.301535
C11   C     C_R   0.626485 0.830093 0.811852 -0.156313
C12   C     C_R   0.375764 0.400608 0.187545 -0.165174
C13   C     C_R   0.690012 0.827415 0.811756 -0.072312
C14   C     C_R   0.312208 0.401923 0.186293 -0.074034
C15   C     C_R   0.718266 0.867193 0.748859 0.064823
C16   C     C_R   0.282813 0.378527 0.249575 0.073239
C17   C     C_R   0.680137 0.868491 0.681364 -0.026347
C18   C     C_R   0.320589 0.364089 0.317323 -0.030041
C19   C     C_R   0.783868 0.893232 0.751464 -0.134510
C20   C     C_R   0.216921 0.392832 0.247214 -0.129291
C21   C     C_R   0.812118 0.868889 0.686389 -0.167372
C22   C     C_R   0.191210 0.433144 0.312495 -0.174134
C23   C     C_R   0.774638 0.866370 0.619214 0.431763
C24   C     C_R   0.226203 0.395777 0.379049 0.449095
C25   C     C_R   0.709466 0.882666 0.616981 0.304380
C26   C     C_R   0.290814 0.366280 0.381884 0.310711
C27   C     C_R   0.822550 0.940343 0.816635 0.323650
C28   C     C_R   0.175625 0.374437 0.181992 0.322464
C29   C     C_R   0.913797 0.881066 0.756007 -0.311534
C30   C     C_R   0.093460 0.511759 0.243193 -0.306282
C31   C     C_R   0.613783 0.859735 0.681045 -0.321321
C32   C     C_R   0.387103 0.358589 0.318189 -0.328390
H3    H     H_    0.716490 0.791868 0.862050 0.187283
H4    H     H_    0.286938 0.436017 0.135086 0.186161
H5    H     H_    0.607629 0.812282 0.863081 0.192499
H6    H     H_    0.395361 0.423738 0.137058 0.191023
C33   C     C_R   0.627281 0.992566 0.313428 0.521563
C34   C     C_R   0.374056 0.490648 0.688517 0.526922
C35   C     C_R   0.631297 0.855192 0.367136 -0.254189
C36   C     C_R   0.369195 0.354924 0.633732 -0.265827
C37   C     C_R   0.680510 0.729120 0.371046 -0.176933
C38   C     C_R   0.319743 0.228822 0.629664 -0.171227
C39   C     C_R   0.726664 0.740595 0.322900 -0.050924
C40   C     C_R   0.273906 0.239609 0.678228 -0.046627
C41   C     C_R   0.725151 0.889292 0.272996 0.019704
C42   C     C_R   0.276196 0.386825 0.729289 0.021255
C43   C     C_R   0.676133 0.017750 0.269756 0.016508
C44   C     C_R   0.325999 0.513612 0.733646 0.020347
C45   C     C_R   0.775776 0.612023 0.326050 0.206683
C46   C     C_R   0.224627 0.110707 0.674793 0.206428
C47   C     C_R   0.822472 0.630341 0.279064 0.243674
C48   C     C_R   0.177784 0.129600 0.721487 0.236335
C49   C     C_R   0.820610 0.778287 0.228673 -0.011692
C50   C     C_R   0.179998 0.277030 0.772459 -0.015651
C51   C     C_R   0.772764 0.911115 0.226882 -0.034315
C52   C     C_R   0.228787 0.407894 0.775794 -0.026055
C53   C     C_R   0.772878 0.067076 0.179818 -0.040423
C54   C     C_R   0.230265 0.559572 0.825553 -0.041648
C55   C     C_R   0.726020 0.203484 0.182266 0.557860
C56   C     C_R   0.279489 0.689961 0.826984 0.541607
C57   C     C_R   0.677937 0.174552 0.225707 -0.305573
C58   C     C_R   0.326302 0.664802 0.781333 -0.310331
C59   C     C_R   0.865430 0.794370 0.179501 -0.045528
C60   C     C_R   0.134776 0.293602 0.821046 -0.045659
C61   C     C_R   0.866044 0.943954 0.131420 -0.343489
C62   C     C_R   0.135028 0.441185 0.870505 -0.327679
C63   C     C_R   0.820471 0.083819 0.132872 0.391000
C64   C     C_R   0.182495 0.576200 0.872305 0.375266
H7    H     H_    0.682771 0.624124 0.412710 0.198393
H8    H     H_    0.316932 0.124480 0.587417 0.205039
H9    H     H_    0.901034 0.690376 0.178511 0.186033
H10   H     H_    0.098259 0.191399 0.820576 0.178256
H11   H     H_    0.642953 0.280747 0.226950 0.193507
H12   H     H_    0.362558 0.768192 0.782344 0.195062
O11   O     O_R   0.060820 0.290050 0.937800 -0.579328
O12   O     O_R   0.939180 0.790050 0.062200 -0.586156
O13   O     O_R   0.057690 0.616620 0.086540 -0.586382
O14   O     O_R   0.942310 0.116620 0.913460 -0.582148
C65   C     C_R   0.071672 0.448898 0.112507 1.046879
C66   C     C_R   0.928926 0.947484 0.886981 1.035658
O15   O     O_R   0.068010 0.619890 0.939770 -0.566809
O16   O     O_R   0.931990 0.119890 0.060230 -0.559689
O17   O     O_R   0.949640 0.787940 0.914460 -0.591948
O18   O     O_R   0.050360 0.287940 0.085540 -0.575428
C67   C     C_R   0.084699 0.451364 0.919456 1.013167
C68   C     C_R   0.915557 0.951852 0.081049 1.009430
O19   O     O_3   0.961210 0.453080 0.991940 -0.267428
O20   O     O_3   0.038790 0.953080 0.008060 -0.257335
V3    V     V_3+5 0.007200 0.728820 0.001500 1.300204
V4    V     V_3+5 0.992800 0.228820 0.998500 1.312964
N1    N     N_R   0.780033 0.466134 0.378847 0.253663
O21   O     O_R   0.737334 0.339118 0.377388 -0.395653
O22   O     O_R   0.828491 0.453730 0.425789 -0.244521
N2    N     N_R   0.220881 0.962101 0.622738 0.254955
O23   O     O_R   0.172347 0.944546 0.576104 -0.241094
O24   O     O_R   0.263893 0.836572 0.625205 -0.386184
N3    N     N_R   0.872484 0.499658 0.284051 0.264580
O25   O     O_R   0.928926 0.557429 0.299798 -0.324290
O26   O     O_R   0.861279 0.322130 0.282202 -0.338020
N4    N     N_R   0.127710 0.998336 0.716365 0.260385
O27   O     O_R   0.138865 0.821293 0.721698 -0.342571
O28   O     O_R   0.071495 0.054176 0.698129 -0.322510
N5    N     N_R   0.822018 0.240198 0.085608 0.272229
O29   O     O_R   0.784728 0.247292 0.026349 -0.261498
O30   O     O_R   0.854406 0.386084 0.106725 -0.361364
N6    N     N_R   0.182901 0.726143 0.923264 0.275959
O31   O     O_R   0.201798 0.698466 0.991091 -0.318714
O32   O     O_R   0.159741 0.886212 0.902927 -0.333947
O33   O     O_3   0.727946 0.366159 0.143237 -0.692031
H13   H     H_    0.693005 0.447531 0.152816 0.325675
O34   O     O_3   0.281721 0.841543 0.873073 -0.687132
H14   H     H_    0.318320 0.919321 0.866309 0.331671
O35   O     O_3   0.802386 0.860018 0.555647 -0.658205
H15   H     H_    0.774446 0.794547 0.518294 0.344440
O36   O     O_3   0.195637 0.377208 0.440336 -0.655249
H16   H     H_    0.218501 0.289201 0.474050 0.349898
N7    N     N_R   0.908273 0.789910 0.629881 0.282641
O37   O     O_R   0.894644 0.628119 0.601042 -0.273542
O38   O     O_R   0.957761 0.875251 0.613782 -0.231896
N8    N     N_R   0.106212 0.582182 0.372010 0.281000
O39   O     O_R   0.138195 0.707123 0.410454 -0.276009
O40   O     O_R   0.049213 0.552061 0.383915 -0.234729
N9    N     N_R   0.797039 0.015707 0.878556 0.225100
O41   O     O_R   0.809998 0.941175 0.941993 -0.419500
O42   O     O_R   0.760282 0.158111 0.871414 -0.338423
N10   N     N_R   0.192666 0.265817 0.122025 0.227231
O43   O     O_R   0.219729 0.106240 0.133638 -0.343594
O44   O     O_R   0.181058 0.324336 0.055863 -0.395197
N11   N     N_R   0.522474 0.886207 0.753582 0.234176
O45   O     O_R   0.487532 0.968978 0.702529 -0.389114
O46   O     O_R   0.500112 0.859447 0.815094 -0.409978
N12   N     N_R   0.480006 0.396047 0.248664 0.229831
O47   O     O_R   0.516290 0.466870 0.301766 -0.391640
O48   O     O_R   0.502679 0.367588 0.187399 -0.408731
O49   O     O_3   0.674281 0.915217 0.552186 -0.809380
H17   H     H_    0.698800 0.989590 0.520574 0.345070
O50   O     O_3   0.325385 0.349672 0.447963 -0.808485
H18   H     H_    0.307009 0.429936 0.483485 0.327033
O51   O     O_3   0.574224 0.096931 0.303229 -0.710180
H19   H     H_    0.563247 0.106973 0.250346 0.347093
O52   O     O_3   0.427338 0.594861 0.698574 -0.711130
H20   H     H_    0.440106 0.597154 0.751276 0.343173

loop_
_geom_bond_atom_site_label_1
_geom_bond_atom_site_label_2
_geom_bond_distance
_ccdc_geom_bond_type
C48   C50   1.417676 A    
C45   C47   1.412904 A    
C9    C31   1.422989 A    
C63   N5    1.432967 S    
C5    N7    1.434773 S    
N3    O25   1.300466 A    
C49   C59   1.408648 A    
C64   N6    1.433064 S    
O2    C4    1.325240 A    
C2    O7    1.343477 A    
N4    O27   1.300903 A    
O33   H13   0.991720 S    
C43   C57   1.399790 A    
C34   O52   1.376169 S    
O5    C3    1.335278 A    
N1    O22   1.301058 A    
C56   C58   1.403308 A    
O11   C67   1.331339 A    
C21   C23   1.418846 A    
C10   C12   1.395598 A    
N12   O47   1.300369 A    
C12   H6    1.082953 S    
C10   N12   1.446529 S    
C60   C62   1.402236 A    
C39   C41   1.417150 A    
C56   O34   1.382760 S    
C13   C15   1.405510 A    
C7    C66   1.486131 S    
C40   C42   1.417561 A    
N11   O45   1.300414 A    
C15   C19   1.435962 A    
N2    O23   1.301057 A    
C42   C44   1.411533 A    
C51   C53   1.425997 A    
C47   N3    1.437164 S    
C7    C29   1.391724 A    
C8    C30   1.393990 A    
O15   V3    1.999069 S    
C20   C28   1.437845 A    
C47   C49   1.418695 A    
C33   C43   1.414419 A    
O50   H18   0.991364 S    
C38   H8    1.081759 S    
C38   C40   1.414826 A    
C45   N1    1.436507 S    
C58   H12   1.082471 S    
C27   N9    1.433702 S    
C60   H10   1.081440 S    
O5    V1    2.003251 S    
C59   H9    1.080839 S    
O6    V2    1.996460 S    
C24   C26   1.418908 A    
C40   C46   1.413313 A    
C55   C57   1.401822 A    
C44   C58   1.400962 A    
O12   C68   1.335209 A    
H2    C30   1.084211 S    
H1    C29   1.084565 S    
C39   C45   1.413192 A    
N12   O48   1.302273 A    
C35   C37   1.402681 A    
C50   C60   1.407746 A    
C36   C38   1.402668 A    
C9    N11   1.447406 S    
C41   C43   1.411056 A    
C16   C20   1.434794 A    
C28   N10   1.439265 S    
C24   O36   1.383474 S    
C1    C36   1.489784 S    
N10   O43   1.301472 A    
C54   C56   1.421236 A    
C61   C63   1.418018 A    
N8    O40   1.300649 A    
C66   O17   1.320507 A    
N7    O38   1.300988 A    
C26   O50   1.377868 S    
C49   C51   1.414200 A    
C46   C48   1.411987 A    
O4    V2    1.999479 S    
C5    C29   1.397644 A    
C6    C30   1.398070 A    
O13   C65   1.326777 A    
N9    O42   1.301321 A    
C61   C68   1.499744 S    
C42   C52   1.420888 A    
O6    C4    1.335331 A    
O14   C66   1.332384 A    
C59   C61   1.402771 A    
C34   C36   1.404600 A    
N3    O26   1.300738 A    
O1    V2    1.982734 S    
O2    V1    1.986473 S    
O17   V3    1.988913 S    
C62   C64   1.414987 A    
C41   C51   1.420074 A    
C7    C27   1.413026 A    
C57   H11   1.082751 S    
O19   V4    1.756935 S    
C37   C39   1.415001 A    
O11   V4    2.001020 S    
O34   H14   0.991666 S    
C8    C65   1.483641 S    
O4    C2    1.346243 A    
C2    C35   1.487829 S    
C37   H7    1.081544 S    
C62   C67   1.496260 S    
O3    V1    1.999111 S    
N6    O31   1.300697 A    
N6    O32   1.301129 A    
C53   C55   1.422243 A    
O36   H16   0.990923 S    
N1    O21   1.300787 A    
C13   H3    1.078005 S    
N11   O46   1.302252 A    
O16   V4    1.999436 S    
C33   O51   1.376904 S    
C48   N4    1.436682 S    
C18   C32   1.447293 A    
O13   V3    2.003084 S    
C4    C31   1.492699 S    
O3    C1    1.346241 A    
N7    O37   1.301531 A    
N4    O28   1.300995 A    
C14   C16   1.405749 A    
N8    O39   1.301658 A    
N10   O44   1.300843 A    
C53   C63   1.426718 A    
C11   C13   1.383551 A    
N9    O41   1.301184 A    
C25   O49   1.379604 S    
C12   C14   1.381656 A    
C19   C27   1.440620 A    
N5    O30   1.300515 A    
O7    V1    1.992334 S    
C10   C32   1.424978 A    
C1    O8    1.343567 A    
C15   C17   1.430628 A    
C34   C44   1.416355 A    
N5    O29   1.299928 A    
C16   C18   1.434903 A    
C8    C28   1.417589 A    
O8    V2    1.992333 S    
O18   V4    1.985088 S    
O16   C68   1.331127 A    
C22   C24   1.410849 A    
C19   C21   1.422349 A    
C14   H4    1.078079 S    
N2    O24   1.300966 A    
C6    N8    1.436382 S    
O15   C67   1.332373 A    
C18   C26   1.421059 A    
O20   V3    1.752802 S    
C11   H5    1.082564 S    
O12   V3    2.001027 S    
O14   V4    1.996304 S    
C9    C11   1.397289 A    
C20   C22   1.416663 A    
C23   C25   1.420503 A    
C17   C31   1.445354 A    
O9    V2    1.758050 S    
O52   H20   0.989813 S    
C17   C25   1.416634 A    
C50   C52   1.414700 A    
O10   V1    1.753906 S    
C3    C32   1.493453 S    
C52   C54   1.426742 A    
O1    C3    1.325116 A    
C5    C21   1.425566 A    
C33   C35   1.404061 A    
O51   H19   0.989735 S    
O49   H17   0.991045 S    
C6    C22   1.421055 A    
C65   O18   1.324903 A    
C54   C64   1.427190 A    
O35   H15   0.991466 S    
C46   N2    1.436479 S    
C23   O35   1.381515 S    
C55   O33   1.382787 S    
