data_mof_unit_34653.cif
_audit_creation_date              2013-03-05T15:44:12-0500
_audit_creation_method            fapswitch 2.2
_symmetry_space_group_name_H-M    P1
_symmetry_Int_Tables_number       1
_space_group_crystal_system       triclinic
_cell_length_a                    13.089449
_cell_length_b                    13.208323
_cell_length_c                    17.761218
_cell_angle_alpha                 110.005417
_cell_angle_beta                  73.319363
_cell_angle_gamma                 90.524513
_cell_volume                      2750.46568891

loop_
_atom_site_label
_atom_site_type_symbol
_atom_site_description
_atom_site_fract_x
_atom_site_fract_y
_atom_site_fract_z
_atom_type_partial_charge
Zn1   Zn    Zn3+2 0.562560 0.419520 0.551940 1.138125
Zn2   Zn    Zn3+2 0.419550 0.406100 0.433160 1.071097
Zn3   Zn    Zn3+2 0.611810 0.553570 0.428930 1.086534
Zn4   Zn    Zn3+2 0.406080 0.620810 0.585960 1.078209
O1    O     O_3   0.500000 0.500000 0.500000 -0.547169
O2    O     O_R   0.262540 0.611050 0.579000 -0.619709
O3    O     O_R   0.715520 0.417170 0.517520 -0.585815
O4    O     O_R   0.426070 0.262540 0.438550 -0.595287
O5    O     O_R   0.595870 0.709230 0.464930 -0.620617
O6    O     O_R   0.474570 0.394560 0.317400 -0.601310
O7    O     O_R   0.403380 0.624270 0.695980 -0.589702
O8    O     O_R   0.609140 0.497770 0.314440 -0.617033
O9    O     O_R   0.512900 0.483390 0.672170 -0.601630
O10   O     O_R   0.526170 0.271940 0.521690 -0.600147
O11   O     O_R   0.451880 0.756290 0.574830 -0.618750
O12   O     O_R   0.271960 0.460780 0.472050 -0.629223
O13   O     O_R   0.749980 0.510990 0.431420 -0.604216
C1    C     C_R   0.216770 0.543041 0.532150 0.853345
C2    C     C_R   0.782183 0.458032 0.470034 0.878325
C3    C     C_R   0.471779 0.216743 0.475297 0.790048
C4    C     C_R   0.527961 0.781984 0.524821 0.856662
C5    C     C_R   0.551184 0.433617 0.276705 0.892019
C6    C     C_R   0.451556 0.568707 0.724285 0.933517
C7    C     C_R   0.429573 0.597304 0.816536 -0.206318
C8    C     C_R   0.569816 0.405058 0.186529 -0.152305
C9    C     C_R   0.335977 0.708573 0.962054 0.202084
C10   C     C_R   0.377493 0.698152 0.876401 0.315649
C11   C     C_R   0.462617 0.520553 0.844879 -0.158505
C12   C     C_R   0.425105 0.528962 0.929585 0.060646
C13   C     C_R   0.354268 0.621310 0.988116 -0.144313
C14   C     C_R   0.461103 0.451076 0.958610 -0.048972
C15   C     C_R   0.442089 0.478510 0.046088 0.006763
C16   C     C_R   0.358969 0.559556 0.100977 -0.178128
C17   C     C_R   0.309185 0.624725 0.071865 0.441834
C18   C     C_R   0.512451 0.345932 0.905173 0.168471
C19   C     C_R   0.567389 0.284777 0.935722 0.364236
C20   C     C_R   0.580091 0.333906 0.016386 -0.173301
C21   C     C_R   0.505498 0.422462 0.075189 0.061573
C22   C     C_R   0.661236 0.294770 0.041288 0.266754
C23   C     C_R   0.654520 0.329327 0.127196 0.199264
C24   C     C_R   0.499744 0.454295 0.160562 -0.198119
H1    H     H_    0.442578 0.518737 0.208810 0.151871
H2    H     H_    0.521594 0.456251 0.799424 0.231690
H3    H     H_    0.326833 0.569427 0.166416 0.196847
H4    H     H_    0.092366 0.393922 0.477816 0.202785
C25   C     C_2   0.896900 0.448483 0.461228 0.029697
C26   C     C_2   0.932485 0.483838 0.529872 0.264078
H5    H     H_    0.057232 0.635368 0.588732 0.219426
C27   C     C_2   0.100379 0.556375 0.549684 -0.231499
C28   C     C_2   0.048176 0.472059 0.518474 -0.190154
H6    H     H_    0.545899 0.880233 0.414671 0.210360
C29   C     C_2   0.533801 0.895821 0.538618 -0.218624
C30   C     C_2   0.536985 0.935229 0.478186 -0.149722
C31   C     C_2   0.472184 0.098470 0.458378 0.100565
C32   C     C_2   0.517957 0.053543 0.501101 0.198695
H7    H     H_    0.515343 0.949534 0.603741 0.205177
S1    S     S_3+6 0.182581 0.694065 0.139132 0.114155
O14   O     O_2   0.196900 0.804889 0.194349 -0.183948
O15   O     O_2   0.111290 0.703221 0.088348 -0.215226
O16   O     O_3   0.123688 0.624360 0.200742 -0.504842
H8    H     H_    0.054885 0.667923 0.237207 0.407801
N1    N     N_R   0.755003 0.228738 0.979327 0.262505
O17   O     O_R   0.791820 0.142857 0.987130 -0.214821
O18   O     O_R   0.808439 0.259174 0.918041 -0.278838
S2    S     S_3+6 0.843901 0.541352 0.634423 0.070511
O19   O     O_2   0.768251 0.630092 0.639547 -0.268734
O20   O     O_2   0.779763 0.455682 0.657736 -0.239213
O21   O     O_3   0.911775 0.593077 0.704119 -0.479685
H9    H     H_    0.946421 0.529346 0.707874 0.373034
N2    N     N_R   0.970070 0.410758 0.376818 0.208603
O22   O     O_R   0.941413 0.340754 0.316383 -0.270827
O23   O     O_R   0.056076 0.458448 0.357531 -0.324392
N3    N     N_R   0.542772 0.120749 0.575246 0.224837
O24   O     O_R   0.637887 0.109380 0.582254 -0.284195
O25   O     O_R   0.465630 0.179716 0.640380 -0.295513
S3    S     S_3+6 0.420989 0.017038 0.376966 0.087842
O26   O     O_2   0.513458 0.960493 0.300073 -0.199587
O27   O     O_2   0.357609 0.933197 0.403910 -0.289166
O28   O     O_3   0.341722 0.091883 0.352095 -0.424826
H10   H     H_    0.275542 0.114469 0.400572 0.366630
N4    N     N_R   0.735061 0.290253 0.153788 0.240201
O29   O     O_R   0.708046 0.246827 0.211446 -0.326495
O30   O     O_R   0.835139 0.304178 0.124153 -0.238613
S4    S     S_3+6 0.593820 0.141175 0.882947 0.158124
O31   O     O_2   0.597844 0.085983 0.943483 -0.207364
O32   O     O_2   0.506593 0.097794 0.844672 -0.208678
O33   O     O_3   0.711379 0.112280 0.806041 -0.434451
H11   H     H_    0.717960 0.032728 0.777209 0.402625
N5    N     N_R   0.288492 0.812114 0.023502 0.267905
O34   O     O_R   0.202987 0.857908 0.020291 -0.206524
O35   O     O_R   0.340032 0.867574 0.074281 -0.242974
S5    S     S_3+6 0.379676 0.814878 0.846626 0.149450
O36   O     O_2   0.281865 0.823761 0.820175 -0.216841
O37   O     O_2   0.380667 0.916857 0.917884 -0.143730
O38   O     O_3   0.490408 0.803571 0.766170 -0.526167
H12   H     H_    0.480147 0.864836 0.748053 0.395826
N6    N     N_R   0.496397 0.294752 0.824759 0.229359
O39   O     O_R   0.400153 0.293331 0.817578 -0.289399
O40   O     O_R   0.578336 0.251319 0.758368 -0.240138

loop_
_geom_bond_atom_site_label_1
_geom_bond_atom_site_label_2
_geom_bond_distance
_ccdc_geom_bond_type
O33   H11   0.990913 S    
C24   H1    1.078529 S    
O38   H12   0.990647 S    
C7    C10   1.414578 A    
N6    O39   1.301477 A    
C2    C25   1.466384 S    
O6    C5    1.274273 A    
C9    N5    1.432723 S    
C9    C10   1.418488 A    
C12   C13   1.424078 A    
Zn1   O1    1.942205 S    
C11   C12   1.406938 A    
S3    O27   1.503811 D    
C8    C23   1.403099 A    
S1    O15   1.502973 D    
O8    C5    1.278375 A    
O9    C6    1.283597 A    
N3    O24   1.301250 A    
N1    O18   1.301115 A    
Zn3   O8    1.922070 S    
N4    O30   1.301103 A    
C31   C32   1.364743 D    
C18   C19   1.413687 A    
O21   H9    0.990683 S    
S2    O20   1.503434 D    
C5    C8    1.459808 S    
C17   S1    1.776213 S    
C6    C7    1.489306 S    
S4    O33   1.681291 S    
N2    O22   1.301365 A    
C15   C21   1.422461 A    
N5    O35   1.301286 A    
Zn2   O12   1.910241 S    
N3    O25   1.300705 A    
N6    O40   1.300877 A    
N4    O29   1.301182 A    
C26   C28   1.471451 S    
C30   C32   1.477690 S    
O2    C1    1.274034 A    
C13   C17   1.418990 A    
O10   C3    1.278115 A    
S3    O26   1.502551 D    
C21   C24   1.407306 A    
Zn4   O2    1.918334 S    
C8    C24   1.391372 A    
C22   C23   1.411184 A    
S1    O16   1.682674 S    
S5    O38   1.683467 S    
O16   H8    0.990591 S    
H6    C30   1.085910 S    
C20   C21   1.418419 A    
Zn3   O5    1.926478 S    
C14   C15   1.414832 A    
C12   C14   1.434323 A    
S2    O21   1.682258 S    
N1    O17   1.301573 A    
S5    O37   1.502988 D    
C16   C17   1.393259 A    
C10   S5    1.790504 S    
O4    C3    1.284837 A    
S4    O31   1.503228 D    
Zn4   O7    1.929011 S    
C31   S3    1.782054 S    
C3    C31   1.486206 S    
H5    C27   1.085991 S    
C9    C13   1.426114 A    
O3    C2    1.282332 A    
C14   C18   1.424881 A    
Zn2   O1    1.934640 S    
Zn1   O9    1.916992 S    
Zn2   O6    1.925289 S    
C29   C30   1.334517 D    
C22   N1    1.437234 S    
C25   C26   1.361589 D    
C19   C20   1.414214 A    
Zn1   O3    1.915422 S    
C16   H3    1.077709 S    
C23   N4    1.436464 S    
Zn2   O4    1.934897 S    
C7    C11   1.396570 A    
S4    O32   1.503720 D    
Zn4   O1    1.918348 S    
Zn3   O1    1.941021 S    
C11   H2    1.074306 S    
C15   C16   1.406571 A    
Zn4   O11   1.937787 S    
C20   C22   1.423780 A    
O5    C4    1.272214 A    
S1    O14   1.502629 D    
H4    C28   1.087382 S    
C19   S4    1.790341 S    
O7    C6    1.277448 A    
S5    O36   1.503125 D    
O13   C2    1.279426 A    
Zn3   O13   1.915916 S    
S2    O19   1.503059 D    
C25   N2    1.444484 S    
O28   H10   0.990732 S    
C32   N3    1.438110 S    
O11   C4    1.260207 A    
S3    O28   1.682147 S    
O12   C1    1.272779 A    
C27   C28   1.339996 D    
N2    O23   1.301833 A    
Zn1   O10   1.930958 S    
N5    O34   1.301692 A    
C18   N6    1.431811 S    
C26   S2    1.784573 S    
C4    C29   1.443335 S    
C29   H7    1.086657 S    
C1    C27   1.464260 S    
