data_mof_unit_15873.cif
_audit_creation_date              2012-12-10T18:21:17-0500
_audit_creation_method            fapswitch 2.2
_symmetry_space_group_name_H-M    P1
_symmetry_Int_Tables_number       1
_space_group_crystal_system       triclinic
_cell_length_a                    14.979453
_cell_length_b                    14.194051
_cell_length_c                    10.650442
_cell_angle_alpha                 88.240901
_cell_angle_beta                  88.278706
_cell_angle_gamma                 88.513406
_cell_volume                      2261.6894764

loop_
_atom_site_label
_atom_site_type_symbol
_atom_type_description
_atom_site_fract_x
_atom_site_fract_y
_atom_site_fract_z
_atom_type_partial_charge
C1    C     C_R   0.326880 0.500923 0.501962 0.883960
C2    C     C_R   0.049449 0.339723 0.594933 -0.225731
C3    C     C_R   0.094458 0.420772 0.553834 0.120162
C4    C     C_R   0.498204 0.500969 0.257716 0.815183
C5    C     C_R   0.046514 0.502521 0.513962 0.059734
C6    C     C_R   0.091418 0.584804 0.473428 0.121295
C7    C     C_R   0.043330 0.665683 0.434137 -0.223822
C8    C     C_R   0.950654 0.664800 0.433462 -0.221339
C9    C     C_R   0.186791 0.421344 0.550591 -0.262941
C10   C     C_R   0.231018 0.502417 0.508122 -0.073257
C11   C     C_R   0.183834 0.584256 0.471357 -0.272455
C12   C     C_3   0.586873 0.461265 0.924907 -0.397222
C13   C     C_R   0.545578 0.803110 0.409237 0.245535
C14   C     C_R   0.566698 0.197623 0.439756 0.237487
C15   C     C_R   0.449298 0.796230 0.589688 -0.114285
C16   C     C_R   0.436244 0.203073 0.571173 -0.110839
C17   C     C_R   0.441796 0.897702 0.591189 -0.056976
C18   C     C_R   0.436371 0.101632 0.583494 -0.058168
C19   C     C_R   0.673254 0.499154 0.501828 0.875606
C20   C     C_R   0.497455 0.949730 0.507643 0.017500
C21   C     C_R   0.496109 0.050285 0.505711 0.018613
C22   C     C_R   0.554103 0.901141 0.422430 0.022261
C23   C     C_R   0.813910 0.581006 0.469418 -0.267419
C24   C     C_R   0.557633 0.099570 0.427475 0.021755
C25   C     C_R   0.381601 0.948343 0.673215 0.146416
C26   C     C_R   0.379619 0.050402 0.670325 0.147253
C27   C     C_R   0.614651 0.049111 0.345392 -0.227332
C28   C     C_R   0.614130 0.952193 0.344645 -0.227148
C29   C     C_R   0.497240 0.499268 0.742069 0.824808
C30   C     C_3   0.485369 0.602813 0.066206 -0.425966
C31   C     C_3   0.417103 0.442379 0.078177 -0.383568
C32   C     C_3   0.479030 0.601398 0.924609 -0.390522
C33   C     C_3   0.419862 0.436909 0.933930 -0.411847
C34   C     C_R   0.769275 0.498899 0.506266 -0.070848
C35   C     C_3   0.585040 0.456924 0.068888 -0.419332
C36   C     C_3   0.496273 0.501253 0.120861 0.193654
C37   C     C_3   0.495659 0.499182 0.878431 0.191298
C38   C     C_3   0.562789 0.767369 0.278188 -0.357222
C39   C     C_3   0.654089 0.718413 0.258863 -0.861753
C40   C     C_3   0.661197 0.233247 0.423449 -0.343257
C41   C     C_3   0.680686 0.284372 0.297775 -0.840926
C42   C     C_3   0.317694 0.893309 0.760207 -0.408522
C43   C     C_3   0.362750 0.860922 0.881547 -0.906370
C44   C     C_3   0.321006 0.104754 0.764152 -0.405456
C45   C     C_R   0.816215 0.419102 0.550916 -0.262650
C46   C     C_3   0.231770 0.135060 0.707919 -0.912658
C47   C     C_R   0.908638 0.419493 0.553567 0.122776
C48   C     C_R   0.953692 0.501701 0.513371 0.058292
C49   C     C_R   0.905898 0.583045 0.472148 0.119607
C50   C     C_R   0.956658 0.339166 0.595127 -0.223271
H1    H     H_    0.545104 0.643139 0.087049 0.195076
H2    H     H_    0.660658 0.084129 0.280387 0.158797
H3    H     H_    0.661865 0.917655 0.282004 0.160989
H4    H     H_    0.424681 0.638717 0.106928 0.168741
H5    H     H_    0.352566 0.475418 0.110490 0.159516
H6    H     H_    0.411741 0.628250 0.896598 0.173429
H7    H     H_    0.354317 0.461165 0.896454 0.155801
H8    H     H_    0.529350 0.650410 0.882298 0.184728
H9    H     H_    0.431452 0.362333 0.906899 0.177779
H10   H     H_    0.643412 0.494160 0.104067 0.154983
H11   H     H_    0.590597 0.381781 0.100315 0.182759
H12   H     H_    0.420566 0.369562 0.119907 0.184168
H13   H     H_    0.641067 0.508267 0.889561 0.164870
H14   H     H_    0.602079 0.389647 0.888744 0.170821
H15   H     H_    0.777254 0.643563 0.438375 0.163376
H16   H     H_    0.781260 0.357632 0.585888 0.140454
H17   H     H_    0.922551 0.275861 0.626410 0.143338
H18   H     H_    0.705919 0.754763 0.310131 0.236762
H19   H     H_    0.652777 0.643415 0.288710 0.283788
H20   H     H_    0.673754 0.721133 0.157481 0.222968
H21   H     H_    0.504957 0.728616 0.250684 0.213339
H22   H     H_    0.558678 0.825942 0.206782 0.165257
H23   H     H_    0.085932 0.276801 0.625971 0.151278
H24   H     H_    0.655062 0.244577 0.218929 0.228489
H25   H     H_    0.651025 0.355990 0.295211 0.286006
H26   H     H_    0.754004 0.291215 0.283509 0.235368
H27   H     H_    0.678550 0.271257 0.506576 0.211697
H28   H     H_    0.711088 0.174214 0.431255 0.163118
H29   H     H_    0.423053 0.816297 0.861160 0.257527
H30   H     H_    0.382882 0.922663 0.934573 0.257876
H31   H     H_    0.315441 0.819087 0.941413 0.249845
H32   H     H_    0.256019 0.934457 0.783706 0.214514
H33   H     H_    0.291828 0.831768 0.712296 0.191946
H34   H     H_    0.224191 0.358724 0.581047 0.155048
H35   H     H_    0.242299 0.179699 0.621659 0.255464
H36   H     H_    0.193620 0.072504 0.683546 0.258459
H37   H     H_    0.191558 0.176231 0.777352 0.249765
H38   H     H_    0.308814 0.063671 0.852765 0.213765
H39   H     H_    0.355727 0.167357 0.796310 0.188205
H40   H     H_    0.218958 0.646696 0.438767 0.157429
H41   H     H_    0.077365 0.729100 0.403128 0.144218
H42   H     H_    0.914044 0.727589 0.401954 0.143718
H43   H     H_    0.412580 0.752849 0.656993 0.161697
H44   H     H_    0.387570 0.245844 0.621664 0.158615
N1    N     N_R   0.500070 0.750030 0.500050 -0.117222
N2    N     N_R   0.500070 0.249970 0.500050 -0.118000
O1    O     O_R   0.367860 0.580280 0.500020 -0.627543
O2    O     O_R   0.367860 0.419720 0.500020 -0.625516
O3    O     O_R   0.500000 0.580270 0.314790 -0.631936
O4    O     O_R   0.500000 0.419730 0.314790 -0.619135
O5    O     O_R   0.632160 0.580270 0.499960 -0.610202
O6    O     O_R   0.632160 0.419730 0.499960 -0.627925
O7    O     O_R   0.500030 0.580270 0.685200 -0.631805
O8    O     O_R   0.500030 0.419730 0.685200 -0.630277
Zn1   Zn    Zn3+2 0.500020 0.607200 0.499990 0.932700
Zn2   Zn    Zn3+2 0.500020 0.392800 0.499990 0.930984

loop_
_geom_bond_atom_site_label_1
_geom_bond_atom_site_label_2
_ccdc_geom_bond_type
C30   H1    S    
C4    C36   S    
C18   C21   A    
C39   H18   S    
C35   C36   S    
C18   C26   A    
C24   C27   A    
C32   H8    S    
O8    Zn2   S    
C26   C44   S    
C7    C8    A    
C30   H4    S    
C13   N1    A    
C15   N1    A    
C38   C39   S    
C12   H14   S    
C19   O6    A    
C23   C49   A    
C43   H29   S    
C17   C20   A    
C29   O7    A    
C14   C24   A    
C12   C37   S    
C2    C50   A    
C41   H24   S    
C42   H32   S    
C31   C33   S    
C8    H42   S    
N1    Zn1   S    
C50   H17   S    
C46   H35   S    
O1    Zn1   S    
C33   H9    S    
C22   C28   A    
C31   H12   S    
C14   N2    A    
C44   C46   S    
C47   C50   A    
C45   C47   A    
O5    Zn1   S    
O3    Zn1   S    
C5    C48   A    
C38   H22   S    
C16   N2    A    
C42   H33   S    
C35   H11   S    
C1    O1    A    
C6    C11   A    
C12   H13   S    
C43   H30   S    
C33   C37   S    
C29   O8    A    
C35   H10   S    
C1    O2    A    
C3    C9    A    
C41   H25   S    
C47   C48   A    
C23   C34   A    
C7    H41   S    
C39   H19   S    
O7    Zn1   S    
C34   C45   A    
C32   C37   S    
C12   C35   S    
C13   C38   S    
C2    H23   S    
C48   C49   A    
C20   C22   A    
C4    O4    A    
C43   H31   S    
C40   H28   S    
C21   C24   A    
C42   C43   S    
C27   C28   A    
C27   H2    S    
C46   H37   S    
C9    C10   A    
C15   C17   A    
N2    Zn2   S    
C38   H21   S    
C40   C41   S    
C33   H7    S    
C31   C36   S    
O4    Zn2   S    
C1    C10   S    
C3    C5    A    
C19   C34   S    
C25   C42   S    
C15   H43   S    
C28   H3    S    
C6    C7    A    
C16   H44   S    
O2    Zn2   S    
C30   C36   S    
C17   C25   A    
C23   H15   S    
C2    C3    A    
C25   C26   A    
C41   H26   S    
C30   C32   S    
C19   O5    A    
C11   H40   S    
C5    C6    A    
C39   H20   S    
C13   C22   A    
O6    Zn2   S    
C10   C11   A    
C9    H34   S    
C14   C40   S    
C20   C21   A    
C16   C18   A    
C4    O3    A    
C29   C37   S    
C45   H16   S    
C40   H27   S    
C31   H5    S    
C44   H38   S    
C8    C49   A    
C32   H6    S    
C44   H39   S    
C46   H36   S    
