data_mof_unit_5073.cif
_audit_creation_date              2012-12-11T17:11:33-0500
_audit_creation_method            fapswitch 2.2
_symmetry_space_group_name_H-M    P1
_symmetry_Int_Tables_number       1
_space_group_crystal_system       triclinic
_cell_length_a                    14.961475
_cell_length_b                    6.945279
_cell_length_c                    13.637406
_cell_angle_alpha                 89.532537
_cell_angle_beta                  100.824556
_cell_angle_gamma                 90.537664
_cell_volume                      1391.77972377

loop_
_atom_site_label
_atom_site_type_symbol
_atom_type_description
_atom_site_fract_x
_atom_site_fract_y
_atom_site_fract_z
_atom_type_partial_charge
O1    O     O_R   0.398250 0.605080 0.401520 -0.545140
O2    O     O_R   0.898250 0.394920 0.901520 -0.540378
O3    O     O_R   0.584130 0.932110 0.405450 -0.536991
O4    O     O_R   0.084130 0.067890 0.905450 -0.516733
O5    O     O_R   0.601750 0.105090 0.598480 -0.537030
O6    O     O_R   0.101750 0.894910 0.098480 -0.540712
C1    C     C_R   0.613805 0.765275 0.386170 0.794489
C2    C     C_R   0.112872 0.237572 0.884767 0.777583
O7    O     O_R   0.397870 0.934620 0.389680 -0.536224
O8    O     O_R   0.897870 0.065380 0.889680 -0.534401
O9    O     O_R   0.414160 0.107620 0.582600 -0.517991
O10   O     O_R   0.914160 0.892380 0.082600 -0.527751
C3    C     C_R   0.363758 0.765658 0.362998 0.741629
C4    C     C_R   0.864493 0.234241 0.862060 0.727654
O11   O     O_R   0.585840 0.602550 0.417400 -0.542419
O12   O     O_R   0.085840 0.397450 0.917400 -0.543298
O13   O     O_3   0.505560 0.772440 0.563310 -0.362484
O14   O     O_3   0.005560 0.227560 0.063310 -0.377811
V1    V     V_3+5 0.498970 0.046250 0.488250 1.468542
V2    V     V_3+5 0.998970 0.953750 0.988250 1.468366
O15   O     O_R   0.415870 0.437500 0.594550 -0.541608
O16   O     O_R   0.915870 0.562500 0.094550 -0.544471
C5    C     C_R   0.384072 0.268590 0.611508 0.693965
C6    C     C_R   0.887199 0.729081 0.115870 0.712673
O17   O     O_R   0.602130 0.434980 0.610320 -0.543115
O18   O     O_R   0.102130 0.565020 0.110320 -0.544507
C7    C     C_R   0.636011 0.266039 0.637235 0.727991
C8    C     C_R   0.135851 0.734198 0.137465 0.713514
V3    V     V_3+5 0.501030 0.546580 0.511750 1.439535
V4    V     V_3+5 0.001030 0.453420 0.011750 1.420403
O19   O     O_3   0.494440 0.270520 0.436690 -0.375766
O20   O     O_3   0.994440 0.729480 0.936690 -0.362623
C9    C     C_1   0.716544 0.255357 0.716631 -0.187218
C10   C     C_1   0.216020 0.744936 0.217280 -0.192540
C11   C     C_1   0.784014 0.244883 0.782637 -0.180901
C12   C     C_1   0.283263 0.754943 0.283599 -0.206559
C13   C     C_2   0.279667 0.112104 0.712117 0.253398
C14   C     C_2   0.747365 0.838982 0.172119 0.236329
C15   C     C_2   0.302802 0.266160 0.660254 0.119738
C16   C     C_2   0.821577 0.723553 0.186075 0.111544
C17   C     C_2   0.194080 0.119116 0.754655 0.352608
C18   C     C_2   0.671028 0.805720 0.229160 0.353732
C19   C     C_2   0.185850 0.248894 0.825589 -0.387845
C20   C     C_2   0.687009 0.765161 0.327737 -0.357504
H1    H     H_    0.236910 0.361696 0.844138 0.114966
H2    H     H_    0.755831 0.751832 0.369363 0.108604
O21   O     O_3   0.333117 0.947106 0.718418 -0.554893
C21   C     C_3   0.324184 0.829086 0.800982 0.153052
H3    H     H_    0.260506 0.742149 0.783258 0.194016
H4    H     H_    0.324329 0.914771 0.869808 0.083477
C22   C     C_3   0.404393 0.692501 0.822564 -0.689255
H5    H     H_    0.467642 0.773461 0.853527 0.206867
H6    H     H_    0.391905 0.580783 0.877038 0.158411
H7    H     H_    0.413546 0.620301 0.753175 0.258089
O22   O     O_3   0.735249 0.968179 0.092429 -0.561737
C23   C     C_3   0.711997 0.151354 0.123838 0.109326
H8    H     H_    0.758613 0.196683 0.193679 0.143024
H9    H     H_    0.640551 0.152893 0.135635 0.160918
C24   C     C_3   0.720009 0.297781 0.042688 -0.660457
H10   H     H_    0.673930 0.257900 0.971945 0.203352
H11   H     H_    0.701668 0.442701 0.065488 0.162289
H12   H     H_    0.791065 0.302059 0.030579 0.236303
O23   O     O_3   0.249690 0.430399 0.653228 -0.565596
C25   C     C_3   0.204973 0.456271 0.553144 0.093384
H13   H     H_    0.163423 0.327061 0.525615 0.079052
H14   H     H_    0.254054 0.486815 0.502973 0.129546
C26   C     C_3   0.142013 0.627387 0.547432 -0.690751
H15   H     H_    0.182185 0.758890 0.572871 0.249955
H16   H     H_    0.105915 0.649747 0.469328 0.150079
H17   H     H_    0.091422 0.600069 0.595902 0.225070
O24   O     O_3   0.824560 0.567256 0.251042 -0.570133
C27   C     C_3   0.908564 0.565383 0.318906 0.084092
H18   H     H_    0.923103 0.707431 0.356328 0.093915
H19   H     H_    0.965516 0.527891 0.280855 0.128975
C28   C     C_3   0.904123 0.413145 0.398838 -0.735332
H20   H     H_    0.890188 0.269415 0.363845 0.214049
H21   H     H_    0.969902 0.407944 0.452304 0.172435
H22   H     H_    0.849198 0.447838 0.440299 0.217159
O25   O     O_3   0.126564 0.982002 0.725680 -0.550381
C29   C     C_3   0.060625 0.060704 0.647903 0.104498
H23   H     H_    0.083270 0.043563 0.575408 0.108763
H24   H     H_    0.047576 0.216599 0.658554 0.109295
C30   C     C_3   0.970449 0.954643 0.643121 -0.708179
H25   H     H_    0.918956 0.014320 0.581230 0.164437
H26   H     H_    0.978202 0.798950 0.630073 0.213457
H27   H     H_    0.945922 0.972686 0.714330 0.229195
O26   O     O_3   0.581912 0.835090 0.181452 -0.558377
C31   C     C_3   0.552596 0.675202 0.120265 0.109978
H28   H     H_    0.575167 0.535702 0.157837 0.112703
H29   H     H_    0.578538 0.687789 0.049175 0.140762
C32   C     C_3   0.449188 0.671459 0.096628 -0.721483
H30   H     H_    0.423277 0.801730 0.053038 0.220135
H31   H     H_    0.424940 0.540876 0.052907 0.171438
H32   H     H_    0.422172 0.667183 0.167022 0.221837

loop_
_geom_bond_atom_site_label_1
_geom_bond_atom_site_label_2
_ccdc_geom_bond_type
C14   C16   D    
O22   C23   S    
C16   O24   S    
O13   V3    S    
C2    C19   S    
O4    C2    A    
V1    O19   S    
C7    C9    S    
O9    V1    S    
C14   C18   S    
O3    C1    A    
C29   C30   S    
C9    C11   T    
O12   V4    S    
C23   H8    S    
O7    C3    A    
O13   V1    S    
O5    C7    A    
O7    V1    S    
C21   C22   S    
O6    C8    A    
C14   O22   S    
C30   H25   S    
O8    V2    S    
O3    V1    S    
O14   V4    S    
C13   O21   S    
C10   C12   T    
C21   H4    S    
C8    C10   S    
C24   H10   S    
C2    O12   A    
C17   C19   D    
C18   C20   D    
C27   C28   S    
C20   H2    S    
O11   V3    S    
O17   V3    S    
C24   H11   S    
C26   H15   S    
C25   C26   S    
C3    C12   S    
C29   H24   S    
O8    C4    A    
C4    C11   S    
C27   H18   S    
C1    O11   A    
O23   C25   S    
O15   V3    S    
C22   H5    S    
C26   H16   S    
C25   H14   S    
C28   H20   S    
C32   H31   S    
C28   H21   S    
O21   C21   S    
C31   C32   S    
O10   V2    S    
O1    V3    S    
C1    C20   S    
C19   H1    S    
C27   H19   S    
C21   H3    S    
C30   H26   S    
C31   H29   S    
O18   V4    S    
O15   C5    A    
O16   C6    A    
O1    C3    A    
C32   H30   S    
C15   O23   S    
V2    O20   S    
C24   H12   S    
O16   V4    S    
C29   H23   S    
C17   O25   S    
O5    V1    S    
O17   C7    A    
O6    V2    S    
O10   C6    A    
O18   C8    A    
C23   C24   S    
O2    V4    S    
C26   H17   S    
C25   H13   S    
C22   H7    S    
O24   C27   S    
V3    O19   S    
C32   H32   S    
V4    O20   S    
C5    C15   S    
O9    C5    A    
C6    C16   S    
C23   H9    S    
O14   V2    S    
C13   C17   S    
O2    C4    A    
C28   H22   S    
O25   C29   S    
O4    V2    S    
C30   H27   S    
C31   H28   S    
O26   C31   S    
C13   C15   D    
C18   O26   S    
C22   H6    S    
