data_mof_unit_42468.cif
_audit_creation_date              2012-12-10T17:19:54-0500
_audit_creation_method            fapswitch 2.2
_symmetry_space_group_name_H-M    P1
_symmetry_Int_Tables_number       1
_space_group_crystal_system       triclinic
_cell_length_a                    9.608624
_cell_length_b                    10.890394
_cell_length_c                    15.588218
_cell_angle_alpha                 85.607635
_cell_angle_beta                  73.737621
_cell_angle_gamma                 91.206032
_cell_volume                      1559.77462748

loop_
_atom_site_label
_atom_site_type_symbol
_atom_type_description
_atom_site_fract_x
_atom_site_fract_y
_atom_site_fract_z
_atom_type_partial_charge
C1    C     C_R   0.000847 0.262898 0.495026 0.830994
C2    C     C_R   0.679245 0.509011 0.910412 0.024731
C3    C     C_R   0.783433 0.498408 0.958661 0.116903
C4    C     C_R   0.534983 0.536139 0.955885 0.091481
C5    C     C_R   0.487512 0.520672 0.050831 0.059298
C6    C     C_R   0.592399 0.499569 0.097879 -0.209890
C7    C     C_R   0.738689 0.493185 0.052162 -0.203002
C8    C     C_R   0.440873 0.587451 0.909067 -0.135330
C9    C     C_R   0.297772 0.608484 0.953214 -0.236077
C10   C     C_R   0.243923 0.577644 0.045216 0.164144
C11   C     C_R   0.337767 0.531724 0.094910 0.093553
C12   C     C_R   0.917018 0.495401 0.672362 0.831551
C13   C     C_R   0.097351 0.593772 0.088384 -0.206464
C14   C     C_R   0.041452 0.561787 0.179999 -0.196731
C15   C     C_R   0.278095 0.497838 0.186832 -0.203205
C16   C     C_R   0.271189 0.131620 0.424718 -0.132374
C17   C     C_R   0.401386 0.077390 0.424110 -0.084985
C18   C     C_R   0.399195 0.961106 0.467790 -0.076796
C19   C     C_R   0.267767 0.894225 0.503877 -0.097816
C20   C     C_R   0.135774 0.942544 0.495321 0.124753
C21   C     C_R   0.136121 0.069205 0.468990 0.037903
C22   C     C_R   0.001997 0.128917 0.488621 -0.205750
C23   C     C_R   0.999815 0.736913 0.505683 0.869189
C24   C     C_R   0.870313 0.056777 0.513130 0.385005
C25   C     C_R   0.873793 0.929808 0.519376 -0.249876
C26   C     C_R   0.004079 0.870911 0.510460 -0.175470
C27   C     C_R   0.714244 0.650703 0.371608 -0.138353
C28   C     C_R   0.689543 0.707006 0.295994 -0.323031
C29   C     C_R   0.552888 0.703837 0.286884 -0.192157
C30   C     C_R   0.435720 0.653497 0.356886 0.384438
C31   C     C_R   0.458588 0.575926 0.432989 0.086014
C32   C     C_R   0.607764 0.575130 0.435809 0.153491
C33   C     C_R   0.544648 0.426155 0.559358 0.053107
C34   C     C_R   0.082551 0.500215 0.328143 0.828334
C35   C     C_R   0.396825 0.427337 0.560237 -0.049586
C36   C     C_R   0.870214 0.491969 0.771325 -0.114308
C37   C     C_R   0.132069 0.515586 0.229879 -0.016414
C38   C     C_R   0.930391 0.490827 0.912547 -0.199118
C39   C     C_R   0.974047 0.495077 0.819191 -0.236630
C40   C     C_R   0.721479 0.485952 0.819209 0.296877
Cu1   Cu    Cu3+1 0.140660 0.499990 0.500010 0.971460
Cu2   Cu    Cu3+1 0.859340 0.500010 0.499990 0.998384
H1    H     H_    0.816430 0.481082 0.090374 0.149212
H2    H     H_    0.026330 0.632814 0.051441 0.136243
H3    H     H_    0.277859 0.221649 0.389020 0.150137
H4    H     H_    0.503736 0.127204 0.392081 0.164601
H5    H     H_    0.499648 0.921311 0.471993 0.161798
H6    H     H_    0.272590 0.806607 0.539799 0.159811
H7    H     H_    0.772114 0.876654 0.533201 0.194588
H8    H     H_    0.576176 0.363677 0.607006 0.220882
H9    H     H_    0.821060 0.668283 0.374796 0.222608
H10   H     H_    0.776509 0.758173 0.245426 0.181123
H11   H     H_    0.343228 0.456497 0.226484 0.138658
H12   H     H_    0.537748 0.754472 0.227571 0.203461
H13   H     H_    0.317874 0.367347 0.609638 0.157186
H14   H     H_    0.928647 0.576242 0.212048 0.155863
H15   H     H_    0.228533 0.647510 0.914914 0.149290
H16   H     H_    0.011751 0.483383 0.948348 0.155223
H17   H     H_    0.088925 0.495551 0.784888 0.183267
H18   H     H_    0.565974 0.494728 0.170022 0.149192
H19   H     H_    0.478783 0.616080 0.838115 0.185453
N1    N     N_R   0.648320 0.501210 0.499140 -0.203969
N2    N     N_R   0.352470 0.501290 0.499110 -0.204135
O1    O     O_R   0.118810 0.319640 0.500010 -0.600119
O2    O     O_R   0.881240 0.319660 0.500000 -0.514744
O3    O     O_R   0.055570 0.499980 0.629840 -0.602025
O4    O     O_R   0.818000 0.500010 0.629830 -0.530690
O5    O     O_R   0.118760 0.680340 0.500000 -0.544949
O6    O     O_R   0.881190 0.680360 0.499990 -0.616966
O7    O     O_R   0.182000 0.499990 0.370170 -0.554668
O8    O     O_R   0.944430 0.500020 0.370160 -0.612019
Cl1   Cl    Cl    0.695467 0.116685 0.536639 -0.655827
Cl2   Cl    Cl    0.285890 0.729792 0.337977 -0.646525
Cl3   Cl    Cl    0.592944 0.411609 0.775712 -0.650206

loop_
_geom_bond_atom_site_label_1
_geom_bond_atom_site_label_2
_ccdc_geom_bond_type
C8    C9    A    
C14   H14   S    
C16   C21   A    
C34   C37   S    
Cu1   Cu2   S    
C23   O6    A    
C19   C20   A    
C4    C8    A    
C18   H5    S    
C5    C6    A    
C15   H11   S    
C28   C29   A    
C5    C11   A    
C3    C7    A    
C30   C31   A    
C29   H12   S    
C18   C19   A    
C23   C26   S    
C15   C37   A    
C38   H16   S    
C11   C15   A    
C3    C38   A    
C33   N1    A    
Cu2   O2    S    
C1    O2    A    
C7    H1    S    
C12   C36   S    
C9    C10   A    
Cu2   N1    S    
C8    H19   S    
C1    C22   S    
C21   C22   A    
C27   H9    S    
Cu1   O5    S    
C12   O4    A    
C35   H13   S    
C31   N2    A    
C36   C40   A    
C17   H4    S    
C30   Cl2   S    
C19   H6    S    
C16   C17   A    
C25   C26   A    
C12   O3    A    
Cu2   O6    S    
C23   O5    A    
C2    C4    A    
C29   C30   A    
C6    H18   S    
C31   C32   A    
C39   H17   S    
C17   C18   A    
C24   C25   A    
Cu1   O3    S    
Cu2   O4    S    
C22   C24   A    
Cu1   N2    S    
C1    O1    A    
C24   Cl1   S    
C34   O7    A    
C27   C32   A    
C36   C39   A    
C4    C5    A    
C10   C13   A    
C16   H3    S    
C6    C7    A    
C2    C3    A    
C33   H8    S    
C32   N1    A    
C14   C37   A    
C28   H10   S    
C38   C39   A    
C20   C26   A    
Cu2   O8    S    
C33   C35   A    
C40   Cl3   S    
C9    H15   S    
C25   H7    S    
C10   C11   A    
C2    C40   A    
C20   C21   A    
C27   C28   A    
C35   N2    A    
Cu1   O1    S    
C13   C14   A    
C34   O8    A    
C13   H2    S    
Cu1   O7    S    
