data_mof_unit_14765.cif
_audit_creation_date              2012-12-11T15:11:52-0500
_audit_creation_method            fapswitch 2.2
_symmetry_space_group_name_H-M    P1
_symmetry_Int_Tables_number       1
_space_group_crystal_system       triclinic
_cell_length_a                    20.05765
_cell_length_b                    7.259624
_cell_length_c                    14.480169
_cell_angle_alpha                 90.296749
_cell_angle_beta                  102.385582
_cell_angle_gamma                 89.852973
_cell_volume                      2059.369967

loop_
_atom_site_label
_atom_site_type_symbol
_atom_type_description
_atom_site_fract_x
_atom_site_fract_y
_atom_site_fract_z
_atom_type_partial_charge
O1    O     O_R   0.449830 0.506740 0.599960 -0.551296
O2    O     O_R   0.550170 0.006740 0.400040 -0.546303
O3    O     O_R   0.588980 0.179860 0.596720 -0.563607
O4    O     O_R   0.411020 0.679860 0.403280 -0.557771
C1    C     C_R   0.617229 0.344936 0.614915 0.769944
C2    C     C_R   0.383512 0.845725 0.382869 0.719282
O5    O     O_R   0.452740 0.177340 0.612040 -0.539345
O6    O     O_R   0.547260 0.677340 0.387960 -0.533809
O7    O     O_R   0.412960 0.002070 0.415460 -0.554377
O8    O     O_R   0.587040 0.502070 0.584540 -0.510176
C3    C     C_R   0.434747 0.346055 0.634544 0.694447
C4    C     C_R   0.563543 0.845703 0.364294 0.725094
O9    O     O_3   0.487110 0.337570 0.435490 -0.398328
O10   O     O_3   0.512890 0.837570 0.564510 -0.383524
V1    V     V_3+5 0.502390 0.064650 0.511970 1.407844
V2    V     V_3+5 0.497610 0.564650 0.488030 1.434468
C5    C     C_R   0.608015 0.943661 0.129341 0.186438
C6    C     C_R   0.398477 0.375774 0.881697 0.190785
C7    C     C_R   0.602371 0.856941 0.289224 -0.090945
C8    C     C_R   0.398090 0.355536 0.713266 -0.079095
C9    C     C_R   0.925169 0.732792 0.291095 0.297427
C10   C     C_R   0.074485 0.251060 0.705056 0.292049
C11   C     C_R   0.884891 0.631926 0.342436 0.043058
C12   C     C_R   0.112580 0.200359 0.637832 0.029664
C13   C     C_R   0.813239 0.638154 0.313791 0.329598
C14   C     C_R   0.184417 0.209365 0.661961 0.332701
C15   C     C_R   0.782140 0.774159 0.250155 -0.017788
C16   C     C_R   0.217551 0.302831 0.745219 -0.017335
C17   C     C_R   0.820624 0.841668 0.185373 -0.115488
C18   C     C_R   0.179279 0.347624 0.814375 -0.117061
C19   C     C_R   0.710762 0.819173 0.237075 0.036333
C20   C     C_R   0.289806 0.337010 0.765195 0.025078
C21   C     C_R   0.676228 0.877597 0.146327 -0.022013
C22   C     C_R   0.326054 0.350794 0.860244 -0.049101
C23   C     C_R   0.711089 0.871022 0.073028 0.338860
C24   C     C_R   0.288187 0.349002 0.931023 0.344349
C25   C     C_R   0.782841 0.881765 0.093368 0.086857
C26   C     C_R   0.216868 0.375208 0.907910 0.089524
C27   C     C_R   0.672968 0.813814 0.310213 0.064923
C28   C     C_R   0.326413 0.366544 0.693247 0.136033
C29   C     C_R   0.570617 0.929379 0.200629 0.089457
C30   C     C_R   0.434344 0.363517 0.807843 0.084441
C31   C     C_R   0.894170 0.834397 0.210041 -0.115594
C32   C     C_R   0.105844 0.338750 0.790232 -0.115336
C33   C     C_3   0.238680 0.764644 0.156148 -0.089872
C34   C     C_3   0.764312 0.248464 0.839476 -0.065028
H1    H     H_    0.218643 0.624423 0.154750 0.129372
H2    H     H_    0.790837 0.116091 0.847031 0.136843
C35   C     C_3   0.310508 0.753719 0.223614 0.095155
C36   C     C_3   0.697801 0.214985 0.763637 0.082785
H3    H     H_    0.322124 0.608927 0.241435 0.084928
H4    H     H_    0.703739 0.077787 0.733443 0.071413
C37   C     C_3   0.178924 0.786681 0.297405 0.344700
C38   C     C_3   0.822269 0.302115 0.700165 0.321803
C39   C     C_3   0.214319 0.078098 0.219470 0.421764
C40   C     C_3   0.778593 0.573974 0.788583 0.383049
C41   C     C_3   0.184139 0.876085 0.198480 -0.094537
C42   C     C_3   0.815183 0.375746 0.802053 -0.089938
C43   C     C_3   0.310924 0.859534 0.316726 -0.092870
C44   C     C_3   0.689519 0.358747 0.681387 -0.054381
C45   C     C_3   0.254100 0.767548 0.364659 0.397166
C46   C     C_3   0.749818 0.320001 0.626018 0.395764
C47   C     C_3   0.288746 0.068805 0.291596 0.419390
C48   C     C_3   0.700890 0.560027 0.725756 0.422177
O11   O     O_R   0.912980 0.203550 0.915410 -0.552724
O12   O     O_R   0.087020 0.703550 0.084590 -0.548678
O13   O     O_R   0.047270 0.535570 0.887960 -0.559828
O14   O     O_R   0.952730 0.035570 0.112040 -0.557560
C49   C     C_R   0.062023 0.364970 0.861055 0.759336
C50   C     C_R   0.938360 0.865170 0.139625 0.755600
O15   O     O_R   0.911030 0.532970 0.903270 -0.529752
O16   O     O_R   0.088970 0.032970 0.096730 -0.531566
O17   O     O_R   0.949820 0.708150 0.099970 -0.534976
O18   O     O_R   0.050180 0.208150 0.900030 -0.530361
C51   C     C_R   0.885476 0.367643 0.878091 0.708428
C52   C     C_R   0.114003 0.867505 0.122714 0.713211
O19   O     O_3   0.012900 0.375230 0.064480 -0.387339
O20   O     O_3   0.987100 0.875230 0.935520 -0.386708
V3    V     V_3+5 0.997610 0.648190 0.988040 1.422536
V4    V     V_3+5 0.002390 0.148190 0.011960 1.422159
C53   C     C_3   0.497406 0.996414 0.182188 -0.724800
H5    H     H_    0.468013 0.937108 0.114883 0.231464
H6    H     H_    0.470862 0.956796 0.238069 0.231441
H7    H     H_    0.496116 0.149119 0.178863 0.203411
C54   C     C_3   0.510933 0.372843 0.829846 -0.747144
H8    H     H_    0.532277 0.266980 0.882688 0.236621
H9    H     H_    0.532165 0.347046 0.767119 0.222978
H10   H     H_    0.527595 0.512352 0.856577 0.214323
C55   C     C_3   0.244822 0.821663 0.053907 -0.581346
H11   H     H_    0.276883 0.944899 0.052808 0.292316
H12   H     H_    0.272049 0.715592 0.021185 0.156351
H13   H     H_    0.194695 0.849015 0.006524 0.189028
C56   C     C_3   0.751803 0.302764 0.939720 -0.569255
H14   H     H_    0.719977 0.423495 0.942921 0.260253
H15   H     H_    0.723084 0.197300 0.968643 0.176050
H16   H     H_    0.800278 0.330638 0.990844 0.182792
O21   O     O_3   0.363176 0.813180 0.181039 -0.659242
H17   H     H_    0.376048 0.708796 0.143746 0.284708
O22   O     O_3   0.640783 0.208542 0.805136 -0.664730
H18   H     H_    0.614324 0.095627 0.782317 0.289805
O23   O     O_3   0.149276 0.611514 0.277702 -0.678490
H19   H     H_    0.099739 0.622925 0.250398 0.327513
O24   O     O_3   0.840472 0.114770 0.708029 -0.674439
H20   H     H_    0.887374 0.102032 0.747027 0.325125
C57   C     C_3   0.267350 0.561550 0.386674 -0.743546
H21   H     H_    0.262005 0.478444 0.321927 0.218798
H22   H     H_    0.317653 0.534576 0.431801 0.190452
H23   H     H_    0.228244 0.510936 0.424071 0.257068
C58   C     C_3   0.735441 0.146860 0.561490 -0.737221
H24   H     H_    0.729849 0.020945 0.600550 0.212858
H25   H     H_    0.689016 0.168092 0.505092 0.199062
H26   H     H_    0.778510 0.121931 0.525799 0.212480
C59   C     C_3   0.162683 0.217123 0.251179 -0.676547
H27   H     H_    0.177303 0.269939 0.324011 0.240632
H28   H     H_    0.154152 0.336338 0.203065 0.238229
H29   H     H_    0.110262 0.167077 0.243639 0.187661
C60   C     C_3   0.819958 0.722044 0.747462 -0.671701
H30   H     H_    0.807924 0.731919 0.669684 0.247684
H31   H     H_    0.805553 0.856320 0.772083 0.209532
H32   H     H_    0.875876 0.711180 0.770967 0.218359
O25   O     O_3   0.221759 0.145515 0.132275 -0.643470
H33   H     H_    0.239948 0.270590 0.143958 0.296119
O26   O     O_3   0.777740 0.636931 0.878993 -0.647323
H34   H     H_    0.747383 0.743452 0.870790 0.305045
C61   C     C_3   0.343876 0.174267 0.248125 -0.704882
H35   H     H_    0.397187 0.168339 0.286395 0.222681
H36   H     H_    0.344589 0.129981 0.175440 0.280929
H37   H     H_    0.332942 0.321977 0.245888 0.146489
C62   C     C_3   0.642992 0.611436 0.780328 -0.716125
H38   H     H_    0.591314 0.598717 0.736053 0.217653
H39   H     H_    0.643185 0.531366 0.843762 0.255495
H40   H     H_    0.644490 0.758967 0.800359 0.163375
O27   O     O_3   0.283651 0.155899 0.377239 -0.653324
H41   H     H_    0.327027 0.217214 0.406799 0.311236
O28   O     O_3   0.692084 0.685470 0.649740 -0.616184
H42   H     H_    0.684481 0.809966 0.672806 0.279722
C63   C     C_3   0.131411 0.889212 0.352692 -0.673213
H43   H     H_    0.154392 0.013914 0.389908 0.235617
H44   H     H_    0.082349 0.925728 0.305625 0.198705
H45   H     H_    0.120356 0.797728 0.408862 0.236176
C64   C     C_3   0.881030 0.397287 0.662945 -0.721096
H46   H     H_    0.869321 0.530119 0.627351 0.198266
H47   H     H_    0.925996 0.421108 0.720937 0.212224
H48   H     H_    0.896031 0.306948 0.608768 0.241236
O29   O     O_3   0.675288 0.821240 0.984363 -0.655640
H49   H     H_    0.673165 0.929421 0.942844 0.281751
O30   O     O_3   0.319399 0.303599 0.022076 -0.654900
H50   H     H_    0.326665 0.419842 0.058924 0.263652
O31   O     O_3   0.255867 0.853940 0.452960 -0.625779
H51   H     H_    0.301589 0.837032 0.494614 0.298177
O32   O     O_3   0.751420 0.468843 0.564593 -0.634999
H52   H     H_    0.778531 0.435329 0.517222 0.310170
C65   C     C_3   0.577465 0.043884 0.037997 -0.744044
H53   H     H_    0.615993 0.136258 0.018114 0.202961
H54   H     H_    0.558003 0.943333 0.980607 0.234250
H55   H     H_    0.535121 0.136944 0.043748 0.204845
C66   C     C_3   0.436601 0.430718 0.980769 -0.740287
H56   H     H_    0.411869 0.553614 0.004707 0.189181
H57   H     H_    0.437822 0.314678 0.030362 0.233458
H58   H     H_    0.490339 0.471647 0.986854 0.209643
C67   C     C_3   0.705998 0.776664 0.412448 -0.605425
H59   H     H_    0.682894 0.861153 0.460694 0.178385
H60   H     H_    0.695269 0.632244 0.427416 0.274624
H61   H     H_    0.761077 0.810080 0.430967 0.203039
C68   C     C_3   0.291708 0.444400 0.599774 -0.709394
H62   H     H_    0.318637 0.572093 0.587715 0.189563
H63   H     H_    0.294098 0.340691 0.544347 0.241838
H64   H     H_    0.238157 0.486925 0.596575 0.217485
O33   O     O_3   0.995239 0.716660 0.310217 -0.680095
H65   H     H_    0.011358 0.616589 0.355403 0.303980
O34   O     O_3   0.007746 0.194799 0.694880 -0.670346
H66   H     H_    0.000200 0.080928 0.656051 0.303391
O35   O     O_3   0.772708 0.498851 0.336213 -0.652128
H67   H     H_    0.799613 0.383294 0.346524 0.293648
O36   O     O_3   0.223894 0.113423 0.610448 -0.630032
H68   H     H_    0.196024 0.017696 0.571469 0.334123
C69   C     C_3   0.917832 0.517978 0.427111 -0.836484
H69   H     H_    0.955257 0.602680 0.477329 0.225261
H70   H     H_    0.880296 0.469338 0.467000 0.212989
H71   H     H_    0.943586 0.396020 0.403918 0.213165
C70   C     C_3   0.076545 0.141659 0.539477 -0.823647
H72   H     H_    0.023015 0.191768 0.521619 0.228741
H73   H     H_    0.102217 0.203891 0.486495 0.224707
H74   H     H_    0.076655 0.989217 0.533207 0.212632
C71   C     C_3   0.816577 0.929918 0.015340 -0.706078
H75   H     H_    0.779252 0.956827 0.953357 0.176244
H76   H     H_    0.843720 0.060662 0.031312 0.209483
H77   H     H_    0.848343 0.817659 0.996792 0.258881
C72   C     C_3   0.183444 0.432278 0.985195 -0.700613
H78   H     H_    0.221597 0.464822 0.045423 0.173812
H79   H     H_    0.156946 0.563833 0.967507 0.210287
H80   H     H_    0.151716 0.322994 0.006250 0.249820

loop_
_geom_bond_atom_site_label_1
_geom_bond_atom_site_label_2
_ccdc_geom_bond_type
O14   V4    S    
O34   H66   S    
C39   O25   S    
C56   H14   S    
C15   C17   A    
C60   H30   S    
O33   H65   S    
O30   H50   S    
O1    C3    A    
O16   C52   A    
C5    C65   S    
C67   H61   S    
C2    O7    A    
O15   V3    S    
C53   H5    S    
O3    V1    S    
O26   H34   S    
C54   H8    S    
O5    C3    A    
O12   V3    S    
C63   H44   S    
C33   C41   S    
C36   O22   S    
C68   H62   S    
C37   C63   S    
C47   O27   S    
C41   C52   S    
C34   C56   S    
C56   H16   S    
C23   C25   A    
C12   C14   A    
C62   H38   S    
C64   H47   S    
C23   O29   S    
C8    C28   A    
O20   V4    S    
C54   H10   S    
O31   H51   S    
C18   C26   A    
C44   C46   S    
C40   C60   S    
C72   H79   S    
C56   H15   S    
C58   H25   S    
C53   H6    S    
C9    C31   A    
C37   C45   S    
C66   H56   S    
C10   C32   A    
C65   H53   S    
O36   H68   S    
C37   O23   S    
C35   H3    S    
C39   C47   S    
C61   H37   S    
C36   H4    S    
O32   H52   S    
C40   C48   S    
C33   C35   S    
C27   C67   S    
C33   C55   S    
C10   O34   S    
C63   H43   S    
C59   H29   S    
C26   C72   S    
C54   H9    S    
C48   O28   S    
O2    C4    A    
O6    V2    S    
O11   V4    S    
O18   V4    S    
C17   C31   A    
C18   C32   A    
C5    C21   A    
C62   H40   S    
C67   H60   S    
C28   C68   S    
C42   C51   S    
O21   H17   S    
C33   H1    S    
O17   V3    S    
C70   H73   S    
C57   H23   S    
C34   H2    S    
C3    C8    S    
C43   C45   S    
C46   O32   S    
C15   C19   A    
O23   H19   S    
C38   O24   S    
O28   H42   S    
O13   V3    S    
O4    C2    A    
C64   H48   S    
C30   C54   S    
C37   C41   S    
O20   V3    S    
C71   H77   S    
C39   C59   S    
C69   H70   S    
C70   H72   S    
C35   O21   S    
C6    C30   A    
C25   C71   S    
O13   C49   A    
C20   C22   A    
O4    V2    S    
C72   H80   S    
C40   O26   S    
C39   C41   S    
C57   H22   S    
C24   O30   S    
C8    C30   A    
O22   H18   S    
C16   C20   A    
O6    C4    A    
C69   H71   S    
C29   C53   S    
C38   C64   S    
C50   O17   A    
C19   C21   A    
O25   H33   S    
O19   V3    S    
C49   O18   A    
O1    V2    S    
C55   H13   S    
O2    V1    S    
C6    C22   A    
C65   H54   S    
C47   C61   S    
C7    C27   A    
O14   C50   A    
C31   C50   S    
C9    C11   A    
C61   H35   S    
C10   C12   A    
C58   H26   S    
C55   H12   S    
C24   C26   A    
O29   H49   S    
C53   H7    S    
C45   C57   S    
C61   H36   S    
C59   H27   S    
C38   C42   S    
C70   H74   S    
C1    C44   S    
C12   C70   S    
C43   C47   S    
C2    C43   S    
O3    C1    A    
C35   C43   S    
C66   H57   S    
C66   H58   S    
C68   H64   S    
C38   C46   S    
C57   H21   S    
C34   C36   S    
C14   C16   A    
O11   C51   A    
C44   C48   S    
C36   C44   S    
C60   H32   S    
C60   H31   S    
O7    V1    S    
C16   C18   A    
O16   V4    S    
C6    C66   S    
O8    V2    S    
C64   H46   S    
O15   C51   A    
O19   V4    S    
C65   H55   S    
C71   H75   S    
O27   H41   S    
C46   C58   S    
C67   H59   S    
C14   O36   S    
C9    O33   S    
C63   H45   S    
C4    C7    S    
O5    V1    S    
C21   C23   A    
C40   C42   S    
C22   C24   A    
C20   C28   A    
C72   H78   S    
C5    C29   A    
C11   C69   S    
C71   H76   S    
O35   H67   S    
C13   O35   S    
C1    O8    A    
C11   C13   A    
C48   C62   S    
C68   H63   S    
C69   H69   S    
O9    V2    S    
C17   C25   A    
O24   H20   S    
C19   C27   A    
C32   C49   S    
O10   V1    S    
C59   H28   S    
C55   H11   S    
C58   H24   S    
C45   O31   S    
C34   C42   S    
O12   C52   A    
C7    C29   A    
C62   H39   S    
C13   C15   A    
