data_mof_unit_30519.cif
_audit_creation_date              2012-12-11T15:41:10-0500
_audit_creation_method            fapswitch 2.2
_symmetry_space_group_name_H-M    P1
_symmetry_Int_Tables_number       1
_space_group_crystal_system       triclinic
_cell_length_a                    19.061304
_cell_length_b                    10.951707
_cell_length_c                    18.788316
_cell_angle_alpha                 89.793864
_cell_angle_beta                  90.203694
_cell_angle_gamma                 89.776608
_cell_volume                      3922.05249264

loop_
_atom_site_label
_atom_site_type_symbol
_atom_type_description
_atom_site_fract_x
_atom_site_fract_y
_atom_site_fract_z
_atom_type_partial_charge
C1    C     C_R   0.725854 0.958075 0.854838 0.543489
C2    C     C_R   0.309162 0.442237 0.036129 -0.003718
C3    C     C_R   0.760890 0.862637 0.353506 0.534676
C4    C     C_2   0.497891 0.167489 0.921161 -0.114254
C5    C     C_2   0.501683 0.171424 0.078691 -0.131552
C6    C     C_2   0.997913 0.667487 0.921173 -0.114132
C7    C     C_2   0.001708 0.671432 0.078702 -0.131561
C8    C     C_2   0.498891 0.069302 0.039815 -0.131331
C9    C     C_2   0.512017 0.070091 0.962762 -0.106282
C10   C     C_2   0.998942 0.569305 0.039830 -0.131437
C11   C     C_2   0.012067 0.570102 0.962777 -0.106206
C12   C     C_R   0.765447 0.445051 0.067600 -0.036900
C13   C     C_R   0.194220 0.962744 0.962031 -0.006221
C14   C     C_R   0.240827 0.421633 0.927895 -0.031778
C15   C     C_R   0.265450 0.945055 0.067595 -0.036933
C16   C     C_R   0.740817 0.921663 0.927903 -0.031780
C17   C     C_R   0.809161 0.942242 0.036132 -0.003699
C18   C     C_R   0.818893 0.427860 0.950169 0.203107
C19   C     C_R   0.185192 0.395037 0.043011 0.214490
C20   C     C_R   0.318914 0.927727 0.950180 0.203107
C21   C     C_R   0.685183 0.895100 0.043024 0.214489
C22   C     C_R   0.824810 0.429754 0.024159 -0.095826
C23   C     C_R   0.183345 0.385391 0.969547 -0.086542
C24   C     C_R   0.324809 0.929580 0.024171 -0.095881
C25   C     C_R   0.275606 0.962283 0.143640 0.553910
C26   C     C_R   0.683328 0.885464 0.969560 -0.086526
C27   C     C_3   0.631477 0.421538 0.049606 -0.278719
C28   C     C_3   0.349321 0.558942 0.957882 -0.241565
C29   C     C_3   0.131449 0.922003 0.049558 -0.278612
C30   C     C_3   0.849325 0.058938 0.957882 -0.241613
C31   C     C_3   0.623142 0.406551 0.969852 -0.257578
C32   C     C_3   0.355093 0.552695 0.038207 -0.269443
C33   C     C_3   0.123122 0.907005 0.969803 -0.257571
C34   C     C_3   0.855100 0.052691 0.038207 -0.269448
C35   C     C_R   0.751104 0.428946 0.919044 -0.003904
C36   C     C_R   0.225857 0.458068 0.854835 0.543487
C37   C     C_R   0.249808 0.418732 0.077750 -0.003233
C38   C     C_R   0.251133 0.928973 0.919034 -0.003927
C39   C     C_R   0.749807 0.918756 0.077757 -0.003254
C40   C     C_R   0.482983 0.169758 0.431680 0.012559
C41   C     C_R   0.491492 0.175186 0.579255 -0.002919
C42   C     C_R   0.982983 0.669757 0.431681 0.012602
C43   C     C_R   0.991486 0.675182 0.579257 -0.002924
C44   C     C_R   0.483573 0.279964 0.467851 -0.004162
C45   C     C_R   0.486479 0.284244 0.540073 0.017105
C46   C     C_R   0.983563 0.779960 0.467855 -0.004125
C47   C     C_R   0.775605 0.462279 0.143643 0.553910
C48   C     C_R   0.986458 0.784240 0.540077 0.016757
C49   C     C_R   0.476214 0.064784 0.545401 -0.162820
C50   C     C_R   0.473335 0.061804 0.471052 -0.171720
C51   C     C_R   0.976220 0.564777 0.545401 -0.162763
C52   C     C_R   0.973341 0.561799 0.471052 -0.171696
C53   C     C_R   0.529651 0.177403 0.850672 0.540854
C54   C     C_R   0.470187 0.177913 0.149277 0.556071
C55   C     C_R   0.029657 0.677403 0.850676 0.540872
C56   C     C_R   0.970193 0.677913 0.149281 0.556073
C57   C     C_3   0.527280 0.391354 0.456955 0.159513
C58   C     C_R   0.701838 0.474354 0.035021 0.029170
C59   C     C_3   0.531593 0.397596 0.537461 0.108834
C60   C     C_3   0.027255 0.891367 0.456963 0.159571
C61   C     C_3   0.031552 0.897620 0.537470 0.108749
C62   C     C_R   0.779650 0.480837 0.436110 0.023857
C63   C     C_R   0.239096 0.432499 0.571784 0.009168
C64   C     C_R   0.279647 0.980830 0.436110 0.023851
C65   C     C_R   0.739096 0.932494 0.571785 0.009169
C66   C     C_R   0.828727 0.412088 0.474076 0.007582
C67   C     C_R   0.180190 0.426294 0.527427 0.033287
C68   C     C_R   0.328728 0.912095 0.474078 0.007590
C69   C     C_R   0.303938 0.448608 0.962473 -0.015403
C70   C     C_R   0.680191 0.926309 0.527426 0.033299
C71   C     C_R   0.819369 0.386659 0.545010 0.016093
C72   C     C_R   0.185324 0.422657 0.454693 0.009518
C73   C     C_R   0.319371 0.886669 0.545012 0.016099
C74   C     C_R   0.685327 0.922672 0.454692 0.009511
C75   C     C_R   0.714143 0.509071 0.546365 -0.163442
C76   C     C_R   0.310830 0.441821 0.465804 -0.155888
C77   C     C_R   0.214136 0.009054 0.546362 -0.163455
C78   C     C_R   0.810836 0.941781 0.465810 -0.155863
C79   C     C_R   0.724576 0.536345 0.474014 -0.122013
C80   C     C_R   0.201882 0.974564 0.034990 0.029203
C81   C     C_R   0.304725 0.449197 0.539993 -0.175550
C82   C     C_R   0.224566 0.036320 0.474009 -0.122032
C83   C     C_R   0.804729 0.949162 0.539999 -0.175547
C84   C     C_3   0.857436 0.287552 0.458777 -0.258636
C85   C     C_3   0.118487 0.343079 0.528460 -0.251836
C86   C     C_3   0.357442 0.787561 0.458781 -0.258652
C87   C     C_3   0.618481 0.843106 0.528455 -0.251870
C88   C     C_3   0.848362 0.260224 0.536941 -0.249654
C89   C     C_3   0.120967 0.345816 0.447792 -0.268048
C90   C     C_3   0.348369 0.760238 0.536946 -0.249660
C91   C     C_R   0.803933 0.948613 0.962477 -0.015374
C92   C     C_3   0.620963 0.845846 0.447788 -0.268056
C93   C     C_R   0.759032 0.425781 0.580881 0.009725
C94   C     C_R   0.251171 0.417364 0.423015 0.014201
C95   C     C_R   0.259031 0.925782 0.580881 0.009722
C96   C     C_R   0.751176 0.917356 0.423017 0.014194
C97   C     C_R   0.738513 0.366020 0.851939 0.530182
C98   C     C_R   0.261076 0.366592 0.148252 0.537814
C99   C     C_R   0.238517 0.866024 0.851938 0.530193
C100  C     C_R   0.761076 0.866595 0.148254 0.537809
C101  C     C_R   0.726947 0.957094 0.646549 0.543466
C102  C     C_R   0.694169 0.462533 0.962063 -0.006158
C103  C     C_R   0.290080 0.000457 0.360051 0.565608
C104  C     C_R   0.226947 0.457094 0.646549 0.543479
C105  C     C_R   0.790081 0.500460 0.360051 0.565608
C106  C     C_R   0.528083 0.177382 0.646165 0.544066
C107  C     C_R   0.467644 0.176070 0.356966 0.565403
C108  C     C_R   0.028082 0.677382 0.646165 0.544039
C109  C     C_R   0.967644 0.676069 0.356966 0.565386
C110  C     C_R   0.740250 0.363962 0.646975 0.537650
C111  C     C_R   0.260890 0.362638 0.353505 0.534684
C112  C     C_R   0.240250 0.863962 0.646975 0.537653
Cr1   Cr    Cr6+3 0.769260 0.163750 0.750730 1.021260
Cr2   Cr    Cr6+3 0.385810 0.322400 0.252290 1.021591
Cr3   Cr    Cr6+3 0.114190 0.822400 0.747710 1.004119
Cr4   Cr    Cr6+3 0.885810 0.822400 0.252290 1.021586
Cr5   Cr    Cr6+3 0.230740 0.163750 0.249270 1.047990
Cr6   Cr    Cr6+3 0.269260 0.663750 0.750730 1.021308
Cr7   Cr    Cr6+3 0.730740 0.663750 0.249270 1.048012
Cr8   Cr    Cr6+3 0.612640 0.009910 0.748780 1.020949
Cr9   Cr    Cr6+3 0.387360 0.009910 0.251220 1.012300
Cr10  Cr    Cr6+3 0.112640 0.509910 0.748780 1.020988
Cr11  Cr    Cr6+3 0.887360 0.509910 0.251220 1.012288
Cr12  Cr    Cr6+3 0.614190 0.322400 0.747710 1.004103
H1    H     H_    0.487302 0.982432 0.064906 0.178059
H2    H     H_    0.362853 0.444660 0.443007 0.150956
H3    H     H_    0.168386 0.044730 0.573227 0.129041
H4    H     H_    0.862862 0.944591 0.443016 0.150960
H5    H     H_    0.686917 0.592533 0.446602 0.152319
H6    H     H_    0.351007 0.464608 0.572259 0.169631
H7    H     H_    0.186899 0.092484 0.446595 0.152353
H8    H     H_    0.851011 0.964555 0.572267 0.169530
H9    H     H_    0.913253 0.288107 0.442144 0.136287
H10   H     H_    0.071464 0.386461 0.551018 0.151858
H11   H     H_    0.413258 0.788116 0.442147 0.136273
H12   H     H_    0.535016 0.988338 0.940226 0.176739
H13   H     H_    0.571461 0.886496 0.551013 0.151853
H14   H     H_    0.822147 0.232515 0.424310 0.162617
H15   H     H_    0.131430 0.252168 0.551443 0.143332
H16   H     H_    0.322154 0.732517 0.424317 0.162615
H17   H     H_    0.631417 0.752189 0.551437 0.143284
H18   H     H_    0.808183 0.189514 0.547211 0.166037
H19   H     H_    0.128964 0.255238 0.423793 0.161612
H20   H     H_    0.308194 0.689523 0.547217 0.166042
H21   H     H_    0.628952 0.755265 0.423788 0.161607
H22   H     H_    0.898906 0.247612 0.565820 0.161367
H23   H     H_    0.987370 0.482428 0.064922 0.178047
H24   H     H_    0.077222 0.398058 0.423187 0.135582
H25   H     H_    0.398915 0.747634 0.565824 0.161333
H26   H     H_    0.577224 0.898101 0.423181 0.135587
H27   H     H_    0.517419 0.256866 0.054344 0.103587
H28   H     H_    0.472361 0.247973 0.942804 0.104391
H29   H     H_    0.017438 0.756881 0.054356 0.103553
H30   H     H_    0.972371 0.747959 0.942815 0.104379
H31   H     H_    0.876218 0.418720 0.047531 0.159008
H32   H     H_    0.133464 0.362808 0.945406 0.161681
H33   H     H_    0.376202 0.918385 0.047556 0.159010
H34   H     H_    0.035083 0.488363 0.940241 0.176716
H35   H     H_    0.633440 0.862914 0.945422 0.161691
H36   H     H_    0.094845 0.990541 0.072463 0.161406
H37   H     H_    0.820683 0.141553 0.939095 0.190561
H38   H     H_    0.594799 0.489926 0.072536 0.161325
H39   H     H_    0.320673 0.641550 0.939094 0.190616
H40   H     H_    0.634827 0.333456 0.079092 0.130815
H41   H     H_    0.399745 0.539861 0.930463 0.144921
H42   H     H_    0.134687 0.833925 0.079063 0.130784
H43   H     H_    0.899747 0.039844 0.930461 0.144892
H44   H     H_    0.622198 0.309247 0.953333 0.150065
H45   H     H_    0.998026 0.967934 0.431367 0.183700
H46   H     H_    0.408974 0.530372 0.057170 0.152698
H47   H     H_    0.122074 0.809690 0.953301 0.150112
H48   H     H_    0.908981 0.030358 0.057168 0.152695
H49   H     H_    0.580903 0.464904 0.946816 0.153388
H50   H     H_    0.329914 0.631468 0.065457 0.140162
H51   H     H_    0.080953 0.965497 0.946742 0.153349
H52   H     H_    0.829927 0.131471 0.065458 0.140172
H53   H     H_    0.472215 0.980885 0.575638 0.126637
H54   H     H_    0.465119 0.975996 0.444477 0.131580
H55   H     H_    0.972228 0.480876 0.575637 0.126637
H56   H     H_    0.085515 0.885919 0.559061 0.155931
H57   H     H_    0.965127 0.475990 0.444475 0.131565
H58   H     H_    0.614960 0.296650 0.448321 0.318286
H59   H     H_    0.502987 0.499022 0.615975 0.338823
H60   H     H_    0.114951 0.796701 0.448353 0.318292
H61   H     H_    0.002663 0.998743 0.615999 0.338897
H62   H     H_    0.870308 0.446094 0.862234 0.336489
H63   H     H_    0.125776 0.425938 0.124251 0.331451
H64   H     H_    0.370372 0.945896 0.862266 0.336492
H65   H     H_    0.625785 0.926001 0.124278 0.331447
H66   H     H_    0.498056 0.467935 0.431368 0.183691
H67   H     H_    0.585560 0.385854 0.559039 0.155741
H68   H     H_    0.668397 0.544756 0.573232 0.128948
O1    O     O_R   0.784290 0.290360 0.830540 -0.507246
O2    O     O_R   0.456020 0.282110 0.333230 -0.501276
O3    O     O_R   0.043980 0.782110 0.666770 -0.538040
O4    O     O_R   0.956020 0.782110 0.333230 -0.501288
O5    O     O_R   0.679070 0.374030 0.674430 -0.513989
O6    O     O_R   0.320930 0.374030 0.325570 -0.516559
O7    O     O_R   0.179070 0.874030 0.674430 -0.513932
O8    O     O_R   0.820930 0.874030 0.325570 -0.516565
O9    O     O_3   0.665360 0.165350 0.749070 -0.248655
O10   O     O_3   0.334640 0.165350 0.250930 -0.279290
O11   O     O_3   0.165360 0.665350 0.749070 -0.248659
O12   O     O_R   0.215710 0.290360 0.169460 -0.484996
O13   O     O_3   0.834640 0.665350 0.250930 -0.279295
O14   O     O_R   0.762610 0.041070 0.825230 -0.497319
O15   O     O_R   0.237390 0.041070 0.174770 -0.474885
O16   O     O_R   0.262610 0.541070 0.825230 -0.497308
O17   O     O_R   0.737390 0.541070 0.174770 -0.474873
O18   O     O_R   0.667390 0.924160 0.829970 -0.528752
O19   O     O_R   0.332610 0.924160 0.170030 -0.526766
O20   O     O_R   0.167390 0.424160 0.829970 -0.528764
O21   O     O_R   0.832610 0.424160 0.170030 -0.526759
O22   O     O_R   0.553980 0.081420 0.821780 -0.494028
O23   O     O_R   0.284290 0.790360 0.830540 -0.507234
O24   O     O_R   0.446020 0.081420 0.178220 -0.499005
O25   O     O_R   0.053980 0.581420 0.821780 -0.494000
O26   O     O_R   0.946020 0.581420 0.178220 -0.499021
O27   O     O_R   0.543210 0.283170 0.826740 -0.522427
O28   O     O_R   0.456790 0.283170 0.173260 -0.507849
O29   O     O_R   0.043210 0.783170 0.826740 -0.522459
O30   O     O_R   0.956790 0.783170 0.173260 -0.507838
O31   O     O_R   0.678350 0.375000 0.822720 -0.499969
O32   O     O_R   0.321650 0.375000 0.177280 -0.497940
O33   O     O_R   0.178350 0.875000 0.822720 -0.499979
O34   O     O_R   0.715710 0.790360 0.169460 -0.484986
O35   O     O_R   0.821650 0.875000 0.177280 -0.497939
O36   O     O_R   0.785060 0.289300 0.670580 -0.518614
O37   O     O_R   0.214940 0.289300 0.329420 -0.534462
O38   O     O_R   0.285060 0.789300 0.670580 -0.518624
O39   O     O_R   0.714940 0.789300 0.329420 -0.534464
O40   O     O_R   0.763330 0.040090 0.676940 -0.505123
O41   O     O_R   0.236670 0.040090 0.323060 -0.480808
O42   O     O_R   0.263330 0.540090 0.676940 -0.505104
O43   O     O_R   0.736670 0.540090 0.323060 -0.480797
O44   O     O_R   0.668160 0.923110 0.670000 -0.514262
O45   O     O_R   0.554690 0.080440 0.673480 -0.502143
O46   O     O_R   0.331840 0.923110 0.330000 -0.517345
O47   O     O_R   0.168160 0.423110 0.670000 -0.514256
O48   O     O_R   0.831840 0.423110 0.330000 -0.517348
O49   O     O_3   0.592163 0.367170 0.423975 -0.704972
O50   O     O_3   0.496011 0.500171 0.563648 -0.751515
O51   O     O_3   0.092147 0.867203 0.423996 -0.704982
O52   O     O_3   0.995953 0.000186 0.563644 -0.751585
O53   O     O_3   0.879536 0.415181 0.911029 -0.699672
O54   O     O_3   0.122875 0.379724 0.079047 -0.702011
O55   O     O_3   0.379561 0.914918 0.911060 -0.699670
O56   O     O_R   0.445310 0.080440 0.326520 -0.529572
O57   O     O_3   0.622868 0.879812 0.079066 -0.701967
O58   O     O_R   0.054690 0.580440 0.673480 -0.502116
O59   O     O_R   0.945310 0.580440 0.326520 -0.529573
O60   O     O_R   0.543980 0.282110 0.666770 -0.537936

loop_
_geom_bond_atom_site_label_1
_geom_bond_atom_site_label_2
_ccdc_geom_bond_type
C53   O27   A    
C7    C10   D    
C56   O30   A    
C21   C26   A    
C53   O22   A    
Cr10  O25   S    
C29   C33   S    
C4    C53   S    
C64   C103  S    
C68   C86   S    
Cr11  O59   S    
C59   H67   S    
Cr6   O11   S    
C17   C91   A    
C15   C80   A    
C65   C101  S    
C6    C55   S    
C35   C102  A    
C78   H4    S    
C56   O26   A    
C39   C100  S    
C55   O25   A    
C62   C105  S    
C2    C37   A    
C54   O24   A    
C30   C34   S    
C99   O23   A    
C109  O4    A    
C59   O50   S    
C60   H45   S    
C64   C68   A    
C2    C32   S    
C50   H54   S    
C42   C109  S    
Cr6   O38   S    
C73   C90   S    
Cr3   O33   S    
H63   O54   S    
C95   C112  S    
C90   H25   S    
C111  O6    A    
C21   O57   S    
Cr4   O8    S    
C40   C50   A    
C65   C83   A    
C74   C92   S    
C65   C70   A    
C79   H5    S    
C12   C22   A    
C94   C111  S    
C112  O38   A    
Cr11  O13   S    
H64   O55   S    
H65   O57   S    
C67   C72   A    
C17   C39   A    
C97   O1    A    
C25   O19   A    
Cr6   O42   S    
C57   O49   S    
C19   C37   A    
C76   C94   A    
C19   O54   S    
C104  O47   A    
C78   C83   A    
C105  O48   A    
Cr9   O56   S    
C109  O59   A    
C20   C24   A    
C78   C96   A    
C8    C9    S    
C106  O45   A    
C98   O32   A    
C70   C74   A    
C8    H1    S    
Cr2   O10   S    
Cr6   O23   S    
C58   C102  A    
H59   O50   S    
Cr1   O9    S    
H61   O52   S    
C2    C69   A    
C18   C35   A    
C85   H15   S    
C112  O7    A    
Cr4   O13   S    
C77   H3    S    
Cr7   O39   S    
C93   C110  S    
C55   O29   A    
C12   C58   A    
C106  O60   A    
C61   O52   S    
C104  O42   A    
C92   H21   S    
Cr12  O27   S    
C84   H14   S    
C103  O41   A    
C18   C22   A    
C23   H32   S    
C99   O33   A    
C110  O5    A    
Cr8   O18   S    
Cr8   O9    S    
C105  O43   A    
C7    C56   S    
C87   H13   S    
C12   C47   S    
C51   H55   S    
C70   C87   S    
C41   C49   A    
C37   C98   S    
C14   C23   A    
C11   H34   S    
C29   H36   S    
C49   H53   S    
C22   H31   S    
C20   O55   S    
C16   C26   A    
C4    H28   S    
C10   H23   S    
C46   C48   A    
C84   H9    S    
C67   C85   S    
Cr7   O17   S    
C41   C106  S    
C62   C66   A    
Cr4   O35   S    
C27   C31   S    
C51   C52   A    
C61   H56   S    
C31   C102  S    
C74   C96   A    
C5    C54   S    
C28   C32   S    
C52   H57   S    
C86   C90   S    
C3    O39   A    
C6    C11   D    
C87   C92   S    
C85   C89   S    
C76   H2    S    
C38   C99   S    
Cr1   O36   S    
C68   C73   A    
C89   H19   S    
Cr3   O7    S    
Cr12  O5    S    
C77   C95   A    
C97   O31   A    
C108  O58   A    
C60   C61   S    
C66   C84   S    
C29   H42   S    
C76   C81   A    
C100  O35   A    
Cr6   O16   S    
Cr9   O24   S    
C63   C67   A    
C13   C33   S    
C27   H40   S    
Cr10  O58   S    
C20   C38   A    
C62   C79   A    
C66   C71   A    
C21   C39   A    
Cr12  O31   S    
Cr5   O41   S    
C44   C57   S    
C63   C104  S    
C101  O44   A    
C3    O8    A    
C26   H35   S    
C1    C16   S    
C6    H30   S    
C87   H17   S    
C108  O3    A    
C100  O34   A    
C1    O14   A    
C64   C82   A    
C13   C38   A    
C3    C96   S    
C28   H41   S    
C36   O20   A    
C40   C107  S    
C36   O16   A    
Cr7   O43   S    
C15   C24   A    
Cr11  O26   S    
C63   C81   A    
Cr10  O47   S    
Cr11  O21   S    
C42   C46   A    
C111  O37   A    
Cr3   O11   S    
Cr10  O20   S    
Cr10  O11   S    
C75   C79   A    
C17   C34   S    
C73   C95   A    
C32   H46   S    
Cr5   O10   S    
Cr5   O12   S    
H58   O49   S    
C34   H48   S    
C44   C45   A    
C19   C23   A    
Cr1   O40   S    
Cr11  O48   S    
C43   C48   A    
C98   O12   A    
C88   H18   S    
Cr3   O3    S    
C45   C59   S    
C60   O51   S    
C41   C45   A    
C15   C25   S    
Cr2   O2    S    
C7    H29   S    
C46   C60   S    
C1    O18   A    
C24   H33   S    
Cr1   O1    S    
Cr3   O29   S    
C84   C88   S    
Cr2   O28   S    
C30   C91   S    
Cr5   O15   S    
C92   H26   S    
C57   C59   S    
Cr9   O10   S    
C5    C8    D    
C54   O28   A    
C71   C93   A    
C28   C69   S    
C86   H16   S    
C85   H10   S    
C5    H27   S    
Cr12  O9    S    
Cr8   O45   S    
C89   H24   S    
Cr1   O14   S    
Cr7   O13   S    
C47   O17   A    
C75   H68   S    
C47   O21   A    
C72   C94   A    
C83   H8    S    
C27   H38   S    
C35   C97   S    
C82   H7    S    
Cr8   O44   S    
C14   C36   S    
C72   C89   S    
C18   O53   S    
C43   C51   A    
C81   H6    S    
C29   C80   S    
C32   H50   S    
C77   C82   A    
C27   C58   S    
C75   C93   A    
C103  O46   A    
Cr12  O60   S    
Cr5   O37   S    
C14   C69   A    
H60   O51   S    
Cr9   O46   S    
C101  O40   A    
C43   C108  S    
Cr9   O19   S    
Cr4   O30   S    
C33   H51   S    
C13   C80   A    
C34   H52   S    
C10   C11   S    
C30   H43   S    
C71   C88   S    
Cr4   O4    S    
C9    H12   S    
C107  O56   A    
C86   H11   S    
C57   H66   S    
C31   H44   S    
Cr7   O34   S    
C16   C91   A    
C31   H49   S    
C49   C50   A    
Cr2   O6    S    
C48   C61   S    
C40   C44   A    
C88   H22   S    
C110  O36   A    
C30   H37   S    
Cr2   O32   S    
C4    C9    D    
C25   O15   A    
Cr8   O22   S    
H62   O53   S    
C90   H20   S    
C107  O2    A    
C28   H39   S    
C42   C52   A    
C33   H47   S    
