data_mof_unit_57406.cif
_audit_creation_date              2012-12-11T15:15:38-0500
_audit_creation_method            fapswitch 2.2
_symmetry_space_group_name_H-M    P1
_symmetry_Int_Tables_number       1
_space_group_crystal_system       triclinic
_cell_length_a                    18.746064
_cell_length_b                    18.910223
_cell_length_c                    20.440664
_cell_angle_alpha                 107.067732
_cell_angle_beta                  106.60056
_cell_angle_gamma                 111.212373
_cell_volume                      5799.72127712

loop_
_atom_site_label
_atom_site_type_symbol
_atom_type_description
_atom_site_fract_x
_atom_site_fract_y
_atom_site_fract_z
_atom_type_partial_charge
C1    C     C_R   0.092646 0.090190 0.358746 0.113791
C2    C     C_R   0.244958 0.070176 0.547534 -0.147641
C3    C     C_3   0.465036 0.626344 0.553522 -0.920020
C4    C     C_1   0.320080 0.755997 0.499717 0.020127
C5    C     C_1   0.580758 0.664100 0.244828 0.008793
C6    C     C_3   0.005508 0.864529 0.238094 -0.445279
C7    C     C_3   0.027740 0.814259 0.279164 -0.244175
C8    C     C_3   0.012220 0.730110 0.223355 -0.953743
C9    C     C_R   0.153069 0.223031 0.709056 -0.147375
C10   C     C_R   0.760396 0.925195 0.504178 -0.146896
C11   C     C_R   0.004222 0.765434 0.437018 -0.208198
C12   C     C_R   0.229841 0.273394 0.711403 0.046206
C13   C     C_R   0.954631 0.713308 0.460060 0.043263
C14   C     C_R   0.253431 0.998453 0.539241 0.073528
C15   C     C_R   0.024407 0.980093 0.725394 0.043890
C16   C     C_R   0.911244 0.593163 0.490825 -0.274090
C17   C     C_R   0.935300 0.625987 0.443114 0.111554
C18   C     C_R   0.755049 0.993203 0.547404 0.084121
C19   C     C_R   0.941512 0.575970 0.381379 -0.261119
C20   C     C_R   0.925957 0.494113 0.369262 0.160578
C21   C     C_R   0.897285 0.460286 0.415622 0.025389
C22   C     C_R   0.835559 0.815043 0.281796 -0.136642
C23   C     C_R   0.884204 0.508403 0.473901 0.057413
C24   C     C_R   0.941003 0.446526 0.313305 -0.211236
C25   C     C_R   0.935280 0.369149 0.307820 -0.189474
C26   C     C_R   0.912708 0.337403 0.357468 0.079174
C27   C     C_R   0.887907 0.381026 0.407682 0.012357
C28   C     C_R   0.858967 0.347940 0.453784 0.104698
C29   C     C_R   0.753114 0.789490 0.275006 0.045404
C30   C     C_R   0.833955 0.390230 0.503413 -0.242255
C31   C     C_R   0.847309 0.471734 0.515418 0.137187
C32   C     C_R   0.921105 0.267908 0.363455 -0.011894
C33   C     C_R   0.908305 0.247013 0.421760 0.046725
C34   C     C_R   0.943367 0.188964 0.516867 -0.125212
C35   C     C_R   0.864297 0.277852 0.456504 -0.254201
C36   C     C_R   0.328791 0.919504 0.576919 0.085264
C37   C     C_R   0.329833 0.996365 0.582806 0.068706
C38   C     C_R   0.407673 0.071336 0.623230 -0.299318
C39   C     C_R   0.483130 0.068326 0.639161 0.169251
C40   C     C_R   0.953395 0.209160 0.459072 0.090252
C41   C     C_R   0.480227 0.989154 0.609790 -0.005688
C42   C     C_R   0.402597 0.913030 0.578128 -0.030603
C43   C     C_R   0.560280 0.143864 0.674929 -0.203632
C44   C     C_R   0.633370 0.142011 0.674604 -0.216873
C45   C     C_R   0.629166 0.064777 0.636753 0.165663
C46   C     C_R   0.759633 0.809375 0.347770 -0.131275
C47   C     C_R   0.553509 0.987372 0.606827 0.014428
C48   C     C_R   0.549886 0.909520 0.569112 0.059820
C49   C     C_R   0.475524 0.832168 0.544547 0.069570
C50   C     C_R   0.400595 0.834409 0.544659 -0.014803
C51   C     C_R   0.230751 0.228610 0.645127 -0.150530
C52   C     C_R   0.697485 0.064973 0.623002 -0.263264
C53   C     C_R   0.690193 0.989786 0.575693 0.111194
C54   C     C_R   0.618096 0.912410 0.551487 -0.237798
C55   C     C_R   0.287996 0.364152 0.761967 0.142234
C56   C     C_R   0.258833 0.415877 0.797074 -0.188160
C57   C     C_R   0.315283 0.501158 0.847013 -0.161700
C58   C     C_R   0.019629 0.195809 0.451339 -0.148520
C59   C     C_R   0.402210 0.535470 0.863807 0.227280
C60   C     C_R   0.429850 0.485107 0.824531 -0.180740
C61   C     C_R   0.373257 0.400109 0.774064 -0.180631
C62   C     C_R   0.919829 0.757139 0.495284 0.141347
C63   C     C_R   0.611722 0.753786 0.081816 -0.161533
C64   C     C_R   0.682907 0.785109 0.149690 -0.202101
C65   C     C_R   0.593786 0.699287 0.192742 0.064921
C66   C     C_R   0.522800 0.669466 0.125156 -0.236690
C67   C     C_R   0.531562 0.694013 0.068431 0.208162
C68   C     C_2   0.467730 0.618041 0.929295 -0.227779
C69   C     C_2   0.457902 0.646321 0.992804 -0.209952
C70   C     C_R   0.829796 0.064896 0.568793 -0.146932
C71   C     C_R   0.675414 0.757157 0.205251 0.074113
C72   C     C_R   0.108863 0.038023 0.238271 0.150506
C73   C     C_R   0.176696 0.929845 0.481357 -0.161350
C74   C     C_R   0.092234 0.086239 0.201801 -0.173213
C75   C     C_R   0.125174 0.097847 0.150520 -0.183509
C76   C     C_R   0.173991 0.060179 0.134188 0.227769
C77   C     C_R   0.194951 0.015936 0.173900 -0.157284
C78   C     C_R   0.163914 0.006473 0.227008 -0.246524
C79   C     C_R   0.189652 0.047084 0.920002 -0.164033
C80   C     C_R   0.150402 0.045725 0.850299 -0.192314
C81   C     C_R   0.036443 0.904455 0.806326 -0.183240
C82   C     C_R   0.022828 0.950544 0.291660 0.125062
C83   C     C_R   0.075651 0.906000 0.876355 -0.177587
C84   C     C_R   0.035440 0.053297 0.717714 -0.124010
C85   C     C_R   0.149858 0.979156 0.935014 0.226994
C86   C     C_2   0.193858 0.061084 0.069867 -0.230371
C87   C     C_2   0.174621 0.988701 0.013669 -0.229388
C88   C     C_R   0.071368 0.976096 0.794324 0.139038
C89   C     C_R   0.072104 0.026105 0.291382 -0.056586
C90   C     C_3   0.169012 0.178024 0.398398 -0.441935
C91   C     C_3   0.253302 0.176436 0.412145 -0.229582
C92   C     C_3   0.329780 0.263395 0.468940 -0.936901
C93   C     C_3   0.836933 0.720976 0.501799 -0.476690
C94   C     C_3   0.761696 0.649269 0.426187 -0.219808
C95   C     C_R   0.967812 0.912577 0.653942 -0.152257
C96   C     C_3   0.679140 0.619010 0.434871 -0.922164
C97   C     C_1   0.942019 0.218936 0.310631 0.011873
C98   C     C_3   0.823494 0.520424 0.571612 -0.427781
C99   C     C_3   0.769440 0.469345 0.602308 -0.251856
C100  C     C_3   0.741789 0.522087 0.650738 -0.929189
C101  C     C_3   0.258855 0.853803 0.584750 -0.420449
C102  C     C_3   0.228743 0.892877 0.641348 -0.241182
C103  C     C_3   0.165846 0.825115 0.652912 -0.912164
C104  C     C_3   0.474124 0.746710 0.519698 -0.409614
C105  C     C_3   0.467466 0.711947 0.578146 -0.236551
H1    H     H_    0.161259 0.864577 0.457690 0.108953
H2    H     H_    0.720862 0.859298 0.488538 0.087230
H3    H     H_    0.952600 0.336727 0.267150 0.140733
H4    H     H_    0.844467 0.256140 0.494769 0.122694
H5    H     H_    0.809819 0.361340 0.536390 0.123218
H6    H     H_    0.410350 0.132213 0.636342 0.127883
H7    H     H_    0.562970 0.204598 0.698874 0.127530
H8    H     H_    0.691584 0.201400 0.698839 0.127185
H9    H     H_    0.753208 0.125208 0.644163 0.113979
H10   H     H_    0.851883 0.810459 0.235673 0.108726
H11   H     H_    0.613036 0.856026 0.513374 0.112843
H12   H     H_    0.076782 0.117552 0.761644 0.096204
H13   H     H_    0.192613 0.390585 0.786342 0.113823
H14   H     H_    0.744165 0.830819 0.158369 0.127214
H15   H     H_    0.395864 0.616310 0.991813 0.129727
H16   H     H_    0.496423 0.510177 0.836240 0.112998
H17   H     H_    0.619729 0.774801 0.039245 0.119740
H18   H     H_    0.396973 0.361700 0.746811 0.113050
H19   H     H_    0.897930 0.190403 0.538704 0.094249
H20   H     H_    0.531304 0.643826 0.932383 0.132449
H21   H     H_    0.291117 0.539159 0.873933 0.112429
H22   H     H_    0.460987 0.622475 0.114587 0.123193
H23   H     H_    0.949784 0.847116 0.639393 0.101283
H24   H     H_    0.052167 0.113284 0.211807 0.130299
H25   H     H_    0.180722 0.100415 0.841342 0.119598
H26   H     H_    0.976258 0.849430 0.763623 0.113880
H27   H     H_    0.156160 0.931365 0.021469 0.135605
H28   H     H_    0.234201 0.988064 0.163127 0.122473
H29   H     H_    0.248496 0.103161 0.963615 0.119165
H30   H     H_    0.182050 0.973905 0.258657 0.132341
H31   H     H_    0.709243 0.802666 0.364973 0.115741
H32   H     H_    0.202778 0.116065 0.059367 0.135929
H33   H     H_    0.108809 0.132559 0.120567 0.118075
H34   H     H_    0.291677 0.134666 0.587772 0.105207
H35   H     H_    0.044291 0.852706 0.886719 0.113408
H36   H     H_    0.044696 0.205490 0.411839 0.117276
H37   H     H_    0.854474 0.127679 0.612473 0.085290
H38   H     H_    0.273193 0.254780 0.621962 0.093651
H39   H     H_    0.329209 0.311154 0.447865 0.269511
H40   H     H_    0.328631 0.283087 0.525278 0.253685
H41   H     H_    0.389581 0.260661 0.476169 0.252458
H42   H     H_    0.255546 0.129988 0.434478 0.203551
H43   H     H_    0.259099 0.157725 0.358007 0.212245
H44   H     H_    0.160420 0.212959 0.364215 0.184792
H45   H     H_    0.125163 0.243304 0.745288 0.089092
H46   H     H_    0.173333 0.212780 0.454805 0.198181
H47   H     H_    0.685315 0.596955 0.479904 0.256867
H48   H     H_    0.663454 0.671089 0.449991 0.257513
H49   H     H_    0.626189 0.565360 0.380346 0.259730
H50   H     H_    0.754363 0.671823 0.381533 0.206540
H51   H     H_    0.772365 0.594430 0.406730 0.208456
H52   H     H_    0.843989 0.700162 0.547435 0.172686
H53   H     H_    0.820836 0.772401 0.519435 0.197954
H54   H     H_    0.798432 0.579695 0.699870 0.260442
H55   H     H_    0.701918 0.541146 0.616006 0.261375
H56   H     H_    0.030443 0.747163 0.398482 0.109906
H57   H     H_    0.703711 0.484062 0.672807 0.249846
H58   H     H_    0.711447 0.412060 0.554036 0.202848
H59   H     H_    0.807217 0.449771 0.638447 0.193046
H60   H     H_    0.882996 0.574840 0.620843 0.182679
H61   H     H_    0.786599 0.545696 0.542259 0.197086
H62   H     H_    0.109620 0.777346 0.597738 0.267803
H63   H     H_    0.196821 0.793025 0.677887 0.260387
H64   H     H_    0.143728 0.854947 0.692376 0.253647
H65   H     H_    0.284558 0.939579 0.697248 0.201226
H66   H     H_    0.196378 0.925974 0.620303 0.212804
H67   H     H_    0.915766 0.634825 0.542493 0.127759
H68   H     H_    0.203845 0.808117 0.528516 0.190826
H69   H     H_    0.284568 0.817208 0.607718 0.201561
H70   H     H_    0.408883 0.579433 0.497984 0.265119
H71   H     H_    0.524073 0.632412 0.548180 0.260692
H72   H     H_    0.460194 0.602950 0.596800 0.251390
H73   H     H_    0.523473 0.757374 0.634252 0.197608
H74   H     H_    0.409048 0.704132 0.585448 0.203901
H75   H     H_    0.419865 0.700941 0.462695 0.195436
H76   H     H_    0.531359 0.749302 0.513480 0.183235
H77   H     H_    0.944144 0.690750 0.181089 0.267221
H78   H     H_    0.960929 0.601214 0.344454 0.123424
H79   H     H_    0.052737 0.741099 0.193050 0.266149
H80   H     H_    0.028461 0.695121 0.255005 0.247153
H81   H     H_    0.095940 0.851799 0.320953 0.200117
H82   H     H_    0.987799 0.800472 0.309119 0.212244
H83   H     H_    0.939538 0.827502 0.192782 0.175388
H84   H     H_    0.042663 0.871832 0.205004 0.198829
H85   H     H_    0.961609 0.471198 0.276502 0.131264
N1    N     N_R   0.052580 0.056040 0.395500 -0.066543
N2    N     N_R   0.890210 0.849400 0.355780 -0.043742
N3    N     N_R   0.997110 0.161140 0.539580 -0.040279
N4    N     N_R   0.841950 0.845400 0.395490 -0.041835
N5    N     N_R   0.045360 0.165140 0.499870 -0.045090
N6    N     N_R   0.877490 0.041510 0.539580 -0.037455
N7    N     N_R   0.009820 0.969030 0.355780 -0.062490
N8    N     N_R   0.158050 0.154600 0.604510 -0.034978
N9    N     N_1   0.958309 0.179694 0.268007 -0.108601
N10   N     N_1   0.256125 0.693272 0.463630 -0.095211
N11   N     N_1   0.569639 0.635551 0.286224 -0.095546
N12   N     N_R   0.954640 0.834860 0.500130 -0.054770
N13   N     N_R   0.122510 0.958490 0.460420 -0.046543
N14   N     N_R   0.990180 0.030970 0.644220 -0.037230
N15   N     N_R   0.947420 0.943960 0.604500 -0.041710
N16   N     N_R   0.165270 0.045500 0.500140 -0.040823
N17   N     N_R   0.109790 0.150600 0.644220 -0.036503
N18   N     N_R   0.002890 0.838860 0.460420 -0.046640
N19   N     N_R   0.834730 0.954500 0.499860 -0.038019
Ni1   Ni    Ni4+2 0.104370 0.104380 0.500010 0.206012
Ni2   Ni    Ni4+2 0.895630 0.895620 0.499990 0.205867
Ni3   Ni    Ni4+2 0.006300 0.904810 0.408930 0.199740
Ni4   Ni    Ni4+2 0.993700 0.095190 0.591070 0.209301

loop_
_geom_bond_atom_site_label_1
_geom_bond_atom_site_label_2
_ccdc_geom_bond_type
C102  H65   S    
C59   C60   A    
C55   C56   A    
C103  H62   S    
C1    C90   S    
C6    C82   S    
C22   C29   A    
C41   C42   A    
C97   N9    T    
C7    H81   S    
C101  H68   S    
C19   C20   A    
C58   H36   S    
N17   Ni4   S    
C105  H73   S    
C43   C44   A    
C63   H17   S    
C49   C104  S    
C91   H42   S    
C10   H2    S    
C7    C8    S    
C39   C41   A    
C104  H75   S    
C77   C78   A    
C32   C97   S    
C48   C54   A    
C73   N13   A    
C26   C27   A    
C93   C94   S    
C82   C89   A    
C30   H5    S    
C34   C40   A    
C2    H34   S    
C7    H82   S    
C36   C37   A    
C5    N11   T    
C38   C39   A    
C64   C71   A    
N15   Ni2   S    
C8    H77   S    
C96   H47   S    
C6    H83   S    
C58   N5    A    
C11   H56   S    
C66   H22   S    
C81   H26   S    
C31   C98   S    
N16   Ni1   S    
C62   N12   A    
C72   C78   A    
C18   C53   S    
C17   C19   A    
N4    Ni2   S    
C36   C42   A    
C95   H23   S    
N2    Ni3   S    
C13   C62   A    
C20   C24   A    
C28   C35   A    
C84   H12   S    
N3    N5    A    
C54   H11   S    
C34   H19   S    
C2    N16   A    
C78   H30   S    
N12   Ni2   S    
C35   H4    S    
C8    H79   S    
C45   C47   A    
C104  H76   S    
C92   H40   S    
C103  H63   S    
N12   N18   A    
C101  H69   S    
C93   H53   S    
C77   H28   S    
C105  H74   S    
C90   H44   S    
C92   H39   S    
C83   H35   S    
C81   C83   A    
C46   N4    A    
C6    C7    S    
C63   C67   A    
C85   C87   S    
C96   H48   S    
C41   C47   A    
N13   N16   A    
C96   H49   S    
C9    H45   S    
C70   H37   S    
C33   C40   S    
C40   C58   A    
C74   C75   A    
C92   H41   S    
C102  C103  S    
C12   C55   S    
C101  C102  S    
C80   H25   S    
C24   C25   A    
C82   N7    A    
C72   C74   A    
C9    N17   A    
C19   H78   S    
C57   H21   S    
C26   C32   A    
C68   C69   D    
C39   C43   A    
C45   C52   A    
C25   C26   A    
C53   C54   A    
N14   Ni4   S    
C3    C105  S    
C63   C64   A    
C90   H46   S    
C4    C50   S    
C60   C61   A    
C67   C69   S    
N2    N4    A    
C87   H27   S    
C94   C96   S    
C75   C76   A    
C14   C73   A    
C37   C38   A    
C51   N8    A    
C59   C68   S    
N8    Ni1   S    
C72   C89   S    
C16   H67   S    
C10   N19   A    
C47   C48   A    
C30   C31   A    
N18   Ni3   S    
C20   C21   A    
C94   H50   S    
C76   C77   A    
C93   H52   S    
C64   H14   S    
C98   H61   S    
N5    Ni1   S    
C99   H58   S    
N6    N19   A    
C1    N1    A    
C34   N3    A    
C5    C65   S    
C48   C49   A    
C83   C85   A    
C42   C50   A    
C44   H8    S    
C98   C99   S    
C16   C23   A    
C51   H38   S    
C21   C23   A    
N13   Ni3   S    
C62   C93   S    
C11   N18   A    
C22   N2    A    
C76   C86   S    
C79   C85   A    
C12   C51   A    
C52   C53   A    
C3    H70   S    
C102  H66   S    
C56   C57   A    
C79   H29   S    
C98   H60   S    
C22   H10   S    
C1    C89   A    
N8    N17   A    
C86   C87   D    
C56   H13   S    
C44   C45   A    
N1    N7    A    
C100  H55   S    
C75   H33   S    
C104  C105  S    
C91   H43   S    
C70   N6    A    
N3    Ni4   S    
C15   C84   A    
C52   H9    S    
C8    H80   S    
C86   H32   S    
C69   H15   S    
C18   C70   A    
C99   C100  S    
C13   C17   S    
C29   C46   A    
C61   H18   S    
C32   C33   A    
C28   C30   A    
C3    H72   S    
C80   C88   A    
N7    Ni3   S    
C65   C71   A    
C14   C37   S    
C15   C95   A    
N6    Ni4   S    
C11   C13   A    
C100  H54   S    
C84   N14   A    
C73   H1    S    
C16   C17   A    
C10   C18   A    
C55   C61   A    
C6    H84   S    
C99   H59   S    
C33   C35   A    
C66   C67   A    
C95   N15   A    
C65   C66   A    
C21   C27   A    
C60   H16   S    
C2    C14   A    
C9    C12   A    
C81   C88   A    
C57   C59   A    
N1    Ni1   S    
C46   H31   S    
C79   C80   A    
C3    H71   S    
C4    N10   T    
N14   N15   A    
C94   H51   S    
C49   C50   A    
C43   H7    S    
C74   H24   S    
C27   C28   A    
C103  H64   S    
N19   Ni2   S    
C36   C101  S    
C24   H85   S    
C100  H57   S    
C38   H6    S    
C68   H20   S    
C91   C92   S    
C90   C91   S    
C25   H3    S    
C23   C31   A    
C15   C88   S    
C29   C71   S    
