data_mof_unit_64217.cif
_audit_creation_date              2012-12-10T19:29:56-0500
_audit_creation_method            fapswitch 2.2
_symmetry_space_group_name_H-M    P1
_symmetry_Int_Tables_number       1
_space_group_crystal_system       triclinic
_cell_length_a                    16.519985
_cell_length_b                    17.475552
_cell_length_c                    17.699956
_cell_angle_alpha                 91.896644
_cell_angle_beta                  91.242931
_cell_angle_gamma                 86.076429
_cell_volume                      5094.16743822

loop_
_atom_site_label
_atom_site_type_symbol
_atom_type_description
_atom_site_fract_x
_atom_site_fract_y
_atom_site_fract_z
_atom_type_partial_charge
C1    C     C_R   0.499107 0.500241 0.355654 0.832669
C2    C     C_R   0.531657 0.438538 0.230609 0.110028
C3    C     C_R   0.469312 0.559590 0.847989 -0.194377
C4    C     C_R   0.530691 0.440411 0.152011 -0.194378
C5    C     C_R   0.504948 0.496515 0.885286 0.049535
C6    C     C_R   0.495050 0.503484 0.114714 0.049535
C7    C     C_1   0.501594 0.498850 0.966171 -0.029817
C8    C     C_1   0.498404 0.501149 0.033829 -0.029818
C9    C     C_R   0.829980 0.537290 0.554712 -0.249738
C10   C     C_R   0.170020 0.462710 0.445289 -0.249737
C11   C     C_R   0.744414 0.538236 0.555964 0.359050
C12   C     C_R   0.500893 0.499759 0.644346 0.832671
C13   C     C_R   0.255586 0.461763 0.444036 0.359050
C14   C     C_R   0.743698 0.463171 0.442175 0.069545
C15   C     C_R   0.256302 0.536830 0.557825 0.069545
C16   C     C_R   0.510357 0.349861 0.499946 0.798786
C17   C     C_R   0.489643 0.650138 0.500054 0.798786
C18   C     C_R   0.829520 0.461617 0.439792 -0.260182
C19   C     C_R   0.170480 0.538384 0.560208 -0.260183
C20   C     C_R   0.873666 0.498916 0.497035 0.096832
C21   C     C_R   0.126334 0.501085 0.502965 0.096831
C22   C     C_1   0.962930 0.499227 0.498412 -0.022506
C23   C     C_R   0.542193 0.433178 0.844430 0.210982
C24   C     C_1   0.037070 0.500774 0.501589 -0.022506
C25   C     C_R   0.514795 0.265118 0.497268 -0.114662
C26   C     C_R   0.485205 0.734882 0.502731 -0.114661
C27   C     C_R   0.451928 0.225809 0.529299 0.140061
C28   C     C_R   0.548071 0.774191 0.470698 0.140061
C29   C     C_R   0.452091 0.146513 0.519635 -0.150809
C30   C     C_R   0.547909 0.853486 0.480362 -0.150808
C31   C     C_R   0.514042 0.104614 0.480851 0.070548
C32   C     C_R   0.485959 0.895386 0.519147 0.070548
C33   C     C_R   0.577895 0.142093 0.450769 -0.035563
C34   C     C_R   0.457802 0.566819 0.155570 0.210982
C35   C     C_R   0.422107 0.857907 0.549230 -0.035563
C36   C     C_R   0.579040 0.222267 0.459453 -0.117259
C37   C     C_R   0.420961 0.777733 0.540547 -0.117258
C38   C     C_2   0.511295 0.021097 0.471721 -0.199718
C39   C     C_2   0.488706 0.978903 0.528276 -0.199718
C40   C     C_3   0.384105 0.265926 0.574794 -0.805907
C41   C     C_3   0.615892 0.734073 0.425202 -0.805908
C42   C     C_3   0.704506 0.581379 0.621796 -0.793026
C43   C     C_3   0.295494 0.418620 0.378205 -0.793029
C44   C     C_1   0.353592 0.741091 0.571701 0.287946
C45   C     C_R   0.541459 0.434135 0.764190 0.102988
C46   C     C_1   0.646409 0.258909 0.428299 0.287947
C47   C     C_1   0.643101 0.097911 0.411991 0.234115
C48   C     C_1   0.356902 0.902089 0.588010 0.234115
C49   C     C_3   0.582441 0.365440 0.885517 -0.857362
C50   C     C_3   0.417549 0.634555 0.114483 -0.857363
C51   C     C_3   0.579767 0.367703 0.716825 -0.830359
C52   C     C_3   0.420227 0.632294 0.283174 -0.830356
C53   C     C_3   0.431008 0.631773 0.731513 -0.824647
C54   C     C_3   0.568997 0.368228 0.268487 -0.824643
C55   C     C_R   0.458537 0.565863 0.235810 0.102987
C56   C     C_R   0.503447 0.498325 0.727197 -0.091018
C57   C     C_R   0.496552 0.501674 0.272803 -0.091020
C58   C     C_R   0.468345 0.561463 0.769391 0.110028
Cu1   Cu    Cu3+1 0.580420 0.500000 0.499980 0.939364
Cu2   Cu    Cu3+1 0.419580 0.500000 0.500020 0.939364
H1    H     H_    0.862945 0.566475 0.599460 0.143024
H2    H     H_    0.402276 0.117125 0.541443 0.150170
H3    H     H_    0.441834 0.607770 0.880727 0.151235
H4    H     H_    0.558170 0.392232 0.119274 0.151234
H5    H     H_    0.350029 0.224660 0.605854 0.217874
H6    H     H_    0.408954 0.306244 0.617652 0.228800
H7    H     H_    0.340002 0.297230 0.536754 0.251716
H8    H     H_    0.649967 0.775339 0.394140 0.217875
H9    H     H_    0.659996 0.702769 0.463241 0.251716
H10   H     H_    0.591042 0.693755 0.382345 0.228799
H11   H     H_    0.691245 0.540739 0.665992 0.233346
H12   H     H_    0.137055 0.433524 0.400540 0.143024
H13   H     H_    0.745359 0.622729 0.648714 0.186951
H14   H     H_    0.649542 0.616178 0.604522 0.255443
H15   H     H_    0.254639 0.377271 0.351285 0.186951
H16   H     H_    0.308757 0.459259 0.334010 0.233348
H17   H     H_    0.350456 0.383819 0.395479 0.255441
H18   H     H_    0.581083 0.372431 0.947912 0.230433
H19   H     H_    0.551059 0.312808 0.869991 0.234295
H20   H     H_    0.647294 0.357285 0.869995 0.235681
H21   H     H_    0.418905 0.627563 0.052088 0.230434
H22   H     H_    0.352696 0.642706 0.130006 0.235681
H23   H     H_    0.711340 0.434906 0.396983 0.147075
H24   H     H_    0.448928 0.687189 0.130007 0.234294
H25   H     H_    0.632183 0.387102 0.686182 0.245825
H26   H     H_    0.602216 0.317586 0.749642 0.238008
H27   H     H_    0.534587 0.346896 0.675105 0.212549
H28   H     H_    0.397777 0.682410 0.250357 0.238007
H29   H     H_    0.367811 0.612893 0.313817 0.245825
H30   H     H_    0.465405 0.653103 0.324895 0.212549
H31   H     H_    0.411452 0.677896 0.773200 0.231634
H32   H     H_    0.475688 0.654980 0.693847 0.214813
H33   H     H_    0.376862 0.616473 0.697875 0.243602
H34   H     H_    0.288660 0.565095 0.603017 0.147077
H35   H     H_    0.588555 0.322106 0.226800 0.231632
H36   H     H_    0.623143 0.383531 0.302124 0.243600
H37   H     H_    0.524318 0.345020 0.306153 0.214814
H38   H     H_    0.860949 0.431544 0.393406 0.151349
H39   H     H_    0.139052 0.568457 0.606594 0.151350
H40   H     H_    0.470244 0.006105 0.581827 0.160585
H41   H     H_    0.529758 0.993895 0.418171 0.160584
H42   H     H_    0.597723 0.882873 0.458553 0.150170
N1    N     N_R   0.701220 0.499980 0.499970 -0.173160
N2    N     N_R   0.298780 0.500020 0.500030 -0.173160
N3    N     N_1   0.298946 0.713277 0.596635 -0.309088
N4    N     N_1   0.701056 0.286724 0.403367 -0.309087
N5    N     N_1   0.695034 0.062689 0.381114 -0.277274
N6    N     N_1   0.304970 0.937312 0.618888 -0.277274
O1    O     O_R   0.567930 0.499990 0.391240 -0.587531
O2    O     O_R   0.432070 0.500010 0.608760 -0.587532
O3    O     O_R   0.432120 0.500000 0.391270 -0.584084
O4    O     O_R   0.567880 0.500000 0.608730 -0.584085
O5    O     O_R   0.575780 0.386400 0.499970 -0.570395
O6    O     O_R   0.424220 0.613600 0.500030 -0.570396
O7    O     O_R   0.439960 0.386410 0.500000 -0.588373
O8    O     O_R   0.560040 0.613590 0.500000 -0.588373

loop_
_geom_bond_atom_site_label_1
_geom_bond_atom_site_label_2
_ccdc_geom_bond_type
C23   C45   A    
C27   C29   A    
C14   C18   A    
Cu2   O6    S    
C13   C43   S    
C16   O5    A    
C51   H25   S    
C15   H34   S    
C12   O2    A    
C14   N1    A    
C2    C57   A    
C50   H24   S    
C7    C8    T    
C44   N3    T    
C15   C19   A    
C9    H1    S    
C17   C26   S    
C35   C37   A    
C38   H41   S    
C38   C39   D    
C23   C49   S    
C45   C51   S    
C28   C41   S    
C16   C25   S    
C33   C36   A    
C49   H18   S    
C11   C42   S    
C32   C39   S    
C1    O1    A    
C52   H30   S    
C45   C56   A    
Cu1   O8    S    
C40   H7    S    
C53   H31   S    
C31   C33   A    
C54   H37   S    
C36   C46   S    
C15   N2    A    
C54   H36   S    
C52   C55   S    
Cu1   Cu2   S    
C40   H6    S    
C52   H29   S    
C14   H23   S    
C35   C48   S    
C51   H26   S    
C17   O6    A    
C41   H8    S    
C10   C21   A    
C43   H15   S    
C34   C50   S    
C42   H14   S    
C53   H33   S    
C32   C35   A    
C52   H28   S    
C4    C6    A    
C2    C54   S    
C51   H27   S    
C5    C7    S    
C19   H39   S    
C6    C8    S    
C49   H19   S    
C2    C4    A    
C1    C57   S    
C9    C20   A    
C5    C23   A    
C27   C40   S    
Cu1   O5    S    
C30   H42   S    
C53   H32   S    
Cu1   O4    S    
C13   N2    A    
C9    C11   A    
C54   H35   S    
C12   C56   S    
C20   C22   S    
C47   N5    T    
C40   H5    S    
C55   C57   A    
C33   C47   S    
C22   C24   T    
C25   C27   A    
C16   O7    A    
C12   O4    A    
C50   H22   S    
C41   H9    S    
C43   H16   S    
C29   H2    S    
C42   H13   S    
C19   C21   A    
C3    C5    A    
C10   C13   A    
C53   C58   S    
C49   H20   S    
C26   C37   A    
C3    H3    S    
C43   H17   S    
C4    H4    S    
C26   C28   A    
C31   C38   S    
Cu1   N1    S    
C37   C44   S    
C28   C30   A    
C29   C31   A    
Cu2   O3    S    
C1    O3    A    
C30   C32   A    
C39   H40   S    
C48   N6    T    
C46   N4    T    
C42   H11   S    
Cu1   O1    S    
C56   C58   A    
C18   C20   A    
Cu2   O2    S    
C25   C36   A    
C3    C58   A    
C6    C34   A    
C34   C55   A    
C17   O8    A    
C21   C24   S    
Cu2   O7    S    
C11   N1    A    
C18   H38   S    
Cu2   N2    S    
C50   H21   S    
C41   H10   S    
C10   H12   S    
