data_mof_unit_48574.cif
_audit_creation_date              2012-12-10T20:51:43-0500
_audit_creation_method            fapswitch 2.2
_symmetry_space_group_name_H-M    P1
_symmetry_Int_Tables_number       1
_space_group_crystal_system       triclinic
_cell_length_a                    8.112978
_cell_length_b                    8.920192
_cell_length_c                    16.608099
_cell_angle_alpha                 89.568462
_cell_angle_beta                  96.34911
_cell_angle_gamma                 90.109345
_cell_volume                      1194.51035762

loop_
_atom_site_label
_atom_site_type_symbol
_atom_type_description
_atom_site_fract_x
_atom_site_fract_y
_atom_site_fract_z
_atom_type_partial_charge
C1    C     C_R   0.499903 0.218025 0.500172 0.966316
C2    C     C_R   0.500097 0.781975 0.499849 0.964736
C3    C     C_R   0.524326 0.497634 0.654124 1.002775
C4    C     C_R   0.475672 0.502174 0.345852 1.001996
C5    C     C_R   0.547846 0.500046 0.741583 -0.285857
C6    C     C_R   0.452127 0.495990 0.258428 -0.285448
C7    C     C_R   0.506803 0.629906 0.782193 0.162743
C8    C     C_R   0.496475 0.365257 0.219475 0.162146
C9    C     C_R   0.530990 0.632265 0.866703 0.251767
C10   C     C_R   0.471934 0.358841 0.135052 0.251858
C11   C     C_R   0.588208 0.502511 0.909697 0.073089
C12   C     C_R   0.410712 0.485512 0.090415 0.074263
C13   C     C_R   0.648457 0.380770 0.868857 0.254190
C14   C     C_R   0.346898 0.607447 0.129723 0.253243
C15   C     C_R   0.625542 0.377914 0.784244 0.164368
C16   C     C_R   0.370519 0.614536 0.214245 0.165784
C17   C     C_1   0.499844 0.065216 0.500087 -0.081567
C18   C     C_1   0.500151 0.934782 0.499952 -0.082628
N1    N     N_1   0.073640 0.500030 0.499990 0.002284
N2    N     N_1   0.926360 0.499970 0.500010 0.002494
N3    N     N_2   0.573471 0.488784 0.993072 -0.067505
N4    N     N_2   0.425623 0.497145 0.006957 -0.067982
O1    O     O_R   0.636850 0.285340 0.500000 -0.597580
O2    O     O_R   0.363150 0.714660 0.500000 -0.598852
O3    O     O_R   0.363100 0.285350 0.500000 -0.616426
O4    O     O_R   0.636900 0.714650 0.500000 -0.615912
O5    O     O_R   0.652140 0.498630 0.616140 -0.599096
O6    O     O_R   0.347860 0.501370 0.383860 -0.599076
O7    O     O_R   0.378390 0.498650 0.616130 -0.594617
O8    O     O_R   0.621610 0.501350 0.383870 -0.593680
Zn1   Zn    Zn3+2 0.682780 0.499990 0.500010 1.078533
Zn2   Zn    Zn3+2 0.317220 0.500010 0.499990 1.077833
Br1   Br    Br    0.586004 0.194222 0.281508 -0.355496
Br2   Br    Br    0.421992 0.804920 0.722273 -0.350964
Br3   Br    Br    0.507456 0.174204 0.080630 -0.202832
Br4   Br    Br    0.500153 0.815133 0.923646 -0.202658
Br5   Br    Br    0.763541 0.220132 0.928842 -0.213632
Br6   Br    Br    0.226310 0.762691 0.067655 -0.217498
Br7   Br    Br    0.692806 0.204322 0.727226 -0.342414
Br8   Br    Br    0.299195 0.789296 0.268966 -0.338702

loop_
_geom_bond_atom_site_label_1
_geom_bond_atom_site_label_2
_ccdc_geom_bond_type
C9    Br4   S    
O2    Zn2   S    
C10   Br3   S    
C2    C18   S    
C11   C13   A    
C13   Br5   S    
N1    N2    T    
O3    Zn2   S    
C3    O5    A    
C17   C18   T    
O4    Zn1   S    
C2    O4    A    
N3    N4    D    
C1    O3    A    
C9    C11   A    
C15   Br7   S    
C10   C12   A    
C16   Br8   S    
N1    Zn2   S    
C8    C10   A    
C4    O6    A    
C12   C14   A    
C1    O1    A    
O7    Zn2   S    
C7    C9    A    
C8    Br1   S    
C13   C15   A    
O5    Zn1   S    
C2    O2    A    
O8    Zn1   S    
C7    Br2   S    
C14   C16   A    
C5    C15   A    
C14   Br6   S    
C6    C16   A    
C12   N4    S    
O6    Zn2   S    
C3    O7    A    
C4    C6    S    
C5    C7    A    
C6    C8    A    
C1    C17   S    
C11   N3    S    
C4    O8    A    
C3    C5    S    
N2    Zn1   S    
O1    Zn1   S    
