data_mof_unit_28440.cif
_audit_creation_date              2012-12-11T16:57:13-0500
_audit_creation_method            fapswitch 2.2
_symmetry_space_group_name_H-M    P1
_symmetry_Int_Tables_number       1
_space_group_crystal_system       triclinic
_cell_length_a                    14.527187
_cell_length_b                    16.167234
_cell_length_c                    6.951476
_cell_angle_alpha                 89.976291
_cell_angle_beta                  98.724991
_cell_angle_gamma                 90.044108
_cell_volume                      1613.7605315

loop_
_atom_site_label
_atom_site_type_symbol
_atom_type_description
_atom_site_fract_x
_atom_site_fract_y
_atom_site_fract_z
_atom_type_partial_charge
O1    O     O_R   0.584990 0.413650 0.534420 -0.540511
O2    O     O_R   0.584990 0.586350 0.534420 -0.535694
O3    O     O_R   0.596190 0.585230 0.208380 -0.545060
O4    O     O_R   0.596190 0.414770 0.208380 -0.544272
O5    O     O_R   0.415010 0.586420 0.976930 -0.541409
O6    O     O_R   0.415010 0.413580 0.976930 -0.541715
C1    C     C_R   0.618242 0.614702 0.383942 0.699971
C2    C     C_R   0.618683 0.385939 0.384170 0.699617
O7    O     O_3   0.440560 0.500000 0.319140 -0.372252
V1    V     V_3+5 0.511030 0.500000 0.068070 1.406295
O8    O     O_R   0.403810 0.414840 0.643540 -0.541993
O9    O     O_R   0.403810 0.585160 0.643540 -0.541105
C3    C     C_R   0.381621 0.386018 0.805933 0.756221
C4    C     C_R   0.381601 0.613972 0.805910 0.776965
V2    V     V_3+5 0.488970 0.500000 0.560620 1.422804
O10   O     O_3   0.559440 0.500000 0.859420 -0.378484
H1    H     H_    0.188814 0.806322 0.806188 0.154314
H2    H     H_    0.188790 0.193707 0.806222 0.155148
H3    H     H_    0.319061 0.693655 0.101711 0.154625
H4    H     H_    0.319408 0.306092 0.101784 0.156187
C5    C     C_2   0.312609 0.681929 0.796503 -0.312001
C6    C     C_2   0.312500 0.318153 0.796539 -0.306768
C7    C     C_2   0.288181 0.716001 0.958955 -0.119197
C8    C     C_2   0.288303 0.283919 0.959025 -0.119949
H5    H     H_    0.225483 0.795643 0.253727 0.129830
H6    H     H_    0.225703 0.204209 0.253770 0.134620
C9    C     C_2   0.194743 0.818271 0.111149 -0.335485
C10   C     C_2   0.194867 0.181647 0.111194 -0.333888
C11   C     C_2   0.219579 0.784110 0.949145 -0.120870
C12   C     C_2   0.219652 0.215843 0.949179 -0.117604
H7    H     H_    0.281785 0.704865 0.654263 0.124211
H8    H     H_    0.281478 0.295353 0.654308 0.131649
C13   C     C_R   0.743738 0.694568 0.597538 0.062804
C14   C     C_R   0.695996 0.266449 0.577951 0.074640
C15   C     C_R   0.689416 0.681838 0.415819 -0.114620
C16   C     C_R   0.688739 0.318599 0.416425 -0.117157
C17   C     C_R   0.702256 0.737646 0.267452 -0.167191
C18   C     C_R   0.752686 0.302611 0.285623 -0.180212
H9    H     H_    0.656761 0.733931 0.131417 0.141197
H10   H     H_    0.752954 0.341351 0.158719 0.125563
C19   C     C_R   0.767247 0.803103 0.299642 -0.176466
C20   C     C_R   0.818000 0.236451 0.318794 -0.183646
H11   H     H_    0.771565 0.847019 0.184159 0.135072
H12   H     H_    0.866095 0.226927 0.216210 0.122663
C21   C     C_R   0.821109 0.815511 0.483501 -0.100533
C22   C     C_R   0.821465 0.184000 0.483606 -0.102076
C23   C     C_R   0.809628 0.758432 0.629864 0.088583
C24   C     C_R   0.758806 0.203292 0.609996 0.093131
C25   C     C_3   0.785340 0.776250 0.826199 -0.448339
C26   C     C_3   0.720501 0.172197 0.783504 -0.440287
C27   C     C_3   0.711554 0.709081 0.788336 -0.218103
C28   C     C_3   0.649746 0.244020 0.748045 -0.220541
H13   H     H_    0.757832 0.840078 0.836933 0.175303
H14   H     H_    0.689786 0.109313 0.758890 0.175426
H15   H     H_    0.843478 0.759603 0.942838 0.167097
H16   H     H_    0.771200 0.178990 0.918897 0.173356
H17   H     H_    0.723750 0.654975 0.887587 0.129464
H18   H     H_    0.657456 0.292225 0.863021 0.130486
O11   O     O_R   0.921430 0.915960 0.371040 -0.538295
O12   O     O_R   0.921430 0.084040 0.371040 -0.538189
O13   O     O_R   0.910450 0.087500 0.697310 -0.543668
O14   O     O_R   0.910450 0.912500 0.697310 -0.543011
O15   O     O_R   0.091710 0.087460 0.928430 -0.540642
O16   O     O_R   0.091710 0.912540 0.928430 -0.540288
C29   C     C_R   0.888356 0.114317 0.519634 0.697120
C30   C     C_R   0.887900 0.885794 0.519597 0.694047
O17   O     O_3   0.065970 0.000000 0.586140 -0.368564
V3    V     V_3+5 0.995640 0.000000 0.837400 1.412095
O18   O     O_R   0.103020 0.915700 0.261710 -0.540762
O19   O     O_R   0.103020 0.084300 0.261710 -0.540854
C31   C     C_R   0.125347 0.886004 0.100185 0.760105
C32   C     C_R   0.125384 0.113966 0.100182 0.757116
V4    V     V_3+5 0.017940 0.000000 0.344880 1.406568
O20   O     O_3   0.947330 1.000000 0.046180 -0.374607
C33   C     C_1   0.615802 0.742513 0.765516 0.349340
N1    N     N_1   0.540884 0.768746 0.747661 -0.371502
C34   C     C_1   0.553304 0.216060 0.688136 0.351176
N2    N     N_1   0.477434 0.194050 0.640831 -0.367000

loop_
_geom_bond_atom_site_label_1
_geom_bond_atom_site_label_2
_ccdc_geom_bond_type
C9    C11   D    
O1    C2    A    
H1    C11   S    
V4    O20   S    
O2    C1    A    
O4    C2    A    
C23   C25   S    
C34   N2    T    
C5    H7    S    
C26   H14   S    
C6    H8    S    
C7    C11   S    
C4    C5    S    
C15   C17   A    
C27   C33   S    
C18   C20   A    
O3    C1    A    
O11   C30   A    
C20   C22   A    
V3    O20   S    
V2    O10   S    
O12   V4    S    
C2    C16   S    
O16   C31   A    
O18   C31   A    
O8    V2    S    
H4    C8    S    
C25   C27   S    
C26   C28   S    
O18   V4    S    
O1    V2    S    
O7    V1    S    
O11   V4    S    
C24   C26   S    
C19   H11   S    
C10   C32   S    
C20   H12   S    
H6    C10   S    
C21   C23   A    
C22   C24   A    
O14   C30   A    
O17   V3    S    
C22   C29   S    
C25   H15   S    
C26   H16   S    
H3    C7    S    
C33   N1    T    
O9    V2    S    
O19   V4    S    
O2    V2    S    
O5    C4    A    
C28   H18   S    
C27   H17   S    
O17   V4    S    
O9    C4    A    
O12   C29   A    
C5    C7    D    
H2    C12   S    
C13   C23   A    
C6    C8    D    
C14   C24   A    
O4    V1    S    
C28   C34   S    
O16   V3    S    
C9    C31   S    
O15   V3    S    
C1    C15   S    
O6    V1    S    
C13   C27   S    
C14   C28   S    
O14   V3    S    
C16   C18   A    
O7    V2    S    
O5    V1    S    
C17   H9    S    
O3    V1    S    
V1    O10   S    
O6    C3    A    
C18   H10   S    
O8    C3    A    
O13   V3    S    
C25   H13   S    
C10   C12   D    
C13   C15   A    
C3    C6    S    
C14   C16   A    
C17   C19   A    
C8    C12   S    
O13   C29   A    
O15   C32   A    
C21   C30   S    
C19   C21   A    
O19   C32   A    
H5    C9    S    
