data_mof_unit_15925.cif
_audit_creation_date              2013-03-05T15:56:32-0500
_audit_creation_method            fapswitch 2.2
_symmetry_space_group_name_H-M    P1
_symmetry_Int_Tables_number       1
_space_group_crystal_system       triclinic
_cell_length_a                    12.310307
_cell_length_b                    13.170618
_cell_length_c                    27.799816
_cell_angle_alpha                 77.693559
_cell_angle_beta                  101.162118
_cell_angle_gamma                 116.531784
_cell_volume                      3914.93148053

loop_
_atom_site_label
_atom_site_type_symbol
_atom_site_description
_atom_site_fract_x
_atom_site_fract_y
_atom_site_fract_z
_atom_type_partial_charge
O1    O     O_R   0.972510 0.318140 0.514280 -0.581078
O2    O     O_R   0.806530 0.359640 0.495100 -0.603188
C1    C     C_R   0.854914 0.286574 0.504044 0.769379
O3    O     O_R   0.082990 0.479270 0.579320 -0.584615
O4    O     O_R   0.917010 0.520770 0.560140 -0.600040
C2    C     C_R   0.999211 0.499577 0.592410 0.797304
Cu1   Cu    Cu3+1 0.098270 0.475420 0.511360 0.954148
Cu2   Cu    Cu3+1 0.901730 0.524580 0.488640 0.924949
O5    O     O_R   0.193470 0.640360 0.504900 -0.590729
O6    O     O_R   0.027490 0.681860 0.485720 -0.586389
O7    O     O_R   0.082990 0.479230 0.439860 -0.531231
O8    O     O_R   0.917010 0.520730 0.420680 -0.601448
C3    C     C_R   0.145099 0.713484 0.492742 0.802849
C4    C     C_R   0.999979 0.499174 0.407635 0.816667
C5    C     C_R   0.912489 0.404077 0.824096 0.535837
O9    O     O_2   0.835352 0.311644 0.801991 -0.538527
N1    N     N_R   0.993108 0.498339 0.797370 -0.468761
C6    C     C_R   0.072958 0.593165 0.818673 0.536673
C7    C     C_R   0.091047 0.489424 0.730439 -0.102982
C8    C     C_R   0.092618 0.489593 0.680416 -0.215619
C9    C     C_R   0.900206 0.506991 0.661161 -0.223320
C10   C     C_R   0.898612 0.506251 0.711245 -0.105067
C11   C     C_R   0.994129 0.497770 0.745977 0.358958
C12   C     C_R   0.991363 0.499604 0.897262 -0.047180
C13   C     C_R   0.910361 0.402794 0.874537 -0.020757
C14   C     C_R   0.828863 0.307249 0.902448 -0.139141
C15   C     C_R   0.073408 0.595689 0.868931 -0.021430
C16   C     C_R   0.997355 0.498750 0.645282 -0.038902
H1    H     H_    0.825323 0.513711 0.634981 0.161240
H2    H     H_    0.823518 0.512846 0.723101 0.140100
H3    H     H_    0.764326 0.232368 0.885672 0.188785
C17   C     C_R   0.999332 0.497453 0.354725 -0.142752
C18   C     C_R   0.915527 0.399844 0.028409 0.054482
C19   C     C_R   0.062302 0.603364 0.020114 -0.017140
C20   C     C_R   0.989046 0.502150 0.049562 0.074562
C21   C     C_R   0.849816 0.299247 0.059885 -0.190574
C22   C     C_R   0.852998 0.300054 0.109943 -0.125836
C23   C     C_R   0.921733 0.400959 0.130726 -0.003221
C24   C     C_R   0.989570 0.502984 0.100694 -0.083330
C25   C     C_R   0.057984 0.605269 0.121909 -0.149397
C26   C     C_R   0.061836 0.600048 0.173523 0.583887
N2    N     N_R   0.994134 0.500025 0.201506 -0.462463
C27   C     C_R   0.924534 0.401678 0.181260 0.550464
C28   C     C_R   0.057292 0.443558 0.288485 -0.181353
C29   C     C_R   0.058321 0.441130 0.339180 0.456780
C30   C     C_R   0.937243 0.551814 0.318960 -0.285439
C31   C     C_R   0.935615 0.552411 0.268702 -0.096083
C32   C     C_R   0.995671 0.498539 0.253332 0.282087
O10   O     O_2   0.858140 0.304832 0.210065 -0.537050
C33   C     C_R   0.910894 0.400982 0.976815 0.041704
C34   C     C_R   0.990381 0.500318 0.948220 0.072800
C35   C     C_R   0.068926 0.600403 0.970008 0.066188
C36   C     C_R   0.828877 0.306139 0.952537 -0.196651
H4    H     H_    0.104332 0.402457 0.276427 0.158333
H5    H     H_    0.801297 0.220421 0.132432 0.195383
H6    H     H_    0.797156 0.217110 0.047320 0.149645
H7    H     H_    0.761139 0.230145 0.970914 0.147099
O11   O     O_2   0.150988 0.684986 0.791177 -0.538104
C37   C     C_R   0.154542 0.691645 0.891329 -0.143361
H8    H     H_    0.168637 0.483162 0.669279 0.160320
H9    H     H_    0.165031 0.482685 0.757201 0.142093
H10   H     H_    0.220296 0.765733 0.870624 0.189575
C38   C     C_R   0.124265 0.705523 0.041402 -0.257389
C39   C     C_R   0.121291 0.708072 0.091014 0.363857
O12   O     O_2   0.134946 0.692599 0.196130 -0.461602
C40   C     C_R   0.152819 0.694034 0.940879 -0.195780
H11   H     H_    0.171032 0.787178 0.019534 0.173961
H12   H     H_    0.890849 0.595113 0.329811 0.178926
H13   H     H_    0.887786 0.594984 0.241565 0.161395
H14   H     H_    0.221049 0.769734 0.955652 0.151453
C41   C     C_R   0.274692 0.022497 0.434843 -0.179605
H15   H     H_    0.093744 0.887737 0.436546 0.148423
H16   H     H_    0.455731 0.220082 0.404834 0.157055
H17   H     H_    0.243535 0.081521 0.409540 0.138404
C42   C     C_R   0.227972 0.834726 0.482566 -0.046621
C43   C     C_R   0.816033 0.084577 0.534801 -0.187244
C44   C     C_R   0.737482 0.969388 0.543914 -0.138825
C45   C     C_R   0.613922 0.931960 0.526928 -0.177156
C46   C     C_R   0.566716 0.009363 0.498463 0.082499
C47   C     C_R   0.649950 0.124162 0.484182 0.079235
C48   C     C_R   0.439857 0.976336 0.483212 0.073935
C49   C     C_R   0.399646 0.054189 0.450158 0.163150
C50   C     C_R   0.484666 0.161718 0.431802 -0.222374
C51   C     C_R   0.608028 0.195619 0.447902 -0.194897
C52   C     C_R   0.351332 0.868412 0.500247 -0.245814
C53   C     C_R   0.189159 0.912805 0.450690 -0.191243
C54   C     C_R   0.773176 0.163554 0.506175 -0.107090
H18   H     H_    0.375773 0.807783 0.527104 0.148918
H19   H     H_    0.910197 0.112204 0.551221 0.154952
H20   H     H_    0.558619 0.841418 0.535746 0.129324
H21   H     H_    0.771880 0.909065 0.565654 0.146682
H22   H     H_    0.669834 0.277442 0.430331 0.179024
C55   C     C_R   0.346417 0.328196 0.578803 -0.294105
H23   H     H_    0.168797 0.309225 0.587691 0.125941
H24   H     H_    0.546908 0.294685 0.594814 0.161515
H25   H     H_    0.345488 0.261419 0.609449 0.146402
N3    N     N_R   0.246290 0.438210 0.528570 -0.182887
C56   C     C_R   0.759661 0.645527 0.433115 0.073187
C57   C     C_R   0.663130 0.677310 0.418626 -0.244775
C58   C     C_R   0.559555 0.622378 0.443751 -0.175805
C59   C     C_R   0.551357 0.534483 0.483997 -0.008197
C60   C     C_R   0.652971 0.505147 0.497612 0.288119
C61   C     C_R   0.446926 0.474992 0.511307 -0.039316
C62   C     C_R   0.446607 0.387886 0.551382 0.171706
C63   C     C_R   0.546390 0.360938 0.564083 -0.278200
C64   C     C_R   0.647234 0.418447 0.537960 -0.189640
C65   C     C_R   0.341997 0.497755 0.500878 0.053383
C66   C     C_R   0.246548 0.354916 0.566709 0.064890
N4    N     N_R   0.754320 0.561170 0.471730 -0.206604
H26   H     H_    0.334088 0.562206 0.471075 0.131261
H27   H     H_    0.839731 0.688663 0.413427 0.125373
H28   H     H_    0.487661 0.650501 0.430948 0.146064
H29   H     H_    0.668608 0.744770 0.387817 0.156119
H30   H     H_    0.718967 0.391926 0.551063 0.208606
N5    N     N_R   0.178143 0.817502 0.108215 0.164817
O13   O     O_R   0.111590 0.855289 0.123637 -0.302706
O14   O     O_R   0.288646 0.888467 0.098637 -0.336208
O15   O     O_3   0.121449 0.387718 0.373110 -0.566149
C67   C     C_3   0.043623 0.270000 0.382580 -0.276118
H31   H     H_    0.019432 0.228367 0.348756 0.163624
H32   H     H_    0.959404 0.255910 0.397466 0.148439
H33   H     H_    0.092622 0.227684 0.411148 0.186580

loop_
_geom_bond_atom_site_label_1
_geom_bond_atom_site_label_2
_geom_bond_distance
_ccdc_geom_bond_type
C29   O15   1.382114 S    
C28   C32   1.398894 A    
C59   C60   1.429489 A    
C17   C29   1.415539 A    
C20   C24   1.422590 A    
C7    C8    1.394018 A    
C12   C15   1.408250 A    
C47   C51   1.413163 A    
C48   C49   1.420031 A    
Cu1   Cu2   2.702869 S    
C40   H14   1.077506 S    
C44   C45   1.389565 A    
C45   H20   1.077174 S    
Cu1   O7    1.951908 S    
H23   C66   1.081847 S    
N1    C11   1.432851 S    
C64   H30   1.063613 S    
C50   C51   1.386420 A    
C21   C22   1.386733 A    
C47   C54   1.420257 A    
C37   C40   1.388992 A    
O4    C2    1.304144 A    
O7    C4    1.304173 A    
C5    C13   1.403917 A    
C5    O9    1.349672 S    
C56   C57   1.391684 A    
C18   C21   1.413427 A    
Cu1   O5    1.940509 S    
C19   C20   1.416724 A    
C26   N2    1.366934 A    
O5    C3    1.300781 A    
O15   C67   1.409830 S    
C31   H13   1.082985 S    
H24   C63   1.084635 S    
C18   C20   1.422220 A    
N3    C66   1.354115 A    
C6    O11   1.349779 S    
C2    C16   1.472094 S    
C31   C32   1.397393 A    
N5    O14   1.301246 A    
C8    H8    1.083015 S    
Cu1   N3    2.037082 S    
C43   H19   1.083322 S    
C41   C49   1.403642 A    
C12   C34   1.421075 A    
C14   H3    1.083495 S    
C59   C61   1.437853 A    
C39   N5    1.434834 S    
C9    C10   1.394155 A    
O3    Cu1   1.947890 S    
C55   C62   1.400952 A    
C62   C63   1.388390 A    
C42   C52   1.395225 A    
C33   C34   1.419579 A    
C67   H32   1.114487 S    
C38   H11   1.077628 S    
C33   C36   1.415670 A    
C1    C54   1.472025 S    
C34   C35   1.419261 A    
C3    C42   1.460979 S    
C43   C44   1.386089 A    
O3    C2    1.304162 A    
C24   C25   1.415867 A    
C46   C48   1.422382 A    
C36   H7    1.076775 S    
C45   C46   1.417926 A    
C27   O10   1.350120 S    
C26   O12   1.348433 S    
C8    C16   1.405862 A    
C18   C33   1.421478 A    
C9    H1    1.083041 S    
C38   C39   1.394650 A    
O1    C1    1.304891 A    
C22   H5    1.083588 S    
C7    C11   1.399665 A    
C30   H12   1.083234 S    
C22   C23   1.396215 A    
C21   H6    1.076759 S    
C41   H17   1.084000 S    
C41   C53   1.392551 A    
C42   C53   1.399155 A    
C57   C58   1.393660 A    
Cu2   O8    1.947885 S    
N1    C6    1.367426 A    
N2    C32   1.433283 S    
C12   C13   1.408110 A    
C43   C54   1.403021 A    
C25   C26   1.414332 A    
C9    C16   1.406297 A    
O8    C4    1.304477 A    
C58   H28   1.077905 S    
C55   H25   1.083908 S    
C65   H26   1.076711 S    
N2    C27   1.364264 A    
C14   C36   1.389377 A    
C35   C40   1.415393 A    
C28   C29   1.400560 A    
C61   C65   1.416451 A    
C52   H18   1.076624 S    
C5    N1    1.367411 A    
C30   C31   1.391839 A    
C44   H21   1.082855 S    
C37   H10   1.083509 S    
C56   H27   1.081647 S    
C10   H2    1.082898 S    
O1    Cu1   1.950969 S    
C17   C30   1.405896 A    
O2    Cu2   1.940509 S    
C6    C15   1.403509 A    
C4    C17   1.474327 S    
O6    C3    1.301619 A    
C57   H29   1.082567 S    
O4    Cu2   1.951914 S    
H15   C53   1.083200 S    
C67   H31   1.113100 S    
C63   C64   1.384455 A    
C19   C35   1.420726 A    
C25   C39   1.413860 A    
O2    C1    1.302072 A    
C13   C14   1.396214 A    
C23   C27   1.400511 A    
C55   C66   1.387235 A    
C15   C37   1.396223 A    
Cu2   N4    2.025007 S    
C23   C24   1.410405 A    
C7    H9    1.082881 S    
C19   C38   1.410749 A    
C67   H33   1.109678 S    
C60   C64   1.407013 A    
C46   C47   1.418134 A    
N3    C65   1.365330 A    
C28   H4    1.083195 S    
Cu2   O6    1.950968 S    
C49   C50   1.391396 A    
C61   C62   1.417812 A    
C56   N4    1.358211 A    
C10   C11   1.399692 A    
C60   N4    1.384756 A    
C58   C59   1.410432 A    
C51   H22   1.079735 S    
H16   C50   1.084160 S    
C48   C52   1.400468 A    
N5    O13   1.301512 A    
