data_mof_unit_55232.cif
_audit_creation_date              2012-12-10T20:28:46-0500
_audit_creation_method            fapswitch 2.2
_symmetry_space_group_name_H-M    P1
_symmetry_Int_Tables_number       1
_space_group_crystal_system       triclinic
_cell_length_a                    10.734119
_cell_length_b                    10.728081
_cell_length_c                    9.889805
_cell_angle_alpha                 89.150827
_cell_angle_beta                  88.609819
_cell_angle_gamma                 92.03251
_cell_volume                      1137.68364479

loop_
_atom_site_label
_atom_site_type_symbol
_atom_type_description
_atom_site_fract_x
_atom_site_fract_y
_atom_site_fract_z
_atom_type_partial_charge
Br1   Br    Br    0.624601 0.125007 0.881827 -0.585542
Br2   Br    Br    0.194916 0.293460 0.173914 -0.539516
C1    C     C_R   0.505013 0.259855 0.500392 0.894037
C2    C     C_R   0.524974 0.937959 0.371885 -0.205407
C3    C     C_R   0.526507 0.871708 0.494921 -0.122668
C4    C     C_R   0.259584 0.505827 0.502684 0.897332
C5    C     C_R   0.554311 0.934668 0.612841 0.161016
C6    C     C_3   0.497308 0.921435 0.751458 -0.450148
C7    C     C_3   0.502224 0.062379 0.754743 0.046451
C8    C     C_R   0.400262 0.450726 0.074925 0.195929
C9    C     C_R   0.593549 0.557169 0.070553 -0.163881
C10   C     C_R   0.594666 0.558653 0.927193 -0.007968
C11   C     C_R   0.398865 0.453138 0.932247 0.101092
C12   C     C_R   0.055013 0.476158 0.629411 0.107293
C13   C     C_3   0.349194 0.322292 0.929485 -0.526897
C14   C     C_3   0.355743 0.317716 0.082139 0.087796
C15   C     C_R   0.504582 0.740016 0.498750 0.909133
C16   C     C_R   0.738815 0.488772 0.498622 0.888664
C17   C     C_R   0.100656 0.481673 0.762664 -0.203646
C18   C     C_R   0.032489 0.426945 0.871308 -0.133844
C19   C     C_R   0.919922 0.363683 0.849326 -0.028969
C20   C     C_R   0.868235 0.369244 0.721867 -0.137725
C21   C     C_R   0.930578 0.437108 0.614945 0.089682
C22   C     C_2   0.702832 0.626140 0.860951 0.934933
C23   C     C_R   0.125369 0.509940 0.509601 -0.129485
C24   C     C_R   0.065780 0.530909 0.387636 -0.148764
C25   C     C_R   0.938737 0.517045 0.382236 -0.168337
C26   C     C_R   0.870769 0.473253 0.496225 -0.123444
C27   C     C_R   0.556567 0.062348 0.614340 0.109011
C28   C     C_R   0.527283 0.128893 0.497665 -0.159709
C29   C     C_R   0.525321 0.066880 0.373298 -0.154266
H1    H     H_    0.117205 0.560465 0.296370 0.185394
H2    H     H_    0.869388 0.316686 0.932488 0.185630
H3    H     H_    0.778439 0.322749 0.708185 0.181367
H4    H     H_    0.893748 0.543273 0.289616 0.181389
H5    H     H_    0.514263 0.116161 0.278402 0.188270
H6    H     H_    0.513359 0.891192 0.276426 0.186166
H7    H     H_    0.400555 0.880661 0.751485 0.171354
H8    H     H_    0.886715 0.671680 0.866458 0.350579
H9    H     H_    0.559421 0.877298 0.824768 0.259877
H10   H     H_    0.407573 0.100532 0.759066 0.135258
H11   H     H_    0.668547 0.602349 0.124873 0.182768
H12   H     H_    0.253818 0.313392 0.889916 0.226621
H13   H     H_    0.416630 0.263439 0.879627 0.235400
H14   H     H_    0.427930 0.254867 0.119174 0.167250
H15   H     H_    0.184393 0.533728 0.787488 0.178660
H16   H     H_    0.067407 0.433497 0.972521 0.190327
N1    N     N_R   0.499160 0.499140 0.142800 -0.133642
N2    N     N_R   0.499160 0.499180 0.857150 -0.130459
O1    O     O_R   0.500020 0.316790 0.614690 -0.617675
O2    O     O_R   0.820292 0.619549 0.918182 -0.832911
O3    O     O_R   0.500000 0.316760 0.385350 -0.612605
O4    O     O_R   0.316770 0.500020 0.614690 -0.641389
O5    O     O_R   0.316760 0.499980 0.385350 -0.586649
O6    O     O_R   0.500000 0.683240 0.614650 -0.579342
O7    O     O_R   0.499980 0.683210 0.385310 -0.634070
O8    O     O_R   0.683240 0.500020 0.614650 -0.601656
O9    O     O_R   0.683230 0.499980 0.385310 -0.627052
O10   O     O_2   0.689561 0.694838 0.763700 -0.601334
Zn1   Zn    Zn3+2 0.500010 0.500020 0.653130 0.981999
Zn2   Zn    Zn3+2 0.499990 0.499980 0.346870 0.978323

loop_
_geom_bond_atom_site_label_1
_geom_bond_atom_site_label_2
_ccdc_geom_bond_type
C12   C21   A    
C14   H14   S    
C1    C28   S    
H8    O2    S    
C9    C10   A    
C24   H1    S    
C27   C28   A    
C5    C27   A    
O5    Zn2   S    
C16   O9    A    
Br2   C14   S    
C10   C22   S    
C16   O8    A    
C7    H10   S    
C17   C18   A    
C7    C27   S    
C1    O3    A    
O1    Zn1   S    
C22   O2    S    
C10   N2    A    
C9    N1    A    
C17   H15   S    
C13   H12   S    
C5    C6    S    
C8    C14   S    
O6    Zn1   S    
C2    H6    S    
C3    C15   S    
C8    N1    A    
C15   O7    A    
N1    Zn2   S    
N2    Zn1   S    
C6    H7    S    
O9    Zn2   S    
C22   O10   D    
C11   N2    A    
C19   C20   A    
O4    Zn1   S    
C4    O5    A    
C13   H13   S    
O3    Zn2   S    
C11   C13   S    
C12   C23   A    
C24   C25   A    
C28   C29   A    
C20   H3    S    
C4    C23   S    
C19   H2    S    
C4    O4    A    
C13   C14   S    
C2    C29   A    
Br1   C7    S    
C16   C26   S    
C18   C19   A    
C9    H11   S    
C25   C26   A    
C3    C5    A    
C15   O6    A    
O7    Zn2   S    
C6    C7    S    
O8    Zn1   S    
C29   H5    S    
C6    H9    S    
C25   H4    S    
C23   C24   A    
C21   C26   A    
C12   C17   A    
C1    O1    A    
C20   C21   A    
C18   H16   S    
C2    C3    A    
C8    C11   A    
