data_mof_unit_41463.cif
_audit_creation_date              2012-12-11T16:31:28-0500
_audit_creation_method            fapswitch 2.2
_symmetry_space_group_name_H-M    P1
_symmetry_Int_Tables_number       1
_space_group_crystal_system       triclinic
_cell_length_a                    6.949675
_cell_length_b                    18.229722
_cell_length_c                    20.244962
_cell_angle_alpha                 68.482093
_cell_angle_beta                  90.769226
_cell_angle_gamma                 90.713168
_cell_volume                      2385.79198851

loop_
_atom_site_label
_atom_site_type_symbol
_atom_type_description
_atom_site_fract_x
_atom_site_fract_y
_atom_site_fract_z
_atom_type_partial_charge
O1    O     O_R   0.488990 0.443920 0.942160 -0.541641
O2    O     O_R   0.823840 0.406530 0.087600 -0.533988
O3    O     O_R   0.999650 0.556080 0.057840 -0.519073
C1    C     C_R   0.655270 0.382395 0.114917 0.757771
O4    O     O_R   0.818390 0.434590 0.944530 -0.546605
O5    O     O_R   0.994160 0.584350 0.913750 -0.539606
C2    C     C_R   0.649253 0.423845 0.921337 0.715268
O6    O     O_R   0.494480 0.415650 0.086250 -0.528673
O7    O     O_3   0.662600 0.549100 0.990070 -0.353948
V1    V     V_3+5 0.935320 0.490890 0.001840 1.448750
O8    O     O_R   0.324240 0.593470 0.912400 -0.541417
C3    C     C_R   0.155027 0.616450 0.884911 0.681465
O9    O     O_R   0.329690 0.565410 0.055470 -0.526230
C4    C     C_R   0.162248 0.579716 0.075767 0.760381
V2    V     V_3+5 0.435990 0.509110 0.998160 1.457894
O10   O     O_3   0.158840 0.450900 0.009930 -0.373346
C5    C     C_3   0.941769 0.696924 0.244390 -0.329861
C6    C     C_3   0.297872 0.680643 0.266789 -0.311933
C7    C     C_3   0.289201 0.728621 0.316369 -0.293814
H1    H     H_    0.917104 0.633161 0.275300 0.188940
H2    H     H_    0.442834 0.687875 0.242360 0.156575
H3    H     H_    0.277853 0.616801 0.298774 0.170818
H4    H     H_    0.269878 0.687667 0.372196 0.196358
H5    H     H_    0.428997 0.759767 0.314410 0.163477
C8    C     C_1   0.110298 0.874269 0.378765 -0.141743
C9    C     C_3   0.140712 0.708360 0.207847 0.234241
C10   C     C_3   0.929714 0.745453 0.293636 0.031702
C11   C     C_3   0.123657 0.789616 0.293461 0.222282
C12   C     C_3   0.162573 0.845218 0.215700 -0.377654
C13   C     C_3   0.171701 0.797758 0.165676 -0.346900
C14   C     C_1   0.116190 0.836137 0.340565 -0.025146
C15   C     C_1   0.150072 0.662885 0.159983 -0.052341
C16   C     C_1   0.156359 0.625369 0.121279 -0.134575
H6    H     H_    0.059650 0.819671 0.123365 0.143976
H7    H     H_    0.313931 0.807858 0.139037 0.146189
H8    H     H_    0.047042 0.890113 0.196897 0.144001
H9    H     H_    0.825537 0.716006 0.203411 0.133600
H10   H     H_    0.813660 0.789871 0.273073 0.109007
H11   H     H_    0.300779 0.877682 0.213032 0.158738
H12   H     H_    0.908964 0.528190 0.698013 0.115712
C17   C     C_R   0.270902 0.774543 0.872534 -0.133409
C18   C     C_R   0.327564 0.849627 0.868534 -0.122706
C19   C     C_R   0.316552 0.913062 0.804321 -0.127808
C20   C     C_R   0.248502 0.901938 0.743606 -0.139897
C21   C     C_R   0.191736 0.826229 0.745687 0.069265
C22   C     C_R   0.203430 0.761083 0.811619 0.069683
C23   C     C_R   0.120533 0.815202 0.683856 -0.183790
C24   C     C_R   0.061684 0.738750 0.688153 0.064008
C25   C     C_R   0.073525 0.673601 0.754083 0.071360
C26   C     C_R   0.144272 0.684666 0.815945 -0.181122
C27   C     C_R   0.994728 0.725225 0.627200 -0.131712
C28   C     C_R   0.939180 0.650036 0.631140 -0.087641
C29   C     C_R   0.950678 0.586603 0.695336 -0.121631
C30   C     C_R   0.017713 0.597822 0.756116 -0.148316
H13   H     H_    0.279348 0.727536 0.924049 0.100104
H14   H     H_    0.379084 0.858709 0.915684 0.108460
H15   H     H_    0.359616 0.971388 0.801600 0.107308
H16   H     H_    0.239619 0.953576 0.695357 0.109208
H17   H     H_    0.986095 0.772238 0.575692 0.115281
H18   H     H_    0.888281 0.640860 0.583962 0.158744
H19   H     H_    0.026846 0.546187 0.804365 0.108381
H20   H     H_    0.625046 0.467187 0.325078 0.149779
C31   C     C_R   0.656634 0.215131 0.119290 0.185056
C32   C     C_R   0.656296 0.138118 0.121784 -0.143479
C33   C     C_R   0.632929 0.075911 0.184429 -0.154284
C34   C     C_R   0.611354 0.088014 0.247437 0.178994
C35   C     C_R   0.624054 0.166605 0.249317 -0.005305
C36   C     C_R   0.643099 0.232906 0.183066 -0.007800
C37   C     C_R   0.616567 0.180631 0.314128 -0.146184
C38   C     C_R   0.619063 0.258476 0.313767 0.054548
C39   C     C_R   0.634053 0.325430 0.248908 0.032043
C40   C     C_R   0.645619 0.312642 0.183019 -0.165144
C41   C     C_R   0.606448 0.270030 0.379230 -0.135943
C42   C     C_R   0.607405 0.344383 0.382244 -0.149268
C43   C     C_R   0.623033 0.409685 0.320723 -0.105299
C44   C     C_R   0.637752 0.402327 0.254609 0.107753
H21   H     H_    0.668573 0.126339 0.073261 0.138942
H22   H     H_    0.625631 0.016741 0.183752 0.135736
H23   H     H_    0.594901 0.221615 0.429721 0.101627
H24   H     H_    0.596970 0.351392 0.432936 0.133680
O11   O     O_R   0.770890 0.084490 0.414040 -0.539328
O12   O     O_R   0.445980 0.065450 0.555510 -0.541653
O13   O     O_R   0.270670 0.915620 0.586180 -0.534799
C45   C     C_R   0.615402 0.079687 0.575992 0.726973
O14   O     O_R   0.441480 0.093500 0.412450 -0.543259
O15   O     O_R   0.266140 0.943870 0.442100 -0.536724
C46   C     C_R   0.609253 0.114318 0.383916 0.691782
O16   O     O_R   0.775410 0.056240 0.558120 -0.534104
O17   O     O_3   0.602660 0.950990 0.510100 -0.364351
V3    V     V_3+5 0.329740 0.009100 0.498130 1.422866
O18   O     O_R   0.936120 0.934420 0.444240 -0.542431
C47   C     C_R   0.103795 0.920263 0.423975 0.713109
O19   O     O_R   0.940610 0.906370 0.587310 -0.538033
C48   C     C_R   0.109772 0.883433 0.614898 0.695723
V4    V     V_3+5 0.829110 0.990690 0.501470 1.431188
O20   O     O_3   0.106080 0.049010 0.489880 -0.367382
C49   C     C_3   0.834963 0.235562 0.717499 -0.386483
C50   C     C_3   0.514178 0.292296 0.667879 0.087690
C51   C     C_3   0.507833 0.339645 0.718721 0.080806
H25   H     H_    0.916730 0.339357 0.742633 0.144297
H26   H     H_    0.902367 0.271800 0.666167 0.163919
H27   H     H_    0.594272 0.327936 0.619070 0.148905
H28   H     H_    0.356119 0.341292 0.735334 0.141823
C52   C     C_1   0.638946 0.379025 0.875227 -0.159958
C53   C     C_3   0.626090 0.213048 0.703985 0.203922
C54   C     C_3   0.837754 0.282739 0.767816 -0.340024
C55   C     C_3   0.629809 0.296971 0.787766 0.196866
C56   C     C_3   0.535714 0.214658 0.825791 -0.368457
C57   C     C_3   0.538322 0.164917 0.777701 -0.343373
C58   C     C_1   0.633688 0.341960 0.836148 -0.084445
C59   C     C_1   0.627514 0.165134 0.658119 -0.085652
C60   C     C_1   0.624832 0.126188 0.620641 -0.193419
H29   H     H_    0.625611 0.111077 0.804254 0.151679
H30   H     H_    0.390659 0.143781 0.772119 0.132768
H31   H     H_    0.613827 0.182510 0.876369 0.161562
H32   H     H_    0.923002 0.181417 0.741375 0.152245
H33   H     H_    0.920025 0.248955 0.816936 0.152410
H34   H     H_    0.384479 0.221514 0.839880 0.136987
I1    I     I_    0.838287 0.671084 0.398749 -0.507243
N1    N     N_3   0.667616 0.272178 0.049299 -0.698058
H35   H     H_    0.797831 0.302675 0.043192 0.247136
H36   H     H_    0.544557 0.306814 0.038453 0.231749
N2    N     N_3   0.564047 0.018009 0.306473 -0.686514
H37   H     H_    0.675829 0.002175 0.343714 0.247824
H38   H     H_    0.431792 0.024794 0.327125 0.243890
I2    I     I_    0.669944 0.517155 0.175437 -0.424979
N3    N     N_3   0.318573 0.280744 0.644983 -0.676283
H39   H     H_    0.325156 0.256672 0.605491 0.235209
H40   H     H_    0.242311 0.241459 0.687561 0.222096
N4    N     N_3   0.568200 0.421789 0.680628 -0.658287
H41   H     H_    0.550773 0.454430 0.713122 0.231658
H42   H     H_    0.713041 0.424534 0.666818 0.230285

loop_
_geom_bond_atom_site_label_1
_geom_bond_atom_site_label_2
_ccdc_geom_bond_type
C8    C14   T    
C51   H28   S    
C9    C15   S    
O19   C48   A    
C6    H2    S    
C44   I2    S    
C17   C18   A    
O2    C1    A    
V4    O20   S    
C6    C9    S    
C1    O6    A    
C4    C16   S    
N2    H37   S    
C21   C22   A    
N1    H35   S    
C12   H8    S    
C45   C60   S    
C50   C53   S    
C13   H7    S    
C5    C9    S    
C56   H31   S    
C11   C12   S    
O5    C3    A    
C39   C44   A    
O11   V4    S    
N2    H38   S    
C54   C55   S    
C10   H10   S    
V2    O10   S    
C5    H1    S    
C56   C57   S    
C6    C7    S    
C41   C42   A    
C25   C26   A    
C17   H13   S    
C28   H18   S    
C18   H14   S    
O8    V2    S    
C24   C27   A    
C59   C60   T    
C20   H16   S    
C17   C22   A    
C38   C39   A    
O1    V2    S    
O7    V1    S    
C37   C46   S    
C57   H29   S    
C49   C53   S    
O14   C46   A    
C34   C35   A    
C53   C59   S    
O16   V4    S    
O19   V4    S    
C42   H24   S    
O9    C4    A    
N1    H36   S    
C21   C23   A    
C42   C43   A    
C13   H6    S    
C35   C36   A    
C5    C10   S    
C56   H34   S    
O15   V3    S    
O18   C47   A    
O4    C2    A    
C7    H4    S    
C29   C30   A    
O13   C48   A    
C27   C28   A    
C36   C40   A    
C35   C37   A    
O17   V4    S    
N4    H42   S    
C43   C44   A    
N3    H40   S    
C12   C13   S    
C23   C24   A    
C55   C56   S    
C12   H11   S    
C38   C41   A    
C41   H23   S    
C5    H9    S    
C49   H32   S    
C7    C11   S    
O11   C46   A    
O3    C4    A    
C57   H30   S    
C49   C54   S    
C50   N3    S    
H12   C29   S    
O6    V2    S    
O12   C45   A    
C2    C52   S    
O9    V2    S    
C19   C20   A    
C55   C58   S    
H20   C43   S    
C27   H17   S    
C18   C19   A    
N3    H39   S    
O2    V1    S    
C1    C40   S    
C28   C29   A    
O13   V3    S    
C53   C57   S    
C31   C36   A    
C24   C25   A    
C8    C47   S    
C33   H22   S    
C51   N4    S    
O1    C2    A    
C11   C14   S    
C20   C21   A    
C45   O16   A    
O5    V1    S    
C3    C26   S    
O14   V3    S    
V3    O20   S    
C30   H19   S    
C10   I1    S    
C51   C55   S    
C22   C26   A    
H25   C54   S    
O12   V3    S    
C15   C16   T    
C6    H3    S    
N4    H41   S    
O7    V2    S    
O4    V1    S    
C54   H33   S    
O3    V1    S    
C50   H27   S    
C32   C33   A    
C52   C58   T    
C31   N1    S    
V1    O10   S    
C23   C48   S    
C7    H5    S    
C33   C34   A    
C37   C38   A    
C19   H15   S    
O18   V4    S    
C31   C32   A    
C39   C40   A    
C50   C51   S    
C10   C11   S    
C32   H21   S    
C34   N2    S    
O15   C47   A    
O17   V3    S    
C49   H26   S    
C25   C30   A    
O8    C3    A    
C9    C13   S    
