data_mof_unit_8591.cif
_audit_creation_date              2013-03-05T16:48:16-0500
_audit_creation_method            fapswitch 2.2
_symmetry_space_group_name_H-M    P1
_symmetry_Int_Tables_number       1
_space_group_crystal_system       triclinic
_cell_length_a                    23.539343
_cell_length_b                    8.921024
_cell_length_c                    8.092196
_cell_angle_alpha                 89.701532
_cell_angle_beta                  89.906493
_cell_angle_gamma                 89.76583
_cell_volume                      1699.28160045

loop_
_atom_site_label
_atom_site_type_symbol
_atom_site_description
_atom_site_fract_x
_atom_site_fract_y
_atom_site_fract_z
_atom_type_partial_charge
O1    O     O_R   0.500000 0.285350 0.636850 -0.622583
O2    O     O_R   0.500000 0.714650 0.363150 -0.617646
O3    O     O_R   0.500000 0.714650 0.636850 -0.615405
O4    O     O_R   0.500000 0.285350 0.363150 -0.616434
C1    C     C_R   0.500030 0.217962 0.500273 0.929236
C2    C     C_R   0.499995 0.782039 0.499727 0.937191
O5    O     O_R   0.416160 0.500000 0.636910 -0.608417
O6    O     O_R   0.583840 0.500000 0.363090 -0.607413
O7    O     O_R   0.583840 0.500000 0.636910 -0.607508
O8    O     O_R   0.416160 0.500000 0.363090 -0.601373
C3    C     C_R   0.207263 0.499129 0.494919 -0.008285
C4    C     C_R   0.791178 0.477700 0.495375 0.038556
C5    C     C_R   0.388848 0.500218 0.500051 0.966012
C6    C     C_R   0.610891 0.498467 0.499810 0.986776
Zn1   Zn    Zn3+2 0.500000 0.500000 0.682780 1.007210
Zn2   Zn    Zn3+2 0.500000 0.500000 0.317220 1.010000
C7    C     C_R   0.296536 0.544652 0.355270 -0.084530
C8    C     C_R   0.701399 0.411904 0.372359 -0.088875
C9    C     C_R   0.295598 0.455788 0.642453 -0.064218
C10   C     C_R   0.704250 0.561812 0.624892 -0.087313
C11   C     C_R   0.326280 0.500494 0.499563 -0.226849
C12   C     C_R   0.672920 0.491032 0.498964 -0.202359
C13   C     C_R   0.878181 0.597903 0.421784 0.621746
C14   C     C_R   0.119826 0.362784 0.529543 0.624577
C15   C     C_R   0.880145 0.356724 0.551305 0.620295
C16   C     C_R   0.116838 0.619625 0.447398 0.652400
N1    N     N_R   0.851586 0.477120 0.489146 -0.297289
N2    N     N_R   0.146472 0.493963 0.490951 -0.312771
C17   C     C_R   0.939976 0.354003 0.550097 -0.110485
C18   C     C_R   0.057591 0.613953 0.429387 -0.078423
C19   C     C_R   0.937867 0.604029 0.417257 -0.076552
C20   C     C_R   0.060172 0.357614 0.541060 -0.110173
C21   C     C_R   0.968854 0.480471 0.483720 -0.043920
C22   C     C_R   0.028820 0.483808 0.484464 -0.070454
C23   C     C_R   0.971842 0.231206 0.614510 0.111274
C24   C     C_R   0.026871 0.733682 0.357401 0.138180
C25   C     C_R   0.967585 0.728302 0.348815 0.045152
C26   C     C_R   0.031065 0.232327 0.608300 0.110234
C27   C     C_1   0.500030 0.065205 0.500391 -0.177996
C28   C     C_1   0.500018 0.934799 0.499608 -0.176880
C29   C     C_R   0.237453 0.537767 0.352261 0.602031
C30   C     C_R   0.760586 0.406398 0.371383 0.598164
C31   C     C_R   0.236172 0.462383 0.640639 0.616716
C32   C     C_R   0.763437 0.554239 0.622178 0.597005
N3    N     N_1   0.500000 0.500000 0.073640 -0.024843
N4    N     N_1   0.500000 0.500000 0.926360 -0.025050
O9    O     O_2   0.846108 0.710995 0.361211 -0.552012
O10   O     O_2   0.151512 0.238490 0.554427 -0.536515
O11   O     O_2   0.849922 0.241557 0.613855 -0.551948
O12   O     O_2   0.144977 0.749553 0.423833 -0.489380
N5    N     N_3   0.945839 0.102581 0.690203 -0.408101
H1    H     H_    0.920530 0.047519 0.603992 0.237653
H2    H     H_    0.922109 0.136143 0.792936 0.253155
N6    N     N_3   0.056002 0.859026 0.284572 -0.354780
H3    H     H_    0.046499 0.862844 0.158421 0.219331
H4    H     H_    0.040883 0.957592 0.338718 0.200534
N7    N     N_3   0.939443 0.851081 0.267083 -0.450825
H5    H     H_    0.913769 0.908550 0.351106 0.248955
H6    H     H_    0.915758 0.810783 0.167722 0.260385
N8    N     N_3   0.060137 0.106637 0.681642 -0.408971
H7    H     H_    0.087532 0.144364 0.773949 0.253176
H8    H     H_    0.082399 0.047743 0.590918 0.253698
F1    F     F_    0.209271 0.569625 0.209810 -0.606874
F2    F     F_    0.788558 0.332447 0.249326 -0.629770
F3    F     F_    0.205956 0.429881 0.779481 -0.616174
F4    F     F_    0.794206 0.623286 0.741295 -0.630725
N9    N     N_3   0.326084 0.598837 0.211968 -0.386236
H9    H     H_    0.315909 0.530073 0.112401 0.236334
H10   H     H_    0.311399 0.707067 0.185346 0.233367
N10   N     N_3   0.670274 0.334605 0.246892 -0.400348
H11   H     H_    0.682658 0.377219 0.131766 0.233293
H12   H     H_    0.681585 0.221191 0.251650 0.229308
N11   N     N_3   0.324831 0.399997 0.786488 -0.397327
H13   H     H_    0.296459 0.375079 0.881958 0.251587
H14   H     H_    0.343738 0.297947 0.754270 0.194967
N12   N     N_3   0.676109 0.644831 0.752560 -0.401277
H15   H     H_    0.690674 0.755362 0.748156 0.233149
H16   H     H_    0.687814 0.598668 0.866634 0.233664

loop_
_geom_bond_atom_site_label_1
_geom_bond_atom_site_label_2
_geom_bond_distance
_ccdc_geom_bond_type
C8    N10   1.434228 S    
N11   H13   1.044040 S    
C32   F4    1.358413 S    
O3    C2    1.259258 A    
N3    N4    1.191818 T    
O1    C1    1.260880 A    
C24   C25   1.398430 A    
C9    C11   1.418635 A    
N12   H16   1.045752 S    
C16   O12   1.349873 S    
N7    H6    1.045311 S    
C17   C21   1.422057 A    
C10   N12   1.434006 S    
N8    H8    1.044111 S    
C4    C30   1.393785 A    
C19   C21   1.422964 A    
C3    C31   1.399218 A    
N10   H11   1.045822 S    
O1    Zn1   1.952535 S    
C20   C26   1.418967 A    
O2    Zn2   1.952534 S    
O5    Zn1   2.008740 S    
O6    Zn2   2.008738 S    
N11   H14   1.045774 S    
O2    C2    1.260886 A    
C10   C32   1.394722 A    
C9    C31   1.399946 A    
C7    C29   1.392644 A    
C15   C17   1.408502 A    
N6    H4    1.045362 S    
C7    N9    1.434031 S    
C13   O9    1.348321 S    
C18   C22   1.416098 A    
C4    N1    1.422784 S    
N9    H9    1.043951 S    
C14   O10   1.348236 S    
C9    N11   1.439968 S    
C23   C26   1.394973 A    
N12   H15   1.045690 S    
C27   C28   1.163411 T    
C7    C11   1.415778 A    
C19   C25   1.422624 A    
N8    H7    1.045496 S    
N9    H10   1.045702 S    
C13   C19   1.406651 A    
O4    Zn2   1.948733 S    
O7    C6    1.278396 A    
C14   C20   1.408081 A    
C31   F3    1.359403 S    
C21   C22   1.412014 A    
C5    C11   1.472820 S    
C26   N8    1.437336 S    
C10   C12   1.412076 A    
C16   C18   1.403612 A    
C13   N1    1.359537 A    
C1    C27   1.362739 S    
C23   N5    1.436561 S    
C2    C28   1.362767 S    
C29   F1    1.359118 S    
C30   F2    1.358474 S    
O3    Zn1   1.948732 S    
N6    H3    1.045772 S    
O6    C6    1.277402 A    
C8    C12   1.413764 A    
C14   N2    1.364541 A    
O4    C1    1.259254 A    
O8    C5    1.280376 A    
Zn2   N3    1.971097 S    
C15   N1    1.359453 A    
C17   C23   1.422333 A    
C16   N2    1.363020 A    
C18   C24   1.411270 A    
C6    C12   1.461375 S    
C8    C30   1.393915 A    
O7    Zn1   2.007547 S    
N5    H1    1.044138 S    
C4    C32   1.395351 A    
O8    Zn2   2.007549 S    
N7    H5    1.044098 S    
C3    N2    1.432338 S    
C3    C29   1.397030 A    
C15   O11   1.348075 S    
C24   N6    1.437364 S    
O5    C5    1.281462 A    
N10   H12   1.045687 S    
Zn1   N4    1.971097 S    
N5    H2    1.045231 S    
C25   N7    1.436632 S    
C20   C22   1.418008 A    
