data_mof_unit_38888.cif
_audit_creation_date              2012-12-10T17:36:50-0500
_audit_creation_method            fapswitch 2.2
_symmetry_space_group_name_H-M    P1
_symmetry_Int_Tables_number       1
_space_group_crystal_system       triclinic
_cell_length_a                    10.606176
_cell_length_b                    12.337417
_cell_length_c                    13.145353
_cell_angle_alpha                 116.540822
_cell_angle_beta                  77.59942
_cell_angle_gamma                 101.046582
_cell_volume                      1493.90134941

loop_
_atom_site_label
_atom_site_type_symbol
_atom_type_description
_atom_site_fract_x
_atom_site_fract_y
_atom_site_fract_z
_atom_type_partial_charge
C1    C     C_R   0.510793 0.855072 0.286461 0.760893
C2    C     C_3   0.017768 0.013022 0.602931 -0.152097
C3    C     C_3   0.933364 0.906003 0.521281 -0.137173
C4    C     C_3   0.877179 0.998212 0.499693 0.027019
C5    C     C_R   0.332142 0.276827 0.027744 -0.279847
C6    C     C_R   0.452294 0.228163 0.836585 -0.090330
C7    C     C_R   0.590611 0.815191 0.083292 -0.189773
C8    C     C_R   0.612785 0.736258 0.967765 -0.147917
C9    C     C_R   0.566581 0.613402 0.930904 -0.170890
C10   C     C_R   0.492048 0.567289 0.009315 0.094442
C11   C     C_R   0.456025 0.651337 0.124214 0.052771
C12   C     C_R   0.740367 0.999191 0.499661 0.766333
C13   C     C_R   0.451860 0.440885 0.977621 0.027311
C14   C     C_R   0.367789 0.401886 0.057723 0.122358
C15   C     C_R   0.319190 0.488458 0.165862 0.138010
C16   C     C_R   0.360783 0.611542 0.196798 -0.260834
C17   C     C_R   0.495129 0.351810 0.869056 -0.334608
C18   C     C_R   0.373620 0.189283 0.917567 0.396058
C19   C     C_R   0.515300 0.773550 0.163086 -0.088338
C20   C     C_R   0.708808 0.347025 0.329217 -0.304013
C21   C     C_R   0.321558 0.757908 0.643855 0.650224
C22   C     C_R   0.284120 0.659736 0.674338 -0.352368
C23   C     C_R   0.480080 0.145146 0.713998 0.833528
C24   C     C_R   0.351763 0.557887 0.620276 -0.248691
C25   C     C_R   0.458552 0.551205 0.533959 -0.007986
C26   C     C_R   0.494570 0.653285 0.505418 0.197279
C27   C     C_R   0.530588 0.447083 0.474943 -0.015893
C28   C     C_R   0.636672 0.447135 0.388597 0.175318
C29   C     C_R   0.670406 0.547047 0.361974 -0.282416
C30   C     C_R   0.601220 0.647676 0.419095 -0.167269
C31   C     C_R   0.502421 0.342014 0.497482 0.014248
C32   C     C_R   0.676129 0.246935 0.355471 0.075691
C33   C     C_R   0.259671 0.000519 0.499978 0.784364
C34   C     C_3   0.982288 0.985998 0.396197 -0.169123
C35   C     C_3   0.040836 0.893909 0.417803 -0.175926
C36   C     C_3   0.122886 0.000910 0.499470 0.024082
C37   C     C_3   0.066676 0.093034 0.477839 -0.135889
C38   C     C_3   0.959279 0.105126 0.581337 -0.175595
Cu1   Cu    Cu3+1 0.529830 0.098270 0.475420 0.930019
Cu2   Cu    Cu3+1 0.470170 0.901730 0.524580 0.982194
H1    H     H_    0.077609 0.807656 0.350928 0.122059
H2    H     H_    0.562774 0.376158 0.806925 0.169723
H3    H     H_    0.635013 0.908588 0.110505 0.151285
H4    H     H_    0.588866 0.557907 0.840112 0.129432
H5    H     H_    0.669894 0.769698 0.906712 0.142816
H6    H     H_    0.315018 0.675273 0.278034 0.170165
H7    H     H_    0.731485 0.169409 0.309941 0.120652
H8    H     H_    0.751641 0.547671 0.296039 0.147770
H9    H     H_    0.790080 0.346278 0.262973 0.138417
H10   H     H_    0.423712 0.333951 0.561620 0.124165
H11   H     H_    0.964420 0.974777 0.311670 0.125010
H12   H     H_    0.317769 0.485703 0.647695 0.154649
H13   H     H_    0.201883 0.661903 0.740099 0.142891
H14   H     H_    0.635136 0.719095 0.392221 0.205441
H15   H     H_    0.123909 0.169668 0.460115 0.141347
H16   H     H_    0.922621 0.191378 0.648274 0.131144
H17   H     H_    0.035702 0.024178 0.687423 0.147903
H18   H     H_    0.876063 0.829313 0.538881 0.143753
H19   H     H_    0.269927 0.246602 0.089205 0.165626
N1    N     N_R   0.575030 0.246270 0.438190 -0.180753
N2    N     N_R   0.425760 0.754330 0.561190 -0.223178
O1    O     O_R   0.537510 0.972500 0.318130 -0.582128
O2    O     O_R   0.487140 0.806530 0.359650 -0.609932
O3    O     O_R   0.708330 0.082950 0.479220 -0.583146
O4    O     O_R   0.657960 0.916980 0.520740 -0.610128
O5    O     O_R   0.512860 0.193470 0.640350 -0.607529
O6    O     O_R   0.462490 0.027500 0.681870 -0.477935
O7    O     O_R   0.342040 0.083020 0.479260 -0.596374
O8    O     O_R   0.291670 0.917050 0.520780 -0.538526
O9    O     O_3   0.253790 0.858557 0.696010 -0.668465
H20   H     H_    0.180351 0.846498 0.752358 0.293342
O10   O     O_3   0.335675 0.066681 0.887189 -0.694874
H21   H     H_    0.280670 0.055523 0.953793 0.310313
N3    N     N_3   0.227655 0.451937 0.245457 -0.613629
H22   H     H_    0.143995 0.494903 0.265314 0.212833
H23   H     H_    0.267852 0.483518 0.321091 0.230696

loop_
_geom_bond_atom_site_label_1
_geom_bond_atom_site_label_2
_ccdc_geom_bond_type
C24   H12   S    
C34   C37   S    
Cu1   O7    S    
C35   C36   S    
C1    O1    A    
C2    H17   S    
C7    C8    A    
Cu1   O3    S    
C30   H14   S    
C11   C19   A    
C34   H11   S    
C20   H9    S    
Cu2   O2    S    
N3    H23   S    
C23   O5    A    
C36   C37   S    
C37   C38   S    
C12   O3    A    
C6    C23   S    
C15   C16   A    
C33   C36   S    
C34   C35   S    
C23   O6    A    
Cu1   O1    S    
C17   H2    S    
C8    H5    S    
C8    C9    A    
Cu2   O6    S    
O9    H20   S    
C7    H3    S    
C4    C12   S    
C9    C10   A    
C21   N2    A    
C33   O8    A    
C21   C22   A    
C1    O2    A    
C22   H13   S    
C18   O10   S    
C6    C18   A    
C4    C34   S    
C1    C19   S    
Cu2   O8    S    
C5    H19   S    
C29   H8    S    
C27   C31   A    
C24   C25   A    
N3    H22   S    
C16   H6    S    
Cu1   Cu2   S    
C5    C18   A    
C20   C28   A    
C25   C26   A    
Cu2   N2    S    
C31   N1    A    
C29   C30   A    
C11   C16   A    
C2    C38   S    
C3    C35   S    
C5    C14   A    
C4    C38   S    
C26   C30   A    
C7    C19   A    
Cu2   O4    S    
C32   H7    S    
C22   C24   A    
C32   N1    A    
C31   H10   S    
C3    C4    S    
C20   C32   A    
C2    C36   S    
C6    C17   A    
C28   C29   A    
C9    H4    S    
C26   N2    A    
O10   H21   S    
C10   C13   A    
C25   C27   A    
C12   O4    A    
C13   C17   A    
C21   O9    S    
C2    C3    S    
Cu1   N1    S    
Cu1   O5    S    
C35   H1    S    
C10   C11   A    
C37   H15   S    
C3    H18   S    
C15   N3    S    
C38   H16   S    
C27   C28   A    
C14   C15   A    
C13   C14   A    
C33   O7    A    
