data_mof_unit_54383.cif
_audit_creation_date              2012-12-10T17:12:34-0500
_audit_creation_method            fapswitch 2.2
_symmetry_space_group_name_H-M    P1
_symmetry_Int_Tables_number       1
_space_group_crystal_system       triclinic
_cell_length_a                    23.283888
_cell_length_b                    10.731853
_cell_length_c                    10.257549
_cell_angle_alpha                 92.723497
_cell_angle_beta                  87.940969
_cell_angle_gamma                 92.786782
_cell_volume                      2555.77358941

loop_
_atom_site_label
_atom_site_type_symbol
_atom_type_description
_atom_site_fract_x
_atom_site_fract_y
_atom_site_fract_z
_atom_type_partial_charge
C1    C     C_R   0.496527 0.263032 0.496080 0.789812
C2    C     C_R   0.123292 0.676785 0.533876 0.530616
C3    C     C_R   0.247367 0.625990 0.627362 0.423637
C4    C     C_R   0.389887 0.506466 0.502386 0.863943
C5    C     C_R   0.307064 0.616478 0.609146 0.398784
C6    C     C_R   0.328868 0.534180 0.509183 -0.195789
C7    C     C_R   0.291932 0.478018 0.416933 -0.290343
C8    C     C_R   0.233182 0.494535 0.429864 -0.190644
C9    C     C_R   0.210598 0.564440 0.536885 0.160689
C10   C     C_R   0.767288 0.453174 0.426123 0.457372
C11   C     C_R   0.707674 0.428423 0.435880 0.309567
C12   C     C_R   0.964525 0.348119 0.612443 0.376266
C13   C     C_R   0.672432 0.520056 0.492855 -0.328750
C14   C     C_R   0.697078 0.633523 0.542636 0.418639
C15   C     C_R   0.756206 0.645094 0.558358 -0.280449
C16   C     C_R   0.504380 0.737175 0.503075 0.825585
C17   C     C_R   0.791807 0.554546 0.501837 0.023879
C18   C     C_2   0.527490 0.932482 0.404043 -0.374480
C19   C     C_2   0.515266 0.870558 0.513484 0.332257
C20   C     C_2   0.529850 0.069597 0.406810 0.424973
C21   C     C_2   0.488935 0.128433 0.479082 0.351055
C22   C     C_2   0.534660 0.568242 0.927067 0.537039
C23   C     C_R   0.024594 0.345200 0.597306 0.412222
C24   C     C_2   0.542299 0.537169 0.068782 0.530926
C25   C     C_R   0.610219 0.501328 0.497660 1.016892
C26   C     C_R   0.884245 0.669233 0.505002 0.521343
C27   C     C_R   0.876707 0.458974 0.572238 0.617797
C28   C     C_R   0.936734 0.457157 0.582993 -0.217721
C29   C     C_R   0.970071 0.566986 0.558110 -0.091578
C30   C     C_R   0.943168 0.675574 0.526336 -0.050373
C31   C     C_3   0.921373 0.240952 0.777435 0.127600
C32   C     C_3   0.878976 0.132057 0.808314 -0.295068
C33   C     C_3   0.862068 0.132307 0.953497 -0.975254
C34   C     C_R   0.058103 0.457371 0.582672 -0.200835
C35   C     C_3   0.689261 0.226850 0.484068 -0.165244
C36   C     C_3   0.666469 0.812699 0.469276 -0.365441
C37   C     C_3   0.558682 0.976579 0.687767 0.097067
C38   C     C_3   0.545593 0.055275 0.812658 -0.307069
C39   C     C_3   0.598335 0.133638 0.857480 -0.990844
C40   C     C_3   0.599369 0.077962 0.237825 -0.331473
C41   C     C_3   0.398407 0.127108 0.588296 -0.332597
C42   C     C_3   0.617483 0.698711 0.900196 0.115058
C43   C     C_3   0.627430 0.797749 0.011063 -0.360958
C44   C     C_3   0.690400 0.807267 0.048464 -0.924480
C45   C     C_R   0.030482 0.568466 0.563214 -0.136038
C46   C     C_3   0.425037 0.357099 0.849541 0.227891
C47   C     C_3   0.377220 0.450674 0.881848 -0.326301
C48   C     C_3   0.320051 0.399815 0.826971 -0.909216
C49   C     C_3   0.620496 0.430512 0.106305 -0.309556
C50   C     C_3   0.063071 0.194241 0.460495 0.167190
C51   C     C_3   0.009804 0.138994 0.390489 -0.331623
C52   C     C_3   0.026269 0.070542 0.261812 -0.942513
C53   C     C_3   0.434677 0.346042 0.143645 -0.056555
C54   C     C_3   0.074135 0.934711 0.683524 0.143305
C55   C     C_3   0.020687 0.977917 0.761027 -0.382358
C56   C     C_R   0.063166 0.680703 0.544890 -0.104213
C57   C     C_3   0.036282 0.030982 0.896539 -0.942161
C58   C     C_3   0.226936 0.809188 0.743374 0.165266
C59   C     C_3   0.255713 0.864184 0.866477 -0.333844
C60   C     C_3   0.258612 0.006734 0.869674 -0.989025
C61   C     C_3   0.371243 0.781431 0.639944 -0.211496
C62   C     C_3   0.829808 0.428896 0.248296 0.096776
C63   C     C_3   0.788553 0.454995 0.140324 -0.386234
C64   C     C_3   0.820623 0.513116 0.024156 -0.946349
C65   C     C_R   0.034526 0.792871 0.535764 0.509938
C66   C     C_R   0.975483 0.788191 0.517515 -0.258676
C67   C     C_R   0.118546 0.461636 0.584107 0.574298
H1    H     H_    0.774215 0.726052 0.612280 0.210197
H2    H     H_    0.900731 0.128254 0.013135 0.262680
H3    H     H_    0.832968 0.049702 0.972855 0.274837
H4    H     H_    0.839071 0.217831 0.983176 0.273012
H5    H     H_    0.658528 0.244959 0.567523 0.130691
H6    H     H_    0.733850 0.224619 0.519551 0.189053
H7    H     H_    0.678605 0.132339 0.441058 0.189871
H8    H     H_    0.643000 0.897547 0.496730 0.165200
H9    H     H_    0.645719 0.766284 0.382454 0.186788
H10   H     H_    0.711549 0.844490 0.443703 0.199228
H11   H     H_    0.583910 0.036552 0.618885 0.124129
H12   H     H_    0.535470 0.881866 0.311464 0.142134
H13   H     H_    0.584970 0.897626 0.711890 0.188161
H14   H     H_    0.510904 0.119455 0.795143 0.247484
H15   H     H_    0.530106 0.992793 0.891183 0.215858
H16   H     H_    0.635622 0.074366 0.866450 0.260948
H17   H     H_    0.588386 0.180385 0.953893 0.259212
H18   H     H_    0.609935 0.206605 0.786662 0.274126
H19   H     H_    0.565457 0.050417 0.166824 0.157562
H20   H     H_    0.623499 0.996174 0.263163 0.159870
H21   H     H_    0.630550 0.143703 0.189362 0.217589
H22   H     H_    0.389204 0.220768 0.554520 0.131839
H23   H     H_    0.954551 0.874087 0.503550 0.195923
H24   H     H_    0.415347 0.130764 0.688048 0.167320
H25   H     H_    0.356591 0.073424 0.592042 0.186529
H26   H     H_    0.638171 0.736502 0.810835 0.204087
H27   H     H_    0.639918 0.611321 0.913801 0.153134
H28   H     H_    0.615097 0.889572 0.978932 0.208423
H29   H     H_    0.600018 0.776598 0.098639 0.246580
H30   H     H_    0.703074 0.717281 0.085479 0.286063
H31   H     H_    0.696715 0.881373 0.126529 0.253064
H32   H     H_    0.718505 0.831225 0.962574 0.260849
H33   H     H_    0.411087 0.266020 0.889785 0.077805
H34   H     H_    0.308301 0.418030 0.337570 0.181061
H35   H     H_    0.425351 0.335834 0.745842 0.176552
H36   H     H_    0.367901 0.468169 0.986770 0.250089
H37   H     H_    0.389853 0.542510 0.842795 0.283715
H38   H     H_    0.324430 0.376535 0.720754 0.259385
H39   H     H_    0.286909 0.470214 0.844371 0.305613
H40   H     H_    0.305152 0.313790 0.876773 0.248366
H41   H     H_    0.628471 0.401809 0.001820 0.129581
H42   H     H_    0.592895 0.357984 0.155712 0.212341
H43   H     H_    0.662316 0.436164 0.154423 0.216639
H44   H     H_    0.095758 0.122439 0.461132 0.220474
H45   H     H_    0.204650 0.448322 0.359742 0.163229
H46   H     H_    0.083509 0.271804 0.403944 0.102461
H47   H     H_    0.985523 0.073229 0.454456 0.266870
H48   H     H_    0.981197 0.215063 0.369800 0.210774
H49   H     H_    0.050320 0.135336 0.195888 0.259612
H50   H     H_    0.986714 0.033604 0.213167 0.270497
H51   H     H_    0.053271 0.990946 0.279683 0.295615
H52   H     H_    0.394020 0.309658 0.100669 0.089596
H53   H     H_    0.425265 0.337677 0.247577 0.182418
H54   H     H_    0.469174 0.281673 0.112089 0.142500
H55   H     H_    0.108545 0.010067 0.688693 0.198982
H56   H     H_    0.901623 0.329400 0.812836 0.142546
H57   H     H_    0.090203 0.853152 0.731559 0.106213
H58   H     H_    0.000114 0.049650 0.707197 0.284350
H59   H     H_    0.989200 0.897681 0.772364 0.202130
H60   H     H_    0.058451 0.960839 0.950247 0.268209
H61   H     H_    0.996604 0.055400 0.953075 0.262326
H62   H     H_    0.064765 0.116553 0.888491 0.282490
H63   H     H_    0.182395 0.839567 0.747248 0.149521
H64   H     H_    0.247714 0.849230 0.654193 0.134438
H65   H     H_    0.230744 0.832213 0.954095 0.232686
H66   H     H_    0.299934 0.830998 0.871005 0.262809
H67   H     H_    0.961665 0.231803 0.830577 0.136510
H68   H     H_    0.284494 0.040995 0.784472 0.258729
H69   H     H_    0.279256 0.043788 0.960363 0.269747
H70   H     H_    0.214643 0.042389 0.868098 0.276126
H71   H     H_    0.389912 0.758864 0.540956 0.151095
H72   H     H_    0.406591 0.816565 0.703323 0.236589
H73   H     H_    0.341779 0.858312 0.633466 0.139640
H74   H     H_    0.862413 0.364586 0.206723 0.166573
H75   H     H_    0.854042 0.516298 0.279645 0.141462
H76   H     H_    0.765781 0.366341 0.107157 0.236788
H77   H     H_    0.756272 0.521287 0.179079 0.210150
H78   H     H_    0.839522 0.138931 0.751693 0.258478
H79   H     H_    0.841021 0.605175 0.054455 0.273684
H80   H     H_    0.789915 0.527114 0.946345 0.271444
H81   H     H_    0.854361 0.451174 0.984071 0.255075
H82   H     H_    0.898507 0.042257 0.778665 0.214278
N1    N     N_R   0.852212 0.561561 0.527105 -0.326543
N2    N     N_R   0.149493 0.568717 0.554849 -0.323581
N3    N     N_2   0.500610 0.501330 0.852150 0.034200
N4    N     N_2   0.500630 0.501360 0.147810 0.049201
O1    O     O_R   0.499990 0.319060 0.613040 -0.644665
O2    O     O_R   0.583840 0.500020 0.613040 -0.610410
O3    O     O_R   0.583850 0.500060 0.386900 -0.562991
O4    O     O_2   0.859487 0.768826 0.459210 -0.581128
O5    O     O_3   0.933412 0.239226 0.641231 -0.600478
O6    O     O_3   0.684201 0.315447 0.387995 -0.578668
O7    O     O_3   0.663497 0.733462 0.575582 -0.630972
O8    O     O_3   0.506081 0.930645 0.635327 -0.627406
O9    O     O_3   0.576122 0.138777 0.351275 -0.617228
O10   O     O_3   0.436055 0.063316 0.501306 -0.615150
O11   O     O_3   0.558119 0.679024 0.877574 -0.669520
O12   O     O_2   0.842858 0.358768 0.604388 -0.534181
O13   O     O_3   0.481244 0.389844 0.896249 -0.604960
O14   O     O_3   0.596574 0.548895 0.118853 -0.660390
O15   O     O_3   0.049508 0.230624 0.592547 -0.610273
O16   O     O_3   0.448072 0.470335 0.105271 -0.562060
O17   O     O_3   0.062858 0.908545 0.549718 -0.632834
O18   O     O_3   0.224665 0.677170 0.743551 -0.640989
O19   O     O_3   0.343117 0.677484 0.697992 -0.627226
O20   O     O_3   0.800775 0.369405 0.354050 -0.592960
O21   O     O_2   0.146483 0.360162 0.614449 -0.534059
O22   O     O_2   0.155211 0.778302 0.497347 -0.568226
O23   O     O_R   0.500010 0.319100 0.386900 -0.626375
O24   O     O_R   0.416150 0.499940 0.613100 -0.617572
O25   O     O_R   0.416160 0.499980 0.386960 -0.610343
O26   O     O_R   0.499990 0.680900 0.613100 -0.554113
O27   O     O_R   0.500010 0.680940 0.386960 -0.635023
Zn1   Zn    Zn3+2 0.499990 0.499970 0.650990 1.008062
Zn2   Zn    Zn3+2 0.500010 0.500030 0.349010 1.006025

loop_
_geom_bond_atom_site_label_1
_geom_bond_atom_site_label_2
_ccdc_geom_bond_type
C41   H22   S    
C35   H7    S    
C1    C21   S    
C21   O10   S    
C25   O2    A    
C42   H26   S    
C54   O17   S    
C17   N1    S    
C4    O24   A    
C57   H61   S    
C53   H53   S    
C11   O6    S    
C7    C8    A    
C66   H23   S    
O23   Zn2   S    
C46   H35   S    
C12   C23   A    
C37   C38   S    
C12   C28   A    
C40   H20   S    
C37   O8    S    
C28   C29   A    
C39   H17   S    
C49   O14   S    
C36   H10   S    
C8    H45   S    
C38   C39   S    
C44   H32   S    
C42   O11   S    
C61   H71   S    
C48   H40   S    
C10   C17   A    
C56   C65   A    
O1    Zn1   S    
C26   O4    S    
C18   C19   D    
C19   O8    S    
C40   H19   S    
C46   H33   S    
C36   H9    S    
C46   C47   S    
C44   H31   S    
C48   H39   S    
C32   H82   S    
C55   H58   S    
C45   C56   A    
C18   H12   S    
C43   H28   S    
C63   H77   S    
C29   C45   A    
C29   C30   A    
C60   H69   S    
C16   O26   A    
C33   H2    S    
C60   H70   S    
C52   H50   S    
C10   O20   S    
C54   H55   S    
C59   C60   S    
C48   H38   S    
C13   C14   A    
C64   H81   S    
C25   O3    A    
C13   C25   S    
C62   H75   S    
C31   H67   S    
C1    O23   A    
O27   Zn2   S    
C50   C51   S    
C49   H41   S    
C52   H49   S    
C37   H13   S    
C22   N3    D    
C59   H65   S    
C51   H47   S    
C47   H36   S    
C67   N2    A    
C51   C52   S    
C26   N1    A    
C24   O14   S    
C4    C6    S    
C61   O19   S    
O3    Zn2   S    
C8    C9    A    
C32   H78   S    
C58   C59   S    
C62   O20   S    
C59   H66   S    
C51   H48   S    
C23   O15   S    
C14   O7    S    
C43   C44   S    
C40   O9    S    
C62   C63   S    
C3    C9    A    
C36   H8    S    
C2    O22   S    
C22   O11   S    
C44   H30   S    
C47   C48   S    
C55   H59   S    
C58   H64   S    
C23   C34   A    
C20   O9    S    
C53   H52   S    
C43   H29   S    
C34   C45   A    
O25   Zn2   S    
N4    Zn2   S    
C60   H68   S    
C30   C66   A    
C33   H3    S    
C27   O12   S    
C41   H24   S    
C35   H5    S    
C26   C30   A    
C27   N1    A    
C41   O10   S    
C38   H14   S    
C50   O15   S    
C22   C24   S    
C42   C43   S    
C39   H18   S    
C62   H74   S    
C24   N4    D    
C49   H42   S    
C57   H62   S    
C2    N2    A    
C15   C17   A    
C54   H57   S    
C54   C55   S    
C35   H6    S    
C47   H37   S    
C46   O13   S    
C64   H79   S    
C42   H27   S    
C31   C32   S    
C61   H72   S    
C4    O25   A    
C3    C5    A    
C34   C67   A    
C57   H60   S    
N3    O13   S    
O2    Zn1   S    
C61   H73   S    
C6    C7    A    
C53   O16   S    
C37   H11   S    
C65   O17   S    
C50   H46   S    
C32   C33   S    
C40   H21   S    
C55   C57   S    
C58   O18   S    
C39   H16   S    
C64   H80   S    
C53   H54   S    
C11   C13   A    
C3    O18   S    
C5    C6    A    
C58   H63   S    
C16   C19   S    
O24   Zn1   S    
C15   H1    S    
C50   H44   S    
C5    O19   S    
C18   C20   S    
C1    O1    A    
C35   O6    S    
C31   O5    S    
C10   C11   A    
C36   O7    S    
C33   H4    S    
C31   H56   S    
C63   C64   S    
C41   H25   S    
C20   C21   D    
C9    N2    S    
C65   C66   A    
C7    H34   S    
N4    O16   S    
C27   C28   A    
C63   H76   S    
C14   C15   A    
C2    C56   A    
C67   O21   S    
C12   O5    S    
N3    Zn1   S    
C38   H15   S    
C16   O27   A    
C49   H43   S    
O26   Zn1   S    
C52   H51   S    
