data_mof_unit_30386.cif
_audit_creation_date              2012-12-10T16:40:38-0500
_audit_creation_method            fapswitch 2.2
_symmetry_space_group_name_H-M    P1
_symmetry_Int_Tables_number       1
_space_group_crystal_system       triclinic
_cell_length_a                    16.905841
_cell_length_b                    16.889945
_cell_length_c                    16.897578
_cell_angle_alpha                 67.538783
_cell_angle_beta                  67.503142
_cell_angle_gamma                 67.520613
_cell_volume                      3958.84541043

loop_
_atom_site_label
_atom_site_type_symbol
_atom_type_description
_atom_site_fract_x
_atom_site_fract_y
_atom_site_fract_z
_atom_type_partial_charge
C1    C     C_R   0.594024 0.027655 0.593274 0.274981
C2    C     C_R   0.405977 0.972344 0.406726 0.274981
C3    C     C_R   0.027953 0.593162 0.593910 0.274928
C4    C     C_R   0.972046 0.406838 0.406090 0.274928
C5    C     C_R   0.594028 0.593123 0.027869 0.274368
C6    C     C_R   0.405972 0.406877 0.972131 0.274367
C7    C     C_R   0.022818 0.829482 0.566536 0.827619
C8    C     C_R   0.977182 0.170518 0.433464 0.827619
C9    C     C_R   0.829435 0.566342 0.023417 0.828307
C10   C     C_R   0.170565 0.433657 0.976583 0.828306
C11   C     C_R   0.566555 0.022783 0.829501 0.826985
C12   C     C_R   0.433445 0.977217 0.170498 0.826985
C13   C     C_R   0.433448 0.170504 0.977225 0.827114
C14   C     C_R   0.566552 0.829496 0.022775 0.827113
C15   C     C_R   0.976591 0.433664 0.170571 0.828425
C16   C     C_R   0.023409 0.566336 0.829429 0.828425
C17   C     C_R   0.170549 0.976645 0.433637 0.827822
C18   C     C_R   0.829451 0.023355 0.566363 0.827822
C19   C     C_R   0.546264 0.014082 0.544324 0.007148
C20   C     C_R   0.453736 0.985916 0.455676 0.007148
C21   C     C_R   0.014240 0.544261 0.546212 0.006389
C22   C     C_R   0.985760 0.455739 0.453788 0.006388
C23   C     C_R   0.546333 0.544150 0.014233 0.006102
C24   C     C_R   0.453667 0.455850 0.985767 0.006102
C25   C     C_R   0.562014 0.927418 0.540452 0.238104
C26   C     C_R   0.437987 0.072580 0.459548 0.238104
C27   C     C_R   0.927564 0.540536 0.562122 0.239558
C28   C     C_R   0.072435 0.459464 0.437878 0.239555
C29   C     C_R   0.482096 0.507511 0.086187 0.266566
C30   C     C_R   0.517905 0.492489 0.913812 0.266566
C31   C     C_R   0.516925 0.913602 0.493468 0.266540
C32   C     C_R   0.483075 0.086396 0.506532 0.266537
C33   C     C_R   0.436916 0.460690 0.072258 0.238503
C34   C     C_R   0.563084 0.539310 0.927741 0.238503
C35   C     C_R   0.913588 0.493602 0.517079 0.265241
C36   C     C_R   0.086411 0.506398 0.482921 0.265239
C37   C     C_R   0.553376 0.028616 0.682240 0.111934
C38   C     C_R   0.446624 0.971382 0.317761 0.111934
C39   C     C_R   0.028849 0.682146 0.553277 0.113455
C40   C     C_R   0.971150 0.317854 0.446723 0.113455
C41   C     C_R   0.682183 0.552246 0.031204 0.118192
C42   C     C_R   0.317817 0.447754 0.968796 0.118193
C43   C     C_R   0.317777 0.969117 0.447601 0.116120
C44   C     C_R   0.682223 0.030882 0.552399 0.116121
C45   C     C_R   0.446593 0.317842 0.971339 0.111726
C46   C     C_R   0.553407 0.682158 0.028660 0.111725
C47   C     C_R   0.968809 0.447717 0.317892 0.117211
C48   C     C_R   0.031190 0.552283 0.682108 0.117210
C49   C     C_R   0.603309 0.029830 0.733063 -0.121268
C50   C     C_R   0.396691 0.970169 0.266937 -0.121269
C51   C     C_R   0.029952 0.733022 0.603262 -0.120688
C52   C     C_R   0.970048 0.266977 0.396738 -0.120689
C53   C     C_R   0.733024 0.602902 0.030972 -0.119398
C54   C     C_R   0.266976 0.397098 0.969028 -0.119398
C55   C     C_R   0.266955 0.969179 0.397041 -0.119902
C56   C     C_R   0.733045 0.030821 0.602959 -0.119902
C57   C     C_R   0.396689 0.266967 0.970140 -0.121266
C58   C     C_R   0.603312 0.733033 0.029860 -0.121266
C59   C     C_R   0.969024 0.397096 0.267004 -0.119086
C60   C     C_R   0.030976 0.602904 0.732996 -0.119086
C61   C     C_R   0.692201 0.031504 0.692150 -0.281176
C62   C     C_R   0.307799 0.968496 0.307850 -0.281175
C63   C     C_R   0.031581 0.692138 0.692191 -0.281706
C64   C     C_R   0.968419 0.307862 0.307809 -0.281706
C65   C     C_R   0.692194 0.692146 0.031553 -0.281498
C66   C     C_R   0.307806 0.307854 0.968447 -0.281498
Cu1   Cu    Cu3+1 0.995180 0.995180 0.424630 0.940202
Cu2   Cu    Cu3+1 0.004820 0.004820 0.575370 0.940202
Cu3   Cu    Cu3+1 0.995180 0.424630 0.995180 0.941700
Cu4   Cu    Cu3+1 0.004820 0.575370 0.004820 0.941699
Cu5   Cu    Cu3+1 0.424630 0.995180 0.995180 0.938814
Cu6   Cu    Cu3+1 0.575370 0.004820 0.004820 0.938814
H1    H     H_    0.730924 0.030591 0.731009 0.195166
H2    H     H_    0.269076 0.969409 0.268990 0.195166
H3    H     H_    0.030559 0.731053 0.730971 0.194975
H4    H     H_    0.969441 0.268947 0.269029 0.194975
H5    H     H_    0.730926 0.731063 0.030566 0.195096
H6    H     H_    0.269074 0.268936 0.969434 0.195096
O1    O     O_R   0.124540 0.978640 0.385460 -0.584037
O2    O     O_R   0.875460 0.021360 0.614540 -0.584037
O3    O     O_R   0.978640 0.385460 0.124540 -0.584897
O4    O     O_R   0.021360 0.614540 0.875460 -0.584897
O5    O     O_R   0.385460 0.124540 0.978640 -0.583459
O6    O     O_R   0.614540 0.875460 0.021360 -0.583459
O7    O     O_R   0.614540 0.021360 0.875460 -0.583402
O8    O     O_R   0.385460 0.978640 0.124540 -0.583401
O9    O     O_R   0.875460 0.614540 0.021360 -0.584825
O10   O     O_R   0.124540 0.385460 0.978640 -0.584824
O11   O     O_R   0.021360 0.875460 0.614540 -0.584210
O12   O     O_R   0.978640 0.124540 0.385460 -0.584209
O13   O     O_R   0.013780 0.867370 0.487190 -0.602451
O14   O     O_R   0.986220 0.132630 0.512810 -0.602451
O15   O     O_R   0.867370 0.487190 0.013780 -0.601676
O16   O     O_R   0.132630 0.512810 0.986220 -0.601676
O17   O     O_R   0.487190 0.013780 0.867370 -0.603150
O18   O     O_R   0.512810 0.986220 0.132630 -0.603149
O19   O     O_R   0.512810 0.132630 0.986220 -0.603128
O20   O     O_R   0.487190 0.867370 0.013780 -0.603128
O21   O     O_R   0.986220 0.512810 0.132630 -0.601610
O22   O     O_R   0.013780 0.487190 0.867370 -0.601609
O23   O     O_R   0.132630 0.986220 0.512810 -0.602482
O24   O     O_R   0.867370 0.013780 0.487190 -0.602481
O25   O     O_3   0.466007 0.168496 0.518413 -0.713827
H7    H     H_    0.403712 0.202690 0.518002 0.341182
O26   O     O_3   0.533993 0.831502 0.481588 -0.713825
H8    H     H_    0.596288 0.797307 0.482001 0.341183
O27   O     O_3   0.168518 0.518174 0.465713 -0.715793
H9    H     H_    0.202621 0.517709 0.403373 0.339141
O28   O     O_3   0.831481 0.481826 0.534288 -0.715791
H10   H     H_    0.797378 0.482290 0.596628 0.339138
O29   O     O_3   0.621764 0.583149 0.858628 -0.716519
H11   H     H_    0.604831 0.601269 0.802944 0.342201
O30   O     O_3   0.378236 0.416851 0.141371 -0.716518
H12   H     H_    0.395170 0.398730 0.197055 0.342200
O31   O     O_3   0.380344 0.141927 0.414677 -0.722224
H13   H     H_    0.398151 0.197224 0.396088 0.341521
O32   O     O_3   0.619657 0.858071 0.585323 -0.722223
H14   H     H_    0.601848 0.802775 0.603915 0.341519
O33   O     O_3   0.535855 0.479676 0.831966 -0.714747
H15   H     H_    0.598500 0.479207 0.798488 0.339282
O34   O     O_3   0.464145 0.520324 0.168033 -0.714747
H16   H     H_    0.401501 0.520792 0.201511 0.339283
O35   O     O_3   0.141621 0.414507 0.380124 -0.713809
H17   H     H_    0.196940 0.395827 0.397833 0.343450
O36   O     O_3   0.858378 0.585493 0.619876 -0.713807
H18   H     H_    0.803058 0.604173 0.602168 0.343449
N1    N     N_3   0.462008 0.026469 0.718575 -0.580293
H19   H     H_    0.423139 0.081836 0.742910 0.251664
H20   H     H_    0.457324 0.966710 0.768225 0.245562
N2    N     N_3   0.537994 0.973527 0.281426 -0.580292
H21   H     H_    0.542678 0.033286 0.231776 0.245562
H22   H     H_    0.576861 0.918160 0.257090 0.251663
N3    N     N_3   0.026726 0.718448 0.461879 -0.579793
H23   H     H_    0.082014 0.742833 0.423008 0.250622
H24   H     H_    0.966974 0.768072 0.457222 0.248546
N4    N     N_3   0.973272 0.281552 0.538121 -0.579794
H25   H     H_    0.033024 0.231929 0.542779 0.248545
H26   H     H_    0.917985 0.257167 0.576992 0.250621
N5    N     N_3   0.717429 0.459432 0.034015 -0.580799
H27   H     H_    0.741866 0.423357 0.089649 0.241775
H28   H     H_    0.766771 0.451674 0.974802 0.260946
N6    N     N_3   0.282571 0.540568 0.965985 -0.580798
H29   H     H_    0.233229 0.548325 0.025198 0.260946
H30   H     H_    0.258133 0.576643 0.910352 0.241774
N7    N     N_3   0.282459 0.966613 0.540308 -0.581300
H31   H     H_    0.258058 0.910942 0.576569 0.243065
H32   H     H_    0.233083 0.025864 0.547887 0.257850
N8    N     N_3   0.717541 0.033387 0.459692 -0.581300
H33   H     H_    0.766917 0.974136 0.452113 0.257850
H34   H     H_    0.741942 0.089058 0.423432 0.243065
N9    N     N_3   0.537883 0.281470 0.973715 -0.580060
H35   H     H_    0.576896 0.257086 0.918414 0.251926
H36   H     H_    0.542396 0.231842 0.033505 0.245264
N10   N     N_3   0.462118 0.718531 0.026282 -0.580060
H37   H     H_    0.457605 0.768158 0.966492 0.245264
H38   H     H_    0.423103 0.742914 0.081583 0.251927
N11   N     N_3   0.966171 0.540478 0.282636 -0.581267
H39   H     H_    0.910580 0.576677 0.258174 0.241974
H40   H     H_    0.025398 0.548104 0.233295 0.260492
N12   N     N_3   0.033828 0.459522 0.717364 -0.581267
H41   H     H_    0.974601 0.451897 0.766705 0.260492
H42   H     H_    0.089419 0.423323 0.741825 0.241974

loop_
_geom_bond_atom_site_label_1
_geom_bond_atom_site_label_2
_ccdc_geom_bond_type
C25   C31   A    
C39   C51   A    
C26   C32   A    
N11   H39   S    
C6    C45   A    
N5    H28   S    
O29   H11   S    
C14   O6    A    
C57   C66   A    
N7    H31   S    
C28   O35   S    
O35   H17   S    
C15   O3    A    
C21   C36   A    
C22   C35   A    
C48   N12   S    
C45   C57   A    
C59   C64   A    
C63   H3    S    
C60   C63   A    
C43   N7    S    
C23   C29   A    
Cu4   O16   S    
N8    H34   S    
Cu3   O15   S    
C18   O24   A    
Cu5   O17   S    
C30   O33   S    
C10   O16   A    
O31   H13   S    
C7    O11   A    
C55   C62   A    
C29   C33   A    
C3    C48   A    
C17   O1    A    
C4    C22   S    
C16   C60   S    
C17   O23   A    
C26   O31   S    
C1    C44   A    
Cu2   O14   S    
C4    C40   A    
C29   O34   S    
C42   N6    S    
N9    H35   S    
C48   C60   A    
C8    O14   A    
C53   C65   A    
C8    C52   S    
N10   H38   S    
C35   O28   S    
C1    C37   A    
C10   O10   A    
C21   C27   A    
C3    C39   A    
N11   H40   S    
C22   C28   A    
C46   C58   A    
C36   O27   S    
C34   O29   S    
C31   O26   S    
C14   C58   S    
Cu4   O9    S    
C16   O4    A    
N7    H32   S    
C14   O20   A    
Cu5   O5    S    
Cu6   O19   S    
Cu6   O7    S    
C66   H6    S    
Cu5   O20   S    
C1    C19   S    
C65   H5    S    
C30   C34   A    
C2    C20   S    
Cu1   Cu2   S    
Cu1   O1    S    
Cu2   O23   S    
N4    H26   S    
C52   C64   A    
C16   O22   A    
C27   C35   A    
C40   C52   A    
Cu1   O12   S    
C45   N9    S    
N12   H42   S    
N2    H22   S    
N1    H20   S    
C11   C49   S    
Cu5   O8    S    
C37   C49   A    
C44   C56   A    
C58   C65   A    
C5    C23   S    
C2    C43   A    
O27   H9    S    
C23   C34   A    
C7    O13   A    
Cu1   O13   S    
Cu2   O11   S    
C64   H4    S    
C32   O25   S    
C51   C63   A    
N8    H33   S    
O33   H15   S    
C41   C53   A    
N10   H37   S    
Cu6   O6    S    
Cu3   O10   S    
C54   C66   A    
C46   N10   S    
C43   C55   A    
C47   N11   S    
N3    H23   S    
C50   C62   A    
N6    H30   S    
C3    C21   S    
C9    C53   S    
Cu2   O2    S    
C9    O15   A    
Cu4   O21   S    
O30   H12   S    
C39   N3    S    
Cu4   O4    S    
C11   O17   A    
C5    C41   A    
C56   C61   A    
C15   C59   S    
C19   C32   A    
C12   O18   A    
C15   O21   A    
N4    H25   S    
C25   O32   S    
C8    O12   A    
C12   C50   S    
N5    H27   S    
O34   H16   S    
C6    C24   S    
C38   C50   A    
C18   C56   S    
O26   H8    S    
C13   O5    A    
C33   O30   S    
C24   C33   A    
C38   N2    S    
C12   O8    A    
C61   H1    S    
C2    C38   A    
N2    H21   S    
C7    C51   S    
Cu5   Cu6   S    
O32   H14   S    
N12   H41   S    
C27   O36   S    
C49   C61   A    
O36   H18   S    
C20   C26   A    
C11   O7    A    
C17   C55   S    
C44   N8    S    
N9    H36   S    
C13   O19   A    
Cu3   Cu4   S    
C10   C54   S    
C24   C30   A    
C41   N5    S    
Cu3   O3    S    
C19   C25   A    
C47   C59   A    
C9    O9    A    
Cu6   O18   S    
Cu3   O22   S    
C13   C57   S    
C28   C36   A    
C18   O2    A    
C6    C42   A    
O25   H7    S    
N3    H24   S    
N6    H29   S    
C62   H2    S    
C40   N4    S    
C37   N1    S    
O28   H10   S    
C4    C47   A    
C42   C54   A    
N1    H19   S    
Cu1   O24   S    
C5    C46   A    
C20   C31   A    
