data_mof_unit_48750.cif
_audit_creation_date              2013-03-05T15:41:28-0500
_audit_creation_method            fapswitch 2.2
_symmetry_space_group_name_H-M    P1
_symmetry_Int_Tables_number       1
_space_group_crystal_system       triclinic
_cell_length_a                    17.073211
_cell_length_b                    7.251932
_cell_length_c                    16.934874
_cell_angle_alpha                 90.040546
_cell_angle_beta                  99.364727
_cell_angle_gamma                 89.962085
_cell_volume                      2068.82501678

loop_
_atom_site_label
_atom_site_type_symbol
_atom_site_description
_atom_site_fract_x
_atom_site_fract_y
_atom_site_fract_z
_atom_type_partial_charge
O1    O     O_R   0.414560 0.494370 0.416770 -0.561862
O2    O     O_R   0.585440 0.994370 0.583230 -0.561991
O3    O     O_R   0.578370 0.819590 0.429320 -0.553350
O4    O     O_R   0.421630 0.319590 0.570680 -0.554980
C1    C     C_R   0.602756 0.655644 0.411863 0.882109
C2    C     C_R   0.397319 0.155848 0.588252 0.880764
O5    O     O_R   0.414740 0.823790 0.407360 -0.540059
O6    O     O_R   0.585260 0.323790 0.592640 -0.540129
O7    O     O_R   0.420650 0.998510 0.561120 -0.522536
O8    O     O_R   0.579350 0.498510 0.438880 -0.523755
C3    C     C_R   0.387360 0.655889 0.386089 0.850984
C4    C     C_R   0.612629 0.155882 0.613915 0.849310
O9    O     O_3   0.502130 0.662240 0.550470 -0.264845
O10   O     O_3   0.497870 0.162240 0.449530 -0.265683
V1    V     V_3+5 0.499600 0.935390 0.490640 1.237728
V2    V     V_3+5 0.500400 0.435390 0.509360 1.237016
C5    C     C_2   0.777441 0.261930 0.795635 -0.048029
C6    C     C_2   0.222260 0.762107 0.204622 -0.046149
C7    C     C_2   0.815043 0.107746 0.824969 -0.081574
C8    C     C_2   0.184915 0.607823 0.175065 -0.080426
H1    H     H_    0.798920 0.395397 0.818952 0.117270
H2    H     H_    0.200563 0.895553 0.181484 0.116171
H3    H     H_    0.790058 0.974544 0.805091 0.067942
H4    H     H_    0.210084 0.474669 0.194772 0.066623
C9    C     C_2   0.700017 0.255660 0.740261 -0.085667
C10   C     C_2   0.299706 0.756119 0.259957 -0.085584
C11   C     C_2   0.687788 0.149990 0.671942 -0.179272
C12   C     C_2   0.312164 0.650009 0.328094 -0.180853
C13   C     C_R   0.336944 0.152849 0.642346 -0.145465
C14   C     C_R   0.663588 0.651223 0.358339 -0.145704
C15   C     C_R   0.171856 0.109074 0.868698 -0.143840
C16   C     C_R   0.828526 0.609191 0.131805 -0.144427
C17   C     C_R   0.287831 0.947762 0.833753 -0.108915
C18   C     C_R   0.711379 0.450345 0.165225 -0.117736
C19   C     C_R   0.233135 0.977471 0.886810 0.313681
C20   C     C_R   0.766421 0.480222 0.112547 0.306960
C21   C     C_R   0.167561 0.214565 0.799101 -0.087497
C22   C     C_R   0.834280 0.709538 0.203030 -0.097437
C23   C     C_R   0.224424 0.195548 0.747500 0.015198
C24   C     C_R   0.779445 0.683680 0.256356 0.013150
C25   C     C_R   0.287713 0.066178 0.766228 -0.043717
C26   C     C_R   0.713345 0.563446 0.234736 -0.041680
C27   C     C_R   0.348980 0.061271 0.717426 -0.035752
C28   C     C_R   0.651206 0.562632 0.282569 -0.036827
C29   C     C_R   0.270946 0.268278 0.622699 -0.106365
C30   C     C_R   0.732221 0.756260 0.380961 -0.106705
C31   C     C_R   0.217517 0.298730 0.675780 0.395760
C32   C     C_R   0.789131 0.776786 0.330831 0.388830
H5    H     H_    0.263854 0.345823 0.567254 0.109998
H6    H     H_    0.741050 0.826414 0.438300 0.107740
H7    H     H_    0.116997 0.305083 0.783854 0.147326
H8    H     H_    0.883354 0.804590 0.217135 0.147366
O11   O     O_R   0.920750 0.773600 0.061260 -0.549653
O12   O     O_R   0.079250 0.273600 0.938740 -0.546804
O13   O     O_R   0.085340 0.439850 0.092570 -0.564055
O14   O     O_R   0.914660 0.939850 0.907430 -0.563457
C33   C     C_R   0.113256 0.607482 0.113071 0.872094
C34   C     C_R   0.886724 0.107475 0.886944 0.868657
O15   O     O_R   0.921720 0.444130 0.070790 -0.524164
O16   O     O_R   0.078280 0.944130 0.929210 -0.519689
O17   O     O_R   0.914480 0.269530 0.916840 -0.540411
O18   O     O_R   0.085520 0.769530 0.083160 -0.539827
C35   C     C_R   0.895012 0.611336 0.084828 0.866390
C36   C     C_R   0.105100 0.111166 0.915313 0.861800
O19   O     O_3   0.997840 0.601520 0.949550 -0.278068
O20   O     O_3   0.002160 0.101520 0.050450 -0.282204
V3    V     V_3+5 0.000400 0.328340 0.009360 1.252995
V4    V     V_3+5 0.999600 0.828340 0.990640 1.256534
C37   C     C_2   0.636406 0.368953 0.767024 0.546126
H9    H     H_    0.652651 0.483611 0.807629 0.041382
O21   O     O_2   0.566204 0.330767 0.748227 -0.564740
C38   C     C_2   0.363039 0.870290 0.233331 0.548137
H10   H     H_    0.346507 0.985097 0.192929 0.038977
O22   O     O_2   0.433327 0.832705 0.251989 -0.562309
C39   C     C_2   0.752304 0.042328 0.643623 0.488597
H11   H     H_    0.737465 0.921565 0.606283 0.009889
O23   O     O_2   0.821389 0.092971 0.656885 -0.527095
C40   C     C_2   0.247816 0.541737 0.356267 0.489263
H12   H     H_    0.262828 0.420713 0.393347 0.010795
O24   O     O_2   0.178669 0.592140 0.343182 -0.516869
C41   C     C_2   0.429941 0.994853 0.752201 0.610367
H13   H     H_    0.451331 0.014089 0.815606 -0.032470
O25   O     O_2   0.472615 0.915215 0.712035 -0.529973
C42   C     C_2   0.569528 0.503579 0.246579 0.616067
H14   H     H_    0.548888 0.526449 0.183284 -0.029207
O26   O     O_2   0.525329 0.426219 0.285731 -0.531972
C43   C     C_2   0.338063 0.779513 0.846287 0.549686
H15   H     H_    0.366986 0.742057 0.905987 0.039370
O27   O     O_2   0.344303 0.676809 0.790447 -0.536704
C44   C     C_2   0.658734 0.286645 0.150099 0.531265
H16   H     H_    0.629751 0.254599 0.089782 0.047942
O28   O     O_2   0.650471 0.181472 0.204444 -0.544490
N1    N     N_R   0.157379 0.437431 0.656058 0.090693
O29   O     O_R   0.120301 0.452250 0.582866 -0.285650
O30   O     O_R   0.150994 0.570142 0.706403 -0.327043
N2    N     N_R   0.857652 0.888565 0.358117 0.090834
O31   O     O_R   0.849407 0.045278 0.393344 -0.303502
O32   O     O_R   0.928479 0.819274 0.361769 -0.300974
N3    N     N_R   0.238094 0.868892 0.958483 0.062882
O33   O     O_R   0.227512 0.691232 0.954055 -0.366787
O34   O     O_R   0.244709 0.950118 0.027762 -0.412308
N4    N     N_R   0.760511 0.375576 0.039647 0.062993
O35   O     O_R   0.769233 0.197261 0.042041 -0.375782
O36   O     O_R   0.754595 0.460513 0.971300 -0.410640

loop_
_geom_bond_atom_site_label_1
_geom_bond_atom_site_label_2
_geom_bond_distance
_ccdc_geom_bond_type
C43   H15   1.085140 S    
N1    O29   1.301303 A    
C10   C38   1.489435 S    
C18   C26   1.430173 A    
O2    C4    1.333699 A    
C2    O7    1.315255 A    
C41   H13   1.085361 S    
C33   O18   1.335613 A    
C23   C25   1.426841 A    
O5    C3    1.332736 A    
C16   C20   1.411996 A    
C42   O26   1.219716 D    
C21   H7    1.081564 S    
C11   C39   1.491004 S    
C22   H8    1.081486 S    
C20   N4    1.438209 S    
C37   O21   1.220951 D    
O11   V4    1.981288 S    
O15   V3    2.010947 S    
C8    H4    1.087066 S    
N2    O32   1.301343 A    
C6    C10   1.491694 S    
C16   C22   1.398001 A    
C12   C40   1.491097 S    
C18   C20   1.413958 A    
C34   O17   1.335597 A    
C24   C26   1.426294 A    
O20   V3    1.784798 S    
O6    V2    2.019466 S    
C13   C27   1.419818 A    
C25   C27   1.435164 A    
C14   C28   1.419389 A    
N4    O35   1.301482 A    
C26   C28   1.435760 A    
C19   N3    1.438151 S    
C41   O25   1.219522 D    
C29   C31   1.398310 A    
C7    C34   1.476916 S    
C30   C32   1.398480 A    
C4    C11   1.484492 S    
C42   H14   1.085308 S    
C38   O22   1.220874 D    
C40   H12   1.085538 S    
C5    C7    1.343571 D    
O12   V3    1.980595 S    
O3    C1    1.308882 A    
O14   V4    2.019338 S    
C5    H1    1.086294 S    
C15   C21   1.397442 A    
C13   C29   1.399361 A    
O4    V2    2.012327 S    
C7    H3    1.087080 S    
C39   H11   1.085537 S    
C18   C44   1.486218 S    
O17   V3    2.010119 S    
C44   O28   1.221484 D    
N3    O33   1.301521 A    
C29   H5    1.084528 S    
O6    C4    1.332637 A    
O19   V4    1.783927 S    
N2    O31   1.301318 A    
C31   N1    1.437010 S    
C40   O24   1.220996 D    
O1    V2    2.010402 S    
N4    O36   1.300834 A    
O2    V1    2.010340 S    
C39   O23   1.220977 D    
O4    C2    1.308517 A    
N3    O34   1.300834 A    
O13   C33   1.331099 A    
C27   C41   1.491343 S    
C15   C19   1.412139 A    
C9    C37   1.489440 S    
O3    V1    2.010967 S    
C23   C31   1.415471 A    
C1    C14   1.485800 S    
C24   C32   1.415986 A    
C32   N2    1.436667 S    
C6    H2    1.086328 S    
C10   C12   1.374773 D    
C15   C36   1.488359 S    
C14   C30   1.398117 A    
C16   C35   1.488475 S    
C38   H10   1.085649 S    
C28   C42   1.491092 S    
O13   V3    2.019309 S    
C9    C11   1.374683 D    
C30   H6    1.084538 S    
O15   C35   1.330001 A    
O18   V4    2.010178 S    
O16   C36   1.329887 A    
C17   C25   1.430304 A    
C43   O27   1.221468 D    
C17   C43   1.486274 S    
C5    C9    1.491785 S    
C1    O8    1.314679 A    
C21   C23   1.414536 A    
O8    V2    1.994045 S    
C22   C24   1.415196 A    
O11   C35   1.339971 A    
C44   H16   1.085165 S    
O12   C36   1.339927 A    
C3    C12   1.484690 S    
O5    V1    2.019435 S    
C17   C19   1.413618 A    
O14   C34   1.330988 A    
C6    C8    1.343578 D    
O7    V1    1.993250 S    
C37   H9    1.085623 S    
C2    C13   1.486461 S    
O16   V4    2.012304 S    
N1    O30   1.301526 A    
O9    V2    1.784283 S    
O10   V1    1.785156 S    
O1    C3    1.333882 A    
C8    C33   1.476836 S    
