data_mof_unit_45227.cif
_audit_creation_date              2012-12-10T20:28:39-0500
_audit_creation_method            fapswitch 2.2
_symmetry_space_group_name_H-M    P1
_symmetry_Int_Tables_number       1
_space_group_crystal_system       triclinic
_cell_length_a                    10.721667
_cell_length_b                    10.636172
_cell_length_c                    9.87459
_cell_angle_alpha                 89.180107
_cell_angle_beta                  90.020897
_cell_angle_gamma                 90.648556
_cell_volume                      1125.88605272

loop_
_atom_site_label
_atom_site_type_symbol
_atom_type_description
_atom_site_fract_x
_atom_site_fract_y
_atom_site_fract_z
_atom_type_partial_charge
C1    C     C_R   0.500556 0.260305 0.500601 0.866235
C2    C     C_R   0.062191 0.532724 0.626631 0.105129
C3    C     C_R   0.127105 0.522818 0.502477 -0.129008
C4    C     C_R   0.063505 0.500205 0.381638 -0.213647
C5    C     C_R   0.937035 0.482416 0.383357 -0.177746
C6    C     C_R   0.873544 0.479178 0.506662 -0.141460
C7    C     C_R   0.596886 0.064026 0.567441 0.105328
C8    C     C_R   0.503593 0.128391 0.498455 -0.090163
C9    C     C_R   0.425031 0.065337 0.407923 -0.216642
C10   C     C_R   0.426532 0.935572 0.405338 -0.206310
C11   C     C_R   0.506031 0.871350 0.493965 -0.079133
C12   C     C_R   0.260458 0.511423 0.500351 0.860868
C13   C     C_R   0.597226 0.935736 0.566031 0.133517
C14   C     C_3   0.638957 0.924844 0.709842 -0.465576
C15   C     C_3   0.639775 0.067790 0.711347 -0.489411
C16   C     C_R   0.396808 0.461916 0.072151 0.122059
C17   C     C_R   0.591834 0.560427 0.069376 0.291087
C18   C     C_R   0.592899 0.557471 0.925851 -0.192591
C19   C     C_R   0.396215 0.461931 0.930459 0.198798
C20   C     C_3   0.323128 0.340261 0.930381 -0.135043
C21   C     C_3   0.326798 0.341404 0.085221 -0.504624
C22   C     C_R   0.501134 0.739586 0.498925 0.889857
C23   C     C_R   0.739849 0.489378 0.501407 0.899797
C24   C     C_R   0.115970 0.581680 0.746395 -0.170359
C25   C     C_R   0.057933 0.562948 0.871456 -0.158570
C26   C     C_R   0.946714 0.494980 0.878906 -0.144615
C27   C     C_R   0.887563 0.457342 0.760155 -0.173149
C28   C     C_R   0.939174 0.488502 0.631396 0.102036
H1    H     H_    0.111309 0.495119 0.285281 0.164592
H2    H     H_    0.733574 0.883887 0.718900 0.212909
H3    H     H_    0.569618 0.106466 0.780993 0.231407
H4    H     H_    0.734954 0.109327 0.720695 0.202677
H5    H     H_    0.667684 0.603272 0.869820 0.185020
H6    H     H_    0.227388 0.349908 0.888069 0.163551
H7    H     H_    0.233350 0.354117 0.131242 0.176588
H8    H     H_    0.383813 0.266217 0.133097 0.220138
H9    H     H_    0.202068 0.635601 0.744671 0.158415
H10   H     H_    0.101520 0.597276 0.962894 0.142478
H11   H     H_    0.904930 0.473494 0.976440 0.158015
H12   H     H_    0.803602 0.401048 0.771350 0.166272
H13   H     H_    0.889190 0.470990 0.287620 0.192497
H14   H     H_    0.358831 0.115758 0.345092 0.151922
H15   H     H_    0.361123 0.885711 0.341189 0.156834
H16   H     H_    0.566897 0.881560 0.777376 0.219364
N1    N     N_R   0.499160 0.499140 0.142800 -0.122377
N2    N     N_R   0.499160 0.499180 0.857150 -0.117695
O1    O     O_R   0.500020 0.316790 0.614690 -0.615201
O2    O     O_R   0.500000 0.316760 0.385350 -0.618380
O3    O     O_R   0.316770 0.500020 0.614690 -0.631490
O4    O     O_R   0.316760 0.499980 0.385350 -0.622628
O5    O     O_R   0.500000 0.683240 0.614650 -0.632787
O6    O     O_R   0.499980 0.683210 0.385310 -0.580090
O7    O     O_R   0.683240 0.500020 0.614650 -0.638210
O8    O     O_R   0.683230 0.499980 0.385310 -0.572745
Zn1   Zn    Zn3+2 0.500010 0.500020 0.653130 0.940079
Zn2   Zn    Zn3+2 0.499990 0.499980 0.346870 0.985763
Br1   Br    Br    0.716049 0.664018 0.152338 -0.537302
N3    N     N_3   0.392134 0.235755 0.874240 -0.416570
H17   H     H_    0.357001 0.220921 0.777062 0.207702
H18   H     H_    0.367836 0.153770 0.928218 0.182589

loop_
_geom_bond_atom_site_label_1
_geom_bond_atom_site_label_2
_ccdc_geom_bond_type
C16   N1    A    
N2    Zn1   S    
C4    H1    S    
C12   O4    A    
C1    O2    A    
C15   H3    S    
C16   C21   S    
C21   H7    S    
C25   H10   S    
C1    C8    S    
O4    Zn2   S    
C9    C10   A    
C10   H15   S    
C11   C22   S    
C1    O1    A    
C19   C20   S    
C27   H12   S    
C20   H6    S    
C7    C15   S    
C12   O3    A    
C9    H14   S    
C19   N2    A    
C7    C8    A    
C21   H8    S    
C13   C14   S    
C24   C25   A    
C4    C5    A    
C11   C13   A    
C26   C27   A    
C14   H2    S    
C16   C19   A    
C6    C23   S    
C18   N2    A    
C23   O7    A    
C22   O6    A    
C17   N1    A    
C2    C3    A    
C14   H16   S    
O5    Zn1   S    
O7    Zn1   S    
C2    C24   A    
C5    C6    A    
C18   H5    S    
O8    Zn2   S    
C26   H11   S    
N3    H17   S    
C10   C11   A    
N3    H18   S    
C3    C4    A    
C7    C13   A    
C20   C21   S    
C23   O8    A    
C17   C18   A    
C24   H9    S    
O2    Zn2   S    
O1    Zn1   S    
C5    H13   S    
C14   C15   S    
C22   O5    A    
C2    C28   A    
C3    C12   S    
C25   C26   A    
O3    Zn1   S    
C20   N3    S    
C6    C28   A    
O6    Zn2   S    
N1    Zn2   S    
C17   Br1   S    
C8    C9    A    
C27   C28   A    
C15   H4    S    
