data_mof_unit_57448.cif
_audit_creation_date              2012-12-10T18:59:14-0500
_audit_creation_method            fapswitch 2.2
_symmetry_space_group_name_H-M    P1
_symmetry_Int_Tables_number       1
_space_group_crystal_system       triclinic
_cell_length_a                    10.872652
_cell_length_b                    10.743149
_cell_length_c                    9.652072
_cell_angle_alpha                 90.926989
_cell_angle_beta                  90.540532
_cell_angle_gamma                 90.65338
_cell_volume                      1127.1519322

loop_
_atom_site_label
_atom_site_type_symbol
_atom_type_description
_atom_site_fract_x
_atom_site_fract_y
_atom_site_fract_z
_atom_type_partial_charge
C1    C     C_R   0.499198 0.262995 0.498776 0.825494
C2    C     C_R   0.059854 0.505553 0.633087 -0.005341
C3    C     C_R   0.126176 0.492399 0.506058 -0.096818
C4    C     C_R   0.060895 0.449409 0.387230 0.252380
C5    C     C_R   0.933272 0.453151 0.385534 -0.296314
C6    C     C_R   0.869474 0.468556 0.507258 -0.107068
C7    C     C_R   0.397627 0.064443 0.549012 0.024695
C8    C     C_R   0.496142 0.129818 0.493506 -0.126445
C9    C     C_R   0.586048 0.064594 0.419705 -0.188381
C10   C     C_R   0.586606 0.934680 0.422581 -0.082680
C11   C     C_R   0.497205 0.870753 0.499030 -0.046178
C12   C     C_R   0.261783 0.500125 0.500974 0.792487
C13   C     C_R   0.397387 0.936563 0.551233 -0.033081
C14   C     C_3   0.332316 0.933946 0.687346 -0.034222
C15   C     C_3   0.333050 0.076457 0.683780 0.443484
C16   C     C_R   0.589060 0.562404 0.075058 -0.035463
C17   C     C_R   0.426922 0.420048 0.070208 0.341881
C18   C     C_R   0.423103 0.424933 0.922205 -0.108697
C19   C     C_R   0.590978 0.560089 0.929156 0.119304
C20   C     C_3   0.631539 0.693299 0.926720 0.978701
C21   C     C_3   0.626930 0.696022 0.084253 0.332610
C22   C     C_R   0.498526 0.737191 0.500675 0.798034
C23   C     C_R   0.736415 0.488005 0.501344 0.836800
C24   C     C_R   0.111180 0.546753 0.761622 -0.191766
C25   C     C_R   0.049919 0.523877 0.885441 -0.300070
C26   C     C_R   0.939586 0.455327 0.883445 0.248493
C27   C     C_R   0.883539 0.425779 0.757072 0.653513
C28   C     C_R   0.935472 0.467704 0.633082 -0.040196
Cu1   Cu    Cu3+1 0.499990 0.499980 0.640670 1.041878
Cu2   Cu    Cu3+1 0.500010 0.500020 0.359330 1.017832
H1    H     H_    0.387831 0.894687 0.772542 0.202526
H2    H     H_    0.389898 0.122326 0.766488 0.053131
H3    H     H_    0.360118 0.364762 0.864141 0.155619
H4    H     H_    0.717394 0.711559 0.136638 0.061154
H5    H     H_    0.196405 0.598622 0.769664 0.192422
H6    H     H_    0.091262 0.554565 0.982825 0.158437
H7    H     H_    0.882495 0.427727 0.293949 0.166412
H8    H     H_    0.658679 0.113839 0.366473 0.143570
H9    H     H_    0.659377 0.884659 0.370669 0.157522
N1    N     N_R   0.500790 0.500930 0.147930 -0.156000
N2    N     N_R   0.500790 0.500890 0.852020 -0.183793
O1    O     O_R   0.500000 0.319640 0.618810 -0.559398
O2    O     O_R   0.500010 0.319680 0.381230 -0.568245
O3    O     O_R   0.319640 0.499980 0.618820 -0.606966
O4    O     O_R   0.319650 0.500020 0.381230 -0.530760
O5    O     O_R   0.499990 0.680320 0.618770 -0.534589
O6    O     O_R   0.500000 0.680360 0.381190 -0.523871
O7    O     O_R   0.680350 0.499980 0.618770 -0.509644
O8    O     O_R   0.680360 0.500020 0.381180 -0.611900
N3    N     N_2   0.119710 0.379285 0.282149 -0.420024
H10   H     H_    0.087456 0.398429 0.184359 0.237833
C29   C     C_3   0.119020 0.246973 0.310771 -0.597608
H11   H     H_    0.153311 0.192974 0.220709 0.203482
H12   H     H_    0.024003 0.212910 0.331082 0.223482
H13   H     H_    0.178781 0.228377 0.401935 0.273700
F1    F     F_    0.217846 0.128015 0.666201 -0.651127
N4    N     N_2   0.358843 0.324995 0.134844 -0.377550
H14   H     H_    0.271018 0.320747 0.094412 0.232835
C30   C     C_3   0.415094 0.203591 0.122405 -0.603717
H15   H     H_    0.404983 0.166424 0.014801 0.194007
H16   H     H_    0.369392 0.137909 0.193623 0.237506
H17   H     H_    0.514642 0.208560 0.149483 0.243922
F2    F     F_    0.749227 0.707736 0.875552 -0.705299
F3    F     F_    0.547416 0.771270 0.866562 -0.650263
F4    F     F_    0.533848 0.771507 0.132767 -0.622549
N5    N     N_2   0.879155 0.424910 0.007908 -0.425294
H18   H     H_    0.903807 0.483317 0.088889 0.230960
C31   C     C_3   0.876520 0.293444 0.040326 -0.627113
H19   H     H_    0.826378 0.278584 0.138283 0.205795
H20   H     H_    0.971353 0.257395 0.050560 0.210096
H21   H     H_    0.827283 0.238183 0.958918 0.292424
F5    F     F_    0.784169 0.347867 0.754942 -0.667666
N6    N     N_2   0.210253 0.878854 0.673385 -0.356632
H22   H     H_    0.209636 0.793739 0.622276 0.239913
C32   C     C_3   0.140749 0.876241 0.800415 -0.545674
H23   H     H_    0.047074 0.838139 0.778497 0.243270
H24   H     H_    0.131709 0.971595 0.845003 0.261575
H25   H     H_    0.186852 0.816115 0.877301 0.199223

loop_
_geom_bond_atom_site_label_1
_geom_bond_atom_site_label_2
_ccdc_geom_bond_type
N5    C31   S    
C16   C21   S    
C5    H7    S    
Cu1   O1    S    
C1    C8    S    
N6    H22   S    
Cu2   O4    S    
C19   C20   S    
C14   H1    S    
C7    C8    A    
C26   C27   A    
C16   C19   A    
C5    C6    A    
C23   O8    A    
C3    C12   S    
C31   H19   S    
C1    O2    A    
C6    C28   A    
C8    C9    A    
N3    C29   S    
C9    C10   A    
C29   H13   S    
Cu1   N2    S    
C7    C15   S    
C22   O6    A    
C30   H15   S    
C13   C14   S    
N6    C32   S    
C18   H3    S    
C29   H12   S    
C17   C18   A    
C30   H16   S    
C24   H5    S    
Cu1   O7    S    
C26   N5    S    
C14   N6    S    
Cu2   O6    S    
C15   H2    S    
C24   C25   A    
C18   N2    A    
C4    C5    A    
C21   H4    S    
C25   C26   A    
C4    N3    S    
C10   H9    S    
C17   N1    A    
C20   F3    S    
C32   H23   S    
Cu1   Cu2   S    
N3    H10   S    
Cu2   N1    S    
C32   H24   S    
C16   N1    A    
C22   O5    A    
Cu2   O8    S    
Cu1   O3    S    
C2    C24   A    
Cu2   O2    S    
C3    C4    A    
C29   H11   S    
C30   H17   S    
C23   O7    A    
C21   F4    S    
C12   O4    A    
C11   C22   S    
Cu1   O5    S    
C15   F1    S    
C20   F2    S    
C2    C3    A    
C12   O3    A    
C11   C13   A    
N4    H14   S    
C31   H21   S    
C6    C23   S    
C9    H8    S    
N5    H18   S    
C32   H25   S    
N4    C30   S    
C10   C11   A    
C25   H6    S    
C1    O1    A    
C7    C13   A    
C20   C21   S    
C31   H20   S    
C27   C28   A    
C14   C15   S    
C2    C28   A    
C27   F5    S    
C19   N2    A    
C17   N4    S    
