data_mof_unit_55872.cif
_audit_creation_date              2012-12-10T20:28:45-0500
_audit_creation_method            fapswitch 2.2
_symmetry_space_group_name_H-M    P1
_symmetry_Int_Tables_number       1
_space_group_crystal_system       triclinic
_cell_length_a                    10.680061
_cell_length_b                    10.693344
_cell_length_c                    9.834609
_cell_angle_alpha                 89.428405
_cell_angle_beta                  90.523381
_cell_angle_gamma                 90.077028
_cell_volume                      1123.0634585

loop_
_atom_site_label
_atom_site_type_symbol
_atom_type_description
_atom_site_fract_x
_atom_site_fract_y
_atom_site_fract_z
_atom_type_partial_charge
C1    C     C_R   0.504345 0.259657 0.500378 0.875843
C2    C     C_R   0.539738 0.936468 0.374876 -0.222931
C3    C     C_R   0.527920 0.871084 0.498333 -0.103774
C4    C     C_R   0.261408 0.517886 0.499935 0.930262
C5    C     C_R   0.541382 0.934199 0.620676 0.134139
C6    C     C_3   0.466914 0.924050 0.748037 -0.457076
C7    C     C_3   0.465574 0.065471 0.748792 -0.511404
C8    C     C_R   0.394511 0.467063 0.070824 0.183597
C9    C     C_R   0.599375 0.545174 0.072498 -0.148955
C10   C     C_R   0.599167 0.545548 0.928377 -0.151276
C11   C     C_R   0.394389 0.467828 0.927920 0.155658
C12   C     C_R   0.064624 0.548583 0.626647 0.060556
C13   C     C_3   0.327935 0.345785 0.921384 -0.474079
C14   C     C_3   0.329682 0.343324 0.075665 0.206144
C15   C     C_R   0.505111 0.740091 0.499383 0.901207
C16   C     C_R   0.740957 0.492460 0.501413 0.874262
C17   C     C_R   0.117805 0.597784 0.748088 0.462696
C18   C     C_R   0.062320 0.568894 0.873744 -0.236930
C19   C     C_R   0.955438 0.494808 0.878218 -0.193994
C20   C     C_R   0.895570 0.460695 0.757679 -0.192425
C21   C     C_R   0.943385 0.499446 0.630154 0.030776
C22   C     C_R   0.128758 0.541713 0.501607 -0.108435
C23   C     C_R   0.063316 0.529454 0.379229 -0.231331
C24   C     C_R   0.936909 0.508787 0.380987 -0.199470
C25   C     C_R   0.875909 0.492313 0.505207 -0.102265
C26   C     C_R   0.540626 0.061994 0.621514 0.135557
C27   C     C_R   0.526502 0.128267 0.499774 -0.102503
C28   C     C_R   0.539086 0.065803 0.375594 -0.221673
H1    H     H_    0.110134 0.532203 0.282059 0.205344
H2    H     H_    0.103150 0.601735 0.968084 0.151240
H3    H     H_    0.916397 0.467270 0.975249 0.165669
H4    H     H_    0.813986 0.401425 0.766219 0.175611
H5    H     H_    0.887608 0.503731 0.284392 0.167347
H6    H     H_    0.538636 0.115506 0.279065 0.165988
H7    H     H_    0.539420 0.888944 0.278097 0.172960
H8    H     H_    0.372661 0.882636 0.731080 0.238984
H9    H     H_    0.214250 0.321969 0.223772 0.346401
H10   H     H_    0.242693 0.704479 0.834215 0.317328
H11   H     H_    0.521883 0.882219 0.833552 0.203012
H12   H     H_    0.370347 0.104863 0.731637 0.210268
H13   H     H_    0.519938 0.105027 0.835193 0.200539
H14   H     H_    0.680402 0.579727 0.127174 0.153038
H15   H     H_    0.679559 0.581168 0.874443 0.162156
H16   H     H_    0.232987 0.354581 0.875095 0.231623
H17   H     H_    0.387233 0.272753 0.876935 0.162848
H18   H     H_    0.387268 0.266281 0.120943 0.100225
N1    N     N_R   0.499160 0.499140 0.142800 -0.133665
N2    N     N_R   0.499160 0.499180 0.857150 -0.101856
O1    O     O_R   0.500020 0.316790 0.614690 -0.620769
O2    O     O_3   0.217844 0.679597 0.740888 -0.777509
O3    O     O_R   0.500000 0.316760 0.385350 -0.633924
O4    O     O_R   0.316770 0.500020 0.614690 -0.576818
O5    O     O_R   0.316760 0.499980 0.385350 -0.632209
O6    O     O_R   0.500000 0.683240 0.614650 -0.594225
O7    O     O_R   0.499980 0.683210 0.385310 -0.627407
O8    O     O_R   0.683240 0.500020 0.614650 -0.636200
O9    O     O_R   0.683230 0.499980 0.385310 -0.628706
O10   O     O_3   0.208792 0.353104 0.128561 -0.759712
Zn1   Zn    Zn3+2 0.500010 0.500020 0.653130 0.960905
Zn2   Zn    Zn3+2 0.499990 0.499980 0.346870 0.939338

loop_
_geom_bond_atom_site_label_1
_geom_bond_atom_site_label_2
_ccdc_geom_bond_type
C17   O2    S    
C2    H7    S    
C2    C28   A    
C23   C24   A    
C16   O8    A    
C6    C7    S    
H10   O2    S    
O4    Zn1   S    
C4    O5    A    
C11   C13   S    
C9    C10   A    
C10   H15   S    
H9    O10   S    
O1    Zn1   S    
O8    Zn1   S    
C16   O9    A    
C19   H3    S    
C19   C20   A    
C17   C18   A    
C9    H14   S    
C8    N1    A    
C28   H6    S    
C14   H18   S    
C13   C14   S    
C24   C25   A    
C12   C17   A    
C13   H17   S    
C1    O3    A    
C11   N2    A    
C7    C26   S    
C21   C25   A    
C4    O4    A    
C8    C11   A    
C18   H2    S    
C23   H1    S    
O5    Zn2   S    
C6    H8    S    
C9    N1    A    
C10   N2    A    
C2    C3    A    
O6    Zn1   S    
C7    H13   S    
C13   H16   S    
C26   C27   A    
C5    C6    S    
C14   O10   S    
C5    C26   A    
C15   O6    A    
C12   C22   A    
C27   C28   A    
C3    C15   S    
C20   C21   A    
N2    Zn1   S    
C18   C19   A    
C20   H4    S    
C16   C25   S    
C1    C27   S    
C4    C22   S    
C6    H11   S    
O9    Zn2   S    
C8    C14   S    
O3    Zn2   S    
N1    Zn2   S    
O7    Zn2   S    
C7    H12   S    
C1    O1    A    
C12   C21   A    
C22   C23   A    
C24   H5    S    
C3    C5    A    
C15   O7    A    
