data_mof_unit_14234.cif
_audit_creation_date              2012-12-10T21:29:40-0500
_audit_creation_method            fapswitch 2.2
_symmetry_space_group_name_H-M    P1
_symmetry_Int_Tables_number       1
_space_group_crystal_system       triclinic
_cell_length_a                    10.687916
_cell_length_b                    16.0407
_cell_length_c                    16.703737
_cell_angle_alpha                 92.567708
_cell_angle_beta                  89.347481
_cell_angle_gamma                 88.91426
_cell_volume                      2860.11274604

loop_
_atom_site_label
_atom_site_type_symbol
_atom_type_description
_atom_site_fract_x
_atom_site_fract_y
_atom_site_fract_z
_atom_type_partial_charge
C1    C     C_R   0.499927 0.492652 0.653723 0.885671
C2    C     C_R   0.502942 0.507227 0.345961 0.866588
C3    C     C_R   0.526247 0.496576 0.739384 -0.119204
C4    C     C_R   0.516040 0.504929 0.258135 -0.115387
C5    C     C_R   0.494806 0.570018 0.786434 -0.055379
C6    C     C_R   0.517691 0.428855 0.210071 -0.068274
C7    C     C_R   0.549796 0.583323 0.862394 0.073337
C8    C     C_R   0.534850 0.431679 0.126239 0.057874
C9    C     C_R   0.625143 0.518543 0.892660 0.258631
C10   C     C_R   0.547723 0.509501 0.092462 0.277062
C11   C     C_R   0.654210 0.446498 0.845770 -0.214302
C12   C     C_R   0.546485 0.583208 0.139488 -0.220788
C13   C     C_R   0.606366 0.435894 0.769329 -0.248393
C14   C     C_R   0.531767 0.581065 0.221585 -0.239839
C15   C     C_R   0.454388 0.761743 0.454205 -0.039176
C16   C     C_R   0.578775 0.238160 0.523440 -0.026887
C17   C     C_R   0.461991 0.849002 0.455443 -0.273512
C18   C     C_R   0.575563 0.150689 0.522886 -0.274282
C19   C     C_R   0.532809 0.891075 0.514996 0.309522
C20   C     C_R   0.473795 0.108559 0.487787 0.319555
C21   C     C_R   0.594610 0.843057 0.571028 -0.336908
C22   C     C_R   0.377184 0.156627 0.455964 -0.316087
C23   C     C_R   0.741383 0.496579 0.503369 0.894181
C24   C     C_R   0.260091 0.503510 0.491954 0.901905
C25   C     C_R   0.584821 0.755927 0.567402 0.015307
C26   C     C_R   0.384365 0.243832 0.457641 0.042384
C27   C     C_R   0.895427 0.348525 0.434811 -0.226426
C28   C     C_R   0.099755 0.661069 0.523575 -0.166185
C29   C     C_R   0.964420 0.292767 0.383140 0.066403
C30   C     C_R   0.027560 0.722611 0.566631 0.073586
C31   C     C_R   0.080039 0.317064 0.353770 -0.210775
C32   C     C_R   0.921939 0.697812 0.609023 -0.217847
C33   C     C_R   0.131714 0.391251 0.381708 -0.182210
C34   C     C_R   0.878330 0.617121 0.597669 -0.161865
C35   C     C_R   0.068223 0.443516 0.439528 0.095781
C36   C     C_R   0.937615 0.560351 0.541550 0.081816
C37   C     C_R   0.944221 0.427168 0.460780 0.071634
C38   C     C_R   0.057571 0.577810 0.514589 0.063924
C39   C     C_R   0.127631 0.512224 0.475929 -0.241667
C40   C     C_R   0.876686 0.489631 0.508192 -0.230764
H1    H     H_    0.869860 0.741817 0.648257 0.122038
H2    H     H_    0.133725 0.276465 0.312496 0.132726
H3    H     H_    0.652074 0.116843 0.549288 0.140045
H4    H     H_    0.412757 0.882851 0.410442 0.157581
H5    H     H_    0.649412 0.873090 0.617775 0.135569
H6    H     H_    0.297213 0.126564 0.428841 0.149409
H7    H     H_    0.632874 0.719316 0.610724 0.117251
H8    H     H_    0.310127 0.279908 0.432088 0.147003
H9    H     H_    0.807574 0.326492 0.456178 0.167078
H10   H     H_    0.181354 0.680422 0.491072 0.151645
H11   H     H_    0.223075 0.407119 0.358848 0.144368
H12   H     H_    0.793827 0.600844 0.629310 0.139753
H13   H     H_    0.710097 0.396825 0.870112 0.144037
H14   H     H_    0.554278 0.642716 0.111968 0.152405
H15   H     H_    0.633430 0.380646 0.733067 0.163287
H16   H     H_    0.531199 0.639705 0.256390 0.173415
H17   H     H_    0.656375 0.270286 0.550989 0.117907
H18   H     H_    0.399544 0.729783 0.408747 0.129904
N1    N     N_2   0.644442 0.515633 0.975517 -0.205077
N2    N     N_2   0.540647 0.514565 0.009637 -0.202075
N3    N     N_R   0.515300 0.716920 0.509720 -0.083270
N4    N     N_R   0.484700 0.283080 0.490280 -0.085938
N5    N     N_2   0.543799 0.980137 0.521038 -0.206603
N6    N     N_2   0.465032 0.019449 0.481752 -0.202213
O1    O     O_R   0.494530 0.422540 0.612660 -0.612501
O2    O     O_R   0.505470 0.577460 0.387340 -0.623920
O3    O     O_R   0.504350 0.561840 0.618900 -0.618125
O4    O     O_R   0.495650 0.438160 0.381100 -0.616181
O5    O     O_R   0.678310 0.430340 0.496890 -0.642757
O6    O     O_R   0.321690 0.569660 0.503110 -0.625812
O7    O     O_R   0.688140 0.569650 0.503130 -0.603109
O8    O     O_R   0.311860 0.430350 0.496870 -0.617804
Zn1   Zn    Zn3+2 0.493440 0.406980 0.495830 0.942886
Zn2   Zn    Zn3+2 0.506560 0.593020 0.504170 0.944829
C41   C     C_R   0.919232 0.207730 0.361989 0.106274
C42   C     C_R   0.931011 0.174105 0.282866 -0.185222
C43   C     C_R   0.893676 0.092604 0.263786 -0.151436
C44   C     C_R   0.844404 0.043815 0.323279 -0.111637
C45   C     C_R   0.832423 0.076412 0.401971 -0.128968
C46   C     C_R   0.869847 0.157869 0.421482 -0.181142
H19   H     H_    0.968180 0.211072 0.235746 0.123904
H20   H     H_    0.902654 0.067352 0.202772 0.130796
H21   H     H_    0.815306 0.980802 0.308396 0.130030
H22   H     H_    0.794211 0.038365 0.447804 0.138050
H23   H     H_    0.862147 0.181387 0.483148 0.115839
C47   C     C_R   0.059080 0.812563 0.566403 0.099111
C48   C     C_R   0.963071 0.873812 0.563781 -0.161592
C49   C     C_R   0.991136 0.958626 0.567545 -0.136623
C50   C     C_R   0.115113 0.983438 0.574053 -0.102980
C51   C     C_R   0.211076 0.923406 0.576135 -0.135113
C52   C     C_R   0.183814 0.838428 0.570641 -0.180551
H24   H     H_    0.866316 0.856063 0.558455 0.133746
H25   H     H_    0.916609 0.005125 0.566323 0.120306
H26   H     H_    0.136801 0.049132 0.577952 0.129407
H27   H     H_    0.306464 0.942877 0.583385 0.158787
H28   H     H_    0.259695 0.793089 0.572953 0.153118
C53   C     C_R   0.499085 0.346166 0.244037 0.166813
C54   C     C_R   0.601581 0.301616 0.273716 -0.127564
C55   C     C_R   0.589223 0.217826 0.291389 -0.142413
C56   C     C_R   0.476332 0.177541 0.277799 -0.107142
C57   C     C_R   0.373225 0.222059 0.250251 -0.171687
C58   C     C_R   0.383846 0.306497 0.234495 -0.172681
H29   H     H_    0.691458 0.330992 0.280790 0.129243
H30   H     H_    0.667455 0.183480 0.314243 0.170284
H31   H     H_    0.468241 0.112108 0.289840 0.136163
H32   H     H_    0.285661 0.190739 0.240169 0.127921
H33   H     H_    0.303989 0.340043 0.211650 0.115457
C59   C     C_R   0.394103 0.627336 0.760364 0.154913
C60   C     C_R   0.418857 0.710467 0.743593 -0.116347
C61   C     C_R   0.320090 0.767102 0.733482 -0.160504
C62   C     C_R   0.196473 0.740491 0.737419 -0.111465
C63   C     C_R   0.171508 0.656606 0.748413 -0.132476
C64   C     C_R   0.269962 0.600021 0.759749 -0.186916
H34   H     H_    0.514080 0.732049 0.741336 0.099099
H35   H     H_    0.339357 0.831816 0.723392 0.135553
H36   H     H_    0.119959 0.784772 0.731301 0.139031
H37   H     H_    0.075789 0.635864 0.750182 0.140500
H38   H     H_    0.249277 0.535912 0.771818 0.126627
C65   C     C_3   0.542432 0.352806 0.071437 -0.405612
C66   C     C_3   0.419437 0.337451 0.026898 -0.322892
C67   C     C_3   0.428815 0.258182 0.973020 -0.887106
H39   H     H_    0.504525 0.263565 0.927513 0.263335
H40   H     H_    0.448400 0.203156 0.009311 0.261878
H41   H     H_    0.338930 0.248652 0.941527 0.248240
H42   H     H_    0.341524 0.331181 0.070499 0.214584
H43   H     H_    0.396091 0.390628 0.989127 0.236086
H44   H     H_    0.620088 0.358398 0.027295 0.207212
H45   H     H_    0.567472 0.296801 0.104871 0.208857
C68   C     C_3   0.532087 0.665480 0.911912 -0.408139
C69   C     C_3   0.400481 0.678391 0.949642 -0.313312
C70   C     C_3   0.390345 0.761317 0.997978 -0.908962
H46   H     H_    0.460333 0.763510 0.046593 0.255077
H47   H     H_    0.405901 0.814014 0.958308 0.264976
H48   H     H_    0.295384 0.768642 0.025351 0.251975
H49   H     H_    0.327456 0.678927 0.903399 0.238683
H50   H     H_    0.378813 0.627285 0.989757 0.231411
H51   H     H_    0.601651 0.669114 0.960816 0.206047
H52   H     H_    0.554943 0.718573 0.874572 0.184395

loop_
_geom_bond_atom_site_label_1
_geom_bond_atom_site_label_2
_ccdc_geom_bond_type
C14   H16   S    
C48   C49   A    
C57   C58   A    
C31   H2    S    
C27   C29   A    
C23   O5    A    
C2    C4    S    
C62   C63   A    
C70   H48   S    
C53   C54   A    
C24   O6    A    
C51   H27   S    
C43   C44   A    
C56   H31   S    
C35   C37   A    
C37   C40   A    
C2    O4    A    
C47   C52   A    
C45   H22   S    
C47   C48   A    
C66   H43   S    
C54   H29   S    
O2    Zn2   S    
C24   C39   S    
O1    Zn1   S    
C59   C60   A    
C15   C17   A    
C50   H26   S    
C61   C62   A    
C67   H41   S    
C33   C35   A    
C52   H28   S    
C28   H10   S    
C44   H21   S    
C68   H52   S    
C69   H49   S    
C19   N5    S    
O6    Zn2   S    
C1    O1    A    
C32   H1    S    
C31   C33   A    
N4    Zn1   S    
O5    Zn1   S    
C62   H36   S    
C30   C47   S    
C41   C46   A    
C25   H7    S    
C18   C20   A    
C53   C58   A    
C3    C13   A    
C26   H8    S    
C65   H45   S    
C55   H30   S    
N1    N2    D    
C48   H24   S    
C16   N4    A    
C63   C64   A    
C21   H5    S    
C7    C68   S    
C6    C53   S    
C23   O7    A    
C36   C40   A    
C42   C43   A    
C4    C6    A    
C5    C7    A    
C66   H42   S    
C17   C19   A    
C6    C8    A    
C3    C5    A    
O4    Zn1   S    
N5    N6    D    
C9    N1    S    
C32   C34   A    
C59   C64   A    
C20   N6    S    
C10   N2    S    
C41   C42   A    
C46   H23   S    
C55   C56   A    
C28   C38   A    
C15   N3    A    
C58   H33   S    
O3    Zn2   S    
C25   N3    A    
C9    C11   A    
C67   H39   S    
C10   C12   A    
C60   H34   S    
C16   C18   A    
C22   H6    S    
C12   C14   A    
C15   H18   S    
C45   C46   A    
C70   H46   S    
C66   C67   S    
C24   O8    A    
C68   C69   S    
C57   H32   S    
C7    C9    A    
C21   C25   A    
C49   H25   S    
C19   C21   A    
C44   C45   A    
C69   H50   S    
C20   C22   A    
O8    Zn1   S    
C70   H47   S    
C11   H13   S    
C42   H19   S    
O7    Zn2   S    
C65   C66   S    
C2    O2    A    
C29   C41   S    
N3    Zn2   S    
C33   H11   S    
C34   H12   S    
C63   H37   S    
C28   C30   A    
C69   C70   S    
C26   N4    A    
C17   H4    S    
C29   C31   A    
C18   H3    S    
C30   C32   A    
C11   C13   A    
C51   C52   A    
C38   C39   A    
C43   H20   S    
C27   C37   A    
C35   C39   A    
C36   C38   A    
C56   C57   A    
C1    O3    A    
C34   C36   A    
C16   H17   S    
C4    C14   A    
C67   H40   S    
C64   H38   S    
C27   H9    S    
C68   H51   S    
C49   C50   A    
C8    C10   A    
C54   C55   A    
C22   C26   A    
C1    C3    S    
C50   C51   A    
C60   C61   A    
C61   H35   S    
C12   H14   S    
C23   C40   S    
C8    C65   S    
C13   H15   S    
C5    C59   S    
C65   H44   S    
