data_mof_unit_46308.cif
_audit_creation_date              2012-12-11T15:33:38-0500
_audit_creation_method            fapswitch 2.2
_symmetry_space_group_name_H-M    P1
_symmetry_Int_Tables_number       1
_space_group_crystal_system       triclinic
_cell_length_a                    27.179077
_cell_length_b                    7.195465
_cell_length_c                    22.705981
_cell_angle_alpha                 89.994506
_cell_angle_beta                  101.229149
_cell_angle_gamma                 89.993617
_cell_volume                      4355.51165771

loop_
_atom_site_label
_atom_site_type_symbol
_atom_type_description
_atom_site_fract_x
_atom_site_fract_y
_atom_site_fract_z
_atom_type_partial_charge
O1    O     O_R   0.207310 0.594030 0.676830 -0.530702
O2    O     O_R   0.792690 0.405970 0.323170 -0.530702
O3    O     O_R   0.292690 0.094030 0.823170 -0.530762
O4    O     O_R   0.707310 0.905970 0.176830 -0.530761
O5    O     O_R   0.197320 0.262370 0.795700 -0.507159
O6    O     O_R   0.802680 0.737630 0.204300 -0.507159
O7    O     O_R   0.302680 0.762370 0.704300 -0.507093
O8    O     O_R   0.697320 0.237630 0.295700 -0.507093
C1    C     C_R   0.183960 0.432051 0.811050 0.716829
C2    C     C_R   0.816040 0.567949 0.188950 0.716829
C3    C     C_R   0.316035 0.932046 0.688944 0.716813
C4    C     C_R   0.683964 0.067954 0.311056 0.716814
O9    O     O_R   0.201410 0.264250 0.675590 -0.530346
O10   O     O_R   0.798590 0.735750 0.324410 -0.530346
O11   O     O_R   0.298590 0.764250 0.824410 -0.530279
O12   O     O_R   0.701410 0.235750 0.175590 -0.530279
O13   O     O_R   0.296810 0.094940 0.702210 -0.537332
O14   O     O_R   0.703190 0.905060 0.297790 -0.537333
O15   O     O_R   0.203190 0.594940 0.797790 -0.537265
O16   O     O_R   0.796810 0.405060 0.202210 -0.537265
C5    C     C_R   0.189729 0.433026 0.653398 0.742567
C6    C     C_R   0.810271 0.566974 0.346602 0.742567
C7    C     C_R   0.310272 0.932994 0.846603 0.742606
C8    C     C_R   0.689728 0.067006 0.153397 0.742605
O17   O     O_3   0.281300 0.427390 0.758870 -0.362428
O18   O     O_3   0.718700 0.572610 0.241130 -0.362428
O19   O     O_3   0.218700 0.927390 0.741130 -0.362431
O20   O     O_3   0.781300 0.072610 0.258870 -0.362430
V1    V     V_3+5 0.244190 0.152150 0.748350 1.579713
V2    V     V_3+5 0.755810 0.847850 0.251650 1.579714
V3    V     V_3+5 0.255810 0.652150 0.751650 1.579949
V4    V     V_3+5 0.744190 0.347850 0.248350 1.579949
C9    C     C_R   0.655414 0.057020 0.094343 -0.103418
C10   C     C_R   0.344586 0.942980 0.905657 -0.103417
C11   C     C_R   0.844578 0.556836 0.405656 -0.103411
C12   C     C_R   0.155422 0.443164 0.594344 -0.103411
C13   C     C_R   0.642499 0.043475 0.986121 -0.108427
C14   C     C_R   0.357501 0.956525 0.013879 -0.108428
C15   C     C_R   0.857455 0.541638 0.513853 -0.108351
C16   C     C_R   0.142545 0.458362 0.486147 -0.108351
C17   C     C_R   0.674605 0.061976 0.041585 0.234950
C18   C     C_R   0.325395 0.938024 0.958415 0.234950
C19   C     C_R   0.825357 0.560679 0.458401 0.234911
C20   C     C_R   0.174643 0.439321 0.541599 0.234911
C21   C     C_R   0.603465 0.037714 0.090703 -0.235655
C22   C     C_R   0.396535 0.962286 0.909297 -0.235655
C23   C     C_R   0.896544 0.538134 0.409301 -0.235683
C24   C     C_R   0.103456 0.461866 0.590699 -0.235683
C25   C     C_R   0.569546 0.021450 0.034316 0.079638
C26   C     C_R   0.430454 0.978550 0.965684 0.079638
C27   C     C_R   0.930451 0.521306 0.465679 0.079648
C28   C     C_R   0.069549 0.478694 0.534321 0.079648
C29   C     C_R   0.590402 0.016238 0.981423 0.050620
C30   C     C_R   0.409598 0.983761 0.018576 0.050620
C31   C     C_R   0.909571 0.514900 0.518542 0.050658
C32   C     C_R   0.090429 0.485100 0.481458 0.050658
C33   C     C_R   0.515919 0.009886 0.028883 0.072584
C34   C     C_R   0.484081 0.990114 0.971117 0.072584
C35   C     C_R   0.984087 0.510254 0.471127 0.072614
C36   C     C_R   0.015913 0.489746 0.528873 0.072614
C37   C     C_R   0.506857 0.977755 0.920551 -0.236312
C38   C     C_R   0.493143 0.022245 0.079449 -0.236311
C39   C     C_R   0.993118 0.476154 0.579396 -0.236337
C40   C     C_R   0.006881 0.523846 0.420604 -0.236337
C41   C     C_R   0.558713 0.987374 0.924891 -0.032441
C42   C     C_R   0.441287 0.012626 0.075109 -0.032441
C43   C     C_R   0.941253 0.485311 0.575040 -0.032398
C44   C     C_R   0.058747 0.514689 0.424960 -0.032398
H1    H     H_    0.408794 0.966800 0.867019 0.121003
H2    H     H_    0.591206 0.033200 0.132981 0.121003
H3    H     H_    0.091174 0.465601 0.632971 0.121025
H4    H     H_    0.908826 0.534399 0.367029 0.121025
H5    H     H_    0.659184 0.053414 0.946821 0.202999
H6    H     H_    0.340816 0.946586 0.053179 0.202999
H7    H     H_    0.840745 0.550706 0.553153 0.202986
H8    H     H_    0.159255 0.449294 0.446846 0.202986
H9    H     H_    0.485142 0.954106 0.876260 0.125361
H10   H     H_    0.514858 0.045894 0.123740 0.125361
H11   H     H_    0.014829 0.451846 0.623652 0.125393
H12   H     H_    0.985171 0.548154 0.376348 0.125393
C45   C     C_R   0.640946 0.897505 0.382981 -0.115433
C46   C     C_R   0.359054 0.102495 0.617019 -0.115433
C47   C     C_R   0.859101 0.397445 0.117079 -0.115216
C48   C     C_R   0.140899 0.602555 0.882921 -0.115216
H13   H     H_    0.666210 0.782009 0.381840 0.200350
H14   H     H_    0.333790 0.217991 0.618160 0.200350
H15   H     H_    0.833867 0.281902 0.118257 0.200494
H16   H     H_    0.166133 0.718098 0.881743 0.200494
C49   C     C_R   0.605500 0.882712 0.419948 -0.082297
C50   C     C_R   0.394500 0.117288 0.580052 -0.082297
C51   C     C_R   0.894544 0.382655 0.080109 -0.082276
C52   C     C_R   0.105456 0.617345 0.919891 -0.082276
H17   H     H_    0.604663 0.756613 0.445765 0.172857
H18   H     H_    0.395337 0.243387 0.554234 0.172857
H19   H     H_    0.895404 0.256523 0.054322 0.172844
H20   H     H_    0.104596 0.743477 0.945678 0.172844
C53   C     C_R   0.571867 0.028347 0.423733 -0.050862
C54   C     C_R   0.428133 0.971653 0.576267 -0.050862
C55   C     C_R   0.928147 0.528332 0.076285 -0.050868
C56   C     C_R   0.071852 0.471668 0.923714 -0.050868
C57   C     C_R   0.574274 0.188222 0.388833 -0.131524
C58   C     C_R   0.425726 0.811778 0.611167 -0.131524
C59   C     C_R   0.925717 0.688237 0.111155 -0.131593
C60   C     C_R   0.074283 0.311763 0.888845 -0.131593
H21   H     H_    0.548309 0.301605 0.390163 0.176347
H22   H     H_    0.451691 0.698395 0.609837 0.176347
H23   H     H_    0.951663 0.801647 0.109799 0.176341
H24   H     H_    0.048337 0.198353 0.890201 0.176341
C61   C     C_R   0.609522 0.204303 0.351330 0.269643
C62   C     C_R   0.390478 0.795697 0.648670 0.269643
C63   C     C_R   0.890470 0.704317 0.148659 0.269502
C64   C     C_R   0.109530 0.295683 0.851340 0.269501
C65   C     C_R   0.644258 0.058313 0.348516 -0.113065
C66   C     C_R   0.355742 0.941687 0.651484 -0.113065
C67   C     C_R   0.855756 0.558298 0.151502 -0.113144
C68   C     C_R   0.144244 0.441702 0.848498 -0.113144
N1    N     N_R   0.502185 0.155490 0.467837 -0.264680
N2    N     N_R   0.497815 0.844510 0.532163 -0.264680
N3    N     N_R   0.997818 0.655466 0.032167 -0.264710
N4    N     N_R   0.002182 0.344534 0.967832 -0.264710
N5    N     N_R   0.468671 0.142368 0.503460 -0.264971
N6    N     N_R   0.531329 0.857632 0.496540 -0.264971
N7    N     N_R   0.031325 0.642351 0.996535 -0.264987
N8    N     N_R   0.968675 0.357649 0.003465 -0.264987
C69   C     C_R   0.465699 0.986569 0.536479 0.549154
C70   C     C_R   0.534301 0.013431 0.463520 0.549154
C71   C     C_R   0.034293 0.486577 0.963511 0.549149
C72   C     C_R   0.965707 0.513423 0.036489 0.549149
C73   C     C_2   0.577475 0.959539 0.868241 0.416991
H25   H     H_    0.555577 0.010536 0.826195 0.069414
O21   O     O_2   0.615267 0.869028 0.867087 -0.499213
C74   C     C_2   0.422525 0.040461 0.131759 0.416991
H26   H     H_    0.444423 0.989464 0.173805 0.069414
O22   O     O_2   0.384733 0.130972 0.132913 -0.499212
C75   C     C_2   0.922478 0.456168 0.631621 0.416953
H27   H     H_    0.944338 0.506548 0.673769 0.069420
O23   O     O_2   0.884725 0.365258 0.632587 -0.499291
C76   C     C_2   0.077522 0.543832 0.368379 0.416953
H28   H     H_    0.055662 0.493452 0.326231 0.069420
O24   O     O_2   0.115275 0.634742 0.367412 -0.499291
Br1   Br    Br    0.254909 0.910610 0.956800 -0.526159
Br2   Br    Br    0.745091 0.089390 0.043200 -0.526159
Br3   Br    Br    0.245158 0.412757 0.543227 -0.526029
Br4   Br    Br    0.754842 0.587243 0.456773 -0.526029
Br5   Br    Br    0.605083 0.426038 0.303265 -0.548797
Br6   Br    Br    0.394917 0.573962 0.696735 -0.548797
Br7   Br    Br    0.894884 0.926086 0.196690 -0.548982
Br8   Br    Br    0.105116 0.073914 0.803310 -0.548982

loop_
_geom_bond_atom_site_label_1
_geom_bond_atom_site_label_2
_ccdc_geom_bond_type
O17   V3    S    
C55   C59   A    
O1    C5    A    
O19   V1    S    
C56   C71   S    
C9    C21   A    
O12   C8    A    
O3    C7    A    
C10   C18   A    
O1    V3    S    
C11   C23   A    
N4    C71   A    
C25   C33   A    
C33   C38   A    
C5    C12   S    
C39   H11   S    
O7    C3    A    
C6    C11   S    
C35   C40   A    
C26   C30   A    
C36   C39   A    
C40   C44   A    
O2    V4    S    
O9    V1    S    
C14   C18   A    
O16   V4    S    
O4    C8    A    
C64   C68   A    
C57   C61   A    
C52   H20   S    
O13   V1    S    
C31   C43   A    
C59   C63   A    
N2    N6    A    
O3    V1    S    
C3    C66   S    
N1    N5    A    
C22   H1    S    
C28   C36   A    
N5    C69   A    
C44   C76   S    
C1    O15   A    
C54   C69   S    
C15   C31   A    
C2    O16   A    
C74   H26   S    
C16   C32   A    
O2    C6    A    
C58   H22   S    
C10   C22   A    
N2    C69   A    
C15   H7    S    
C11   C19   A    
N1    C70   A    
C62   C66   A    
C16   C20   A    
O5    V1    S    
C61   C65   A    
N8    C72   A    
C13   C29   A    
N3    C72   A    
C34   C37   A    
O11   C7    A    
O15   V3    S    
C35   C36   A    
C48   C68   A    
C13   C17   A    
C40   H12   S    
C19   Br4   S    
O10   V2    S    
C45   H13   S    
C50   H18   S    
C42   C74   S    
C57   H21   S    
C39   C43   A    
O7    V3    S    
C38   C42   A    
C26   C34   A    
C47   C67   A    
C75   H27   S    
C46   C66   A    
C37   H9    S    
C60   C64   A    
O18   V4    S    
C23   C27   A    
C56   C60   A    
C32   C44   A    
C16   H8    S    
C49   C53   A    
O8    V4    S    
N6    C70   A    
C43   C75   S    
O5    C1    A    
C63   Br7   S    
C41   C73   S    
C14   C30   A    
C21   C25   A    
O8    C4    A    
C7    C10   S    
C18   Br1   S    
O9    C5    A    
C76   O24   D    
O14   V2    S    
O6    V2    S    
C58   C62   A    
C27   C35   A    
C24   H3    S    
C4    O14   A    
N7    C71   A    
C60   H24   S    
C29   C41   A    
C52   C56   A    
C59   H23   S    
C4    C65   S    
C14   H6    S    
C75   O23   D    
C13   H5    S    
C3    O13   A    
C21   H2    S    
C1    C68   S    
C38   H10   S    
C61   Br5   S    
C48   H16   S    
C53   C70   S    
C47   H15   S    
O6    C2    A    
C15   C19   A    
O11   V3    S    
C55   C72   S    
C30   C42   A    
N3    N7    A    
O12   V4    S    
C47   C51   A    
C22   C26   A    
C8    C9    S    
C46   C50   A    
C9    C17   A    
O10   C6    A    
O20   V2    S    
C73   H25   S    
C45   C49   A    
C17   Br2   S    
C54   C58   A    
C46   H14   S    
C33   C34   A    
C20   Br3   S    
C25   C29   A    
C12   C24   A    
C27   C31   A    
C37   C41   A    
C49   H17   S    
N4    N8    A    
O4    V2    S    
C23   H4    S    
C12   C20   A    
C76   H28   S    
C51   H19   S    
C64   Br8   S    
C24   C28   A    
C74   O22   D    
C45   C65   A    
C63   C67   A    
C48   C52   A    
C51   C55   A    
C62   Br6   S    
C50   C54   A    
C53   C57   A    
C2    C67   S    
C28   C32   A    
C73   O21   D    
