data_mof_unit_33440.cif
_audit_creation_date              2012-12-10T19:06:26-0500
_audit_creation_method            fapswitch 2.2
_symmetry_space_group_name_H-M    P1
_symmetry_Int_Tables_number       1
_space_group_crystal_system       triclinic
_cell_length_a                    23.456762
_cell_length_b                    10.847697
_cell_length_c                    9.626889
_cell_angle_alpha                 89.399025
_cell_angle_beta                  88.823981
_cell_angle_gamma                 90.390628
_cell_volume                      2448.86838988

loop_
_atom_site_label
_atom_site_type_symbol
_atom_type_description
_atom_site_fract_x
_atom_site_fract_y
_atom_site_fract_z
_atom_type_partial_charge
C1    C     C_R   0.496249 0.262922 0.500003 0.983206
C2    C     C_R   0.972653 0.382546 0.270210 0.305129
C3    C     C_R   0.032554 0.385350 0.273210 0.626089
C4    C     C_R   0.061354 0.428870 0.389925 -0.167151
C5    C     C_R   0.029772 0.471471 0.505673 -0.142000
C6    C     C_R   0.058487 0.511733 0.625007 -0.218075
C7    C     C_R   0.026757 0.554673 0.740025 0.620197
C8    C     C_R   0.967600 0.559635 0.736256 0.623236
C9    C     C_R   0.121382 0.429646 0.394931 0.758540
C10   C     C_R   0.118393 0.509189 0.625078 0.744359
C11   C     C_R   0.235849 0.587990 0.480787 0.618815
C12   C     C_R   0.391197 0.499592 0.501097 1.026273
C13   C     C_R   0.295378 0.599060 0.477796 0.199385
C14   C     C_R   0.328624 0.493620 0.503765 -0.367482
C15   C     C_R   0.301946 0.379560 0.532295 0.541766
C16   C     C_R   0.242338 0.369217 0.538094 0.217101
C17   C     C_R   0.209354 0.474540 0.511086 -0.079397
C18   C     C_R   0.759992 0.382374 0.496503 0.573146
C19   C     C_R   0.700156 0.381723 0.497694 0.155228
C20   C     C_R   0.670975 0.495315 0.495933 -0.421719
C21   C     C_R   0.701662 0.606786 0.493504 0.508263
C22   C     C_R   0.761103 0.606164 0.491812 0.602605
C23   C     C_R   0.499633 0.737260 0.499383 0.948047
C24   C     C_R   0.790347 0.494070 0.493485 -0.097040
C25   C     C_R   0.520039 0.064230 0.603621 0.146496
C26   C     C_R   0.493528 0.129238 0.497321 -0.262620
C27   C     C_R   0.471401 0.062922 0.382694 0.252073
C28   C     C_R   0.474928 0.933984 0.384096 0.628378
C29   C     C_R   0.498925 0.870709 0.496431 -0.226890
C30   C     C_R   0.522953 0.937664 0.602967 0.059279
C31   C     C_3   0.513026 0.927505 0.756214 -0.407414
C32   C     C_3   0.509265 0.066897 0.757256 -0.277407
C33   C     C_R   0.549912 0.503787 0.069265 0.091484
C34   C     C_R   0.608666 0.499308 0.498755 1.018439
C35   C     C_R   0.451527 0.482276 0.079349 0.019329
C36   C     C_R   0.451507 0.471420 0.933142 0.361274
C37   C     C_R   0.549886 0.500061 0.923681 0.075230
C38   C     C_3   0.600229 0.582643 0.906989 0.400693
C39   C     C_3   0.599785 0.592866 0.065254 0.051237
C40   C     C_R   0.878744 0.524902 0.612729 0.755768
C41   C     C_R   0.880784 0.453751 0.378960 0.766561
C42   C     C_R   0.940585 0.436228 0.381645 -0.177870
C43   C     C_R   0.969550 0.475957 0.501522 -0.122148
C44   C     C_R   0.938428 0.520837 0.617790 -0.239033
Cu1   Cu    Cu3+1 0.500000 0.499980 0.640670 1.079181
Cu2   Cu    Cu3+1 0.500000 0.500020 0.359330 1.140948
H1    H     H_    0.472039 0.880726 0.784823 0.229899
H2    H     H_    0.551126 0.891912 0.809796 0.240783
H3    H     H_    0.465977 0.100408 0.785771 0.249082
H4    H     H_    0.544666 0.111228 0.813693 0.248789
H5    H     H_    0.412511 0.468115 0.138535 0.202500
H6    H     H_    0.591215 0.667942 0.846520 0.118233
H7    H     H_    0.638532 0.554267 0.113580 0.184356
N1    N     N_R   0.851548 0.492422 0.494609 -0.427760
N2    N     N_R   0.148225 0.468369 0.511446 -0.431144
N3    N     N_R   0.500360 0.500930 0.147930 -0.191445
N4    N     N_R   0.500360 0.500890 0.852020 -0.282249
O1    O     O_R   0.500000 0.319640 0.618810 -0.553835
O2    O     O_2   0.851708 0.437018 0.261475 -0.407446
O3    O     O_2   0.152988 0.393058 0.284368 -0.385128
O4    O     O_2   0.146950 0.547353 0.737228 -0.392484
O5    O     O_R   0.500010 0.319680 0.381230 -0.517320
O6    O     O_R   0.417880 0.499940 0.618820 -0.510842
O7    O     O_R   0.417880 0.499980 0.381240 -0.582934
O8    O     O_R   0.499990 0.680320 0.618770 -0.630959
O9    O     O_R   0.500000 0.680360 0.381190 -0.476081
O10   O     O_R   0.582120 0.500020 0.618760 -0.544557
O11   O     O_R   0.582120 0.500060 0.381180 -0.581931
O12   O     O_2   0.847781 0.560656 0.724747 -0.368426
S1    S     S_3+6 0.940354 0.300364 0.132123 0.166440
O13   O     O_2   0.916894 0.390971 0.029258 -0.166427
O14   O     O_2   0.982519 0.219010 0.058167 -0.152178
O15   O     O_3   0.887170 0.210467 0.196683 -0.429255
H8    H     H_    0.867615 0.178394 0.114156 0.407082
S2    S     S_3+6 0.662107 0.239910 0.507061 0.111925
O16   O     O_2   0.623370 0.231530 0.385134 -0.257905
O17   O     O_2   0.701161 0.130643 0.506034 -0.092221
O18   O     O_3   0.622511 0.236758 0.654433 -0.536652
H9    H     H_    0.650023 0.249746 0.729664 0.384300
F1    F     F_    0.673885 0.716192 0.494460 -0.553095
F2    F     F_    0.790413 0.714484 0.488835 -0.520411
S3    S     S_3+6 0.436414 0.135023 0.240310 0.122237
O19   O     O_2   0.480670 0.188326 0.141380 -0.233680
O20   O     O_2   0.400668 0.044608 0.162034 -0.162023
O21   O     O_3   0.394030 0.248967 0.297328 -0.513367
H10   H     H_    0.354620 0.216313 0.291806 0.397801
F3    F     F_    0.451158 0.869262 0.280617 -0.526164
F4    F     F_    0.062932 0.344196 0.161571 -0.522445
S4    S     S_3+6 0.389537 0.392927 0.875851 0.094851
O22   O     O_2   0.404138 0.302333 0.764497 -0.194932
O23   O     O_2   0.362041 0.321198 0.994141 -0.226570
O24   O     O_3   0.341514 0.495599 0.819903 -0.499899
H11   H     H_    0.334136 0.549977 0.900207 0.363860
F5    F     F_    0.647415 0.519184 0.858048 -0.609152
S5    S     S_3+6 0.584925 0.747993 0.115840 0.074236
O25   O     O_2   0.597897 0.763463 0.266637 -0.182757
O26   O     O_2   0.622297 0.835522 0.032377 -0.226315
O27   O     O_3   0.516300 0.781509 0.087586 -0.429001
H12   H     H_    0.508759 0.752722 0.992508 0.301343
F6    F     F_    0.052593 0.593459 0.856932 -0.512958
F7    F     F_    0.939287 0.604877 0.848943 -0.509550
F8    F     F_    0.202653 0.686761 0.452533 -0.533346
S6    S     S_3+6 0.327683 0.743369 0.437572 0.115051
O28   O     O_2   0.371642 0.771578 0.544175 -0.331761
O29   O     O_2   0.355970 0.734398 0.296704 -0.210518
O30   O     O_3   0.279973 0.858413 0.435122 -0.350043
H13   H     H_    0.302656 0.933588 0.412309 0.399647
F9    F     F_    0.334340 0.277902 0.551539 -0.583310
S7    S     S_3+6 0.209845 0.223822 0.574206 0.159309
O31   O     O_2   0.196092 0.163700 0.438965 -0.156062
O32   O     O_2   0.249326 0.141323 0.653049 -0.133569
O33   O     O_3   0.149092 0.239840 0.667768 -0.473319
H14   H     H_    0.161266 0.271789 0.758584 0.388430
F10   F     F_    0.789502 0.275232 0.500564 -0.538239

loop_
_geom_bond_atom_site_label_1
_geom_bond_atom_site_label_2
_ccdc_geom_bond_type
C36   S4    S    
C41   C42   A    
S5    O25   D    
S2    O16   D    
C1    O5    A    
C18   F10   S    
S5    O27   S    
C7    C8    A    
C39   H7    S    
Cu1   Cu2   S    
Cu1   N4    S    
C26   C27   A    
C33   C39   S    
Cu2   O5    S    
C18   C24   A    
C23   C29   S    
C23   O9    A    
C28   C29   A    
C37   C38   S    
Cu2   O9    S    
S7    O32   D    
C30   C31   S    
C12   O7    A    
C38   H6    S    
O30   H13   S    
C24   N1    S    
C15   C16   A    
C18   C19   A    
O15   H8    S    
C19   C20   A    
C16   C17   A    
Cu1   O10   S    
S1    O13   D    
C9    N2    A    
C13   S6    S    
C8    F7    S    
C17   N2    S    
C20   C34   S    
C33   N3    A    
C5    C43   A    
C31   H1    S    
C21   C22   A    
C1    O1    A    
S1    O15   S    
S6    O30   S    
O33   H14   S    
C16   S7    S    
C38   C39   S    
C41   N1    A    
Cu1   O1    S    
C7    F6    S    
C22   F2    S    
C41   O2    S    
C36   N4    A    
C40   O12   S    
S7    O33   S    
C34   O11   A    
C12   O6    A    
O18   H9    S    
C25   C26   A    
O21   H10   S    
Cu1   O6    S    
C33   C37   A    
Cu2   O7    S    
C35   C36   A    
C15   F9    S    
C43   C44   A    
Cu2   O11   S    
C29   C30   A    
C31   C32   S    
C32   H4    S    
C38   F5    S    
C28   F3    S    
S6    O29   D    
S4    O24   S    
C10   N2    A    
S2    O17   D    
C39   S5    S    
C12   C14   S    
O27   H12   S    
S3    O20   D    
C31   H2    S    
C35   H5    S    
C1    C26   S    
C22   C24   A    
C10   O4    S    
S4    O23   D    
C42   C43   A    
C3    C4    A    
S6    O28   D    
C25   C30   A    
C11   C17   A    
C3    F4    S    
C27   S3    S    
C8    C44   A    
C4    C5    A    
C34   O10   A    
C35   N3    A    
S5    O26   D    
C6    C7    A    
S3    O21   S    
C40   N1    A    
C9    O3    S    
C23   O8    A    
C19   S2    S    
C2    C3    A    
S4    O22   D    
C2    S1    S    
S7    O31   D    
Cu1   O8    S    
C11   C13   A    
C5    C6    A    
C2    C42   A    
C21   F1    S    
O24   H11   S    
C11   F8    S    
S2    O18   S    
C32   H3    S    
C6    C10   A    
C40   C44   A    
C20   C21   A    
S3    O19   D    
Cu2   N3    S    
C27   C28   A    
C14   C15   A    
S1    O14   D    
C4    C9    A    
C13   C14   A    
C37   N4    A    
C25   C32   S    
