data_mof_unit_43194.cif
_audit_creation_date              2013-03-05T15:41:37-0500
_audit_creation_method            fapswitch 2.2
_symmetry_space_group_name_H-M    P1
_symmetry_Int_Tables_number       1
_space_group_crystal_system       triclinic
_cell_length_a                    8.094135
_cell_length_b                    8.606066
_cell_length_c                    15.741034
_cell_angle_alpha                 93.027345
_cell_angle_beta                  83.263227
_cell_angle_gamma                 93.116206
_cell_volume                      1086.12566103

loop_
_atom_site_label
_atom_site_type_symbol
_atom_site_description
_atom_site_fract_x
_atom_site_fract_y
_atom_site_fract_z
_atom_type_partial_charge
O1    O     O_R   0.389240 0.738570 0.505550 -0.616714
O2    O     O_R   0.678400 0.711630 0.491050 -0.602141
C1    C     C_R   0.543996 0.793467 0.502672 0.868489
O3    O     O_R   0.355360 0.513470 0.630110 -0.639124
O4    O     O_R   0.644510 0.486530 0.615610 -0.593937
C2    C     C_R   0.497904 0.501857 0.660790 0.891140
Zn1   Zn    Zn3+2 0.306930 0.517990 0.509680 1.059627
Zn2   Zn    Zn3+2 0.693070 0.482010 0.490320 1.106010
O5    O     O_R   0.321600 0.288370 0.508950 -0.586259
O6    O     O_R   0.610760 0.261430 0.494450 -0.603716
O7    O     O_R   0.355490 0.513470 0.384390 -0.571622
O8    O     O_R   0.644640 0.486530 0.369890 -0.562367
C3    C     C_R   0.456093 0.207320 0.505721 0.955866
C4    C     C_R   0.502417 0.500684 0.339340 0.877220
C5    C     C_3   0.359689 0.650428 0.966670 0.310660
C6    C     C_3   0.680920 0.592994 0.932916 0.345709
C7    C     C_3   0.692518 0.583727 0.037274 0.008295
C8    C     C_1   0.510389 0.508081 0.250665 0.024657
C9    C     C_3   0.492937 0.534061 0.917831 -0.236339
C10   C     C_3   0.365966 0.635754 0.069236 -0.386675
C11   C     C_3   0.512935 0.521819 0.083354 -0.156047
C12   C     C_3   0.472112 0.345550 0.047226 0.089600
C13   C     C_3   0.451365 0.360631 0.948922 -0.415985
C14   C     C_1   0.516335 0.515230 0.175403 0.113945
C15   C     C_1   0.488056 0.524516 0.825530 0.196842
C16   C     C_1   0.492274 0.512970 0.749915 0.047324
H1    H     H_    0.538411 0.285553 0.911391 0.291415
C17   C     C_2   0.563808 0.956585 0.521220 -0.237735
C18   C     C_2   0.435792 0.043308 0.508800 -0.297648
H2    H     H_    0.319667 0.992493 0.488864 0.193694
N1    N     N_2   0.950340 0.457950 0.477370 0.004461
N2    N     N_2   0.049660 0.542050 0.522630 -0.166816
C19   C     C_2   0.368410 0.794899 0.118044 0.728473
H3    H     H_    0.282595 0.878829 0.103474 0.162281
O9    O     O_2   0.441302 0.822517 0.181259 -0.550793
N3    N     N_R   0.189602 0.609351 0.946072 0.181159
O10   O     O_R   0.164893 0.549911 0.870795 -0.317725
O11   O     O_R   0.072832 0.692589 0.985683 -0.365910
C20   C     C_2   0.202359 0.563715 0.112777 0.397703
H4    H     H_    0.136616 0.473760 0.079316 0.158265
O12   O     O_2   0.147898 0.597042 0.187034 -0.481578
N4    N     N_R   0.607234 0.240731 0.059277 0.297898
O13   O     O_R   0.630895 0.206281 0.136481 -0.295829
O14   O     O_R   0.685568 0.160889 0.996041 -0.167129
C21   C     C_2   0.714902 0.014569 0.561434 0.590265
H5    H     H_    0.834876 0.967701 0.539208 0.110985
O15   O     O_2   0.704662 0.109595 0.622053 -0.501209
N5    N     N_R   0.026114 0.396286 0.400420 0.321172
O16   O     O_R   0.986923 0.446248 0.329340 -0.269526
O17   O     O_R   0.092671 0.261922 0.398598 -0.373995
C22   C     C_2   0.979659 0.598856 0.603799 0.662056
H6    H     H_    0.016881 0.551104 0.660389 0.115940
O18   O     O_2   0.891123 0.709914 0.610788 -0.562343
N6    N     N_R   0.391993 0.810315 0.934337 0.246660
O19   O     O_R   0.340053 0.840951 0.861951 -0.213752
O20   O     O_R   0.464692 0.924535 0.974899 -0.299803
N7    N     N_R   0.801510 0.498291 0.874158 0.262210
O21   O     O_R   0.888629 0.565477 0.810251 -0.286480
O22   O     O_R   0.796076 0.347079 0.868646 -0.284846
N8    N     N_R   0.718256 0.755920 0.903441 0.256839
O23   O     O_R   0.667828 0.794151 0.832089 -0.284365
O24   O     O_R   0.855648 0.829955 0.920478 -0.171200
C23   C     C_2   0.745542 0.740051 0.081406 0.594458
H7    H     H_    0.827508 0.741458 0.131353 0.134907
O25   O     O_2   0.696790 0.865481 0.065905 -0.434016
N9    N     N_R   0.819618 0.478321 0.059112 0.205925
O26   O     O_R   0.841587 0.462926 0.138929 -0.350402
O27   O     O_R   0.913397 0.399339 0.002547 -0.309223
C24   C     C_2   0.291812 0.285184 0.920012 0.667068
H8    H     H_    0.173757 0.306292 0.955813 0.161871
O28   O     O_2   0.294765 0.197573 0.856174 -0.444926
C25   C     C_2   0.320489 0.263993 0.098087 0.381574
H9    H     H_    0.280843 0.300898 0.163890 0.128432
O29   O     O_2   0.253407 0.144686 0.070475 -0.512919

loop_
_geom_bond_atom_site_label_1
_geom_bond_atom_site_label_2
_geom_bond_distance
_ccdc_geom_bond_type
O4    Zn2   1.963985 S    
N9    O27   1.290203 A    
C23   O25   1.215403 D    
N2    C22   1.409543 S    
C18   H2    1.087759 S    
C13   H1    1.083709 S    
C25   O29   1.218845 D    
C13   C24   1.520528 S    
C9    C13   1.601366 S    
N1    N2    1.301664 D    
Zn2   O8    1.983083 S    
N3    O11   1.297468 A    
O2    C1    1.317570 A    
N7    O21   1.301613 A    
C11   C14   1.456584 S    
C20   O12   1.224878 D    
C12   N4    1.489938 S    
C11   C12   1.622439 S    
C7    C23   1.544397 S    
C5    C9    1.612058 S    
N5    O17   1.299531 A    
C17   C18   1.347560 D    
C7    N9    1.488881 S    
C2    C16   1.396689 S    
N4    O14   1.300779 A    
N8    O23   1.302888 A    
O3    Zn1   1.983085 S    
C8    C14   1.184748 T    
O4    C2    1.319246 A    
C12   C25   1.541091 S    
N3    O10   1.298545 A    
C19   O9    1.221597 D    
O8    C4    1.312482 A    
N9    O26   1.303946 A    
C12   C13   1.588721 S    
C6    N7    1.505823 S    
C21   O15   1.221705 D    
C6    C9    1.617688 S    
C24   H8    1.070226 S    
C9    C15   1.455952 S    
O7    C4    1.318108 A    
N6    O20   1.295814 A    
C17   C21   1.492416 S    
N7    O22   1.298341 A    
O3    C2    1.312539 A    
C1    C17   1.422968 S    
N4    O13   1.303952 A    
C10   C19   1.534922 S    
C22   O18   1.218210 D    
C23   H7    1.085789 S    
C5    N6    1.491443 S    
Zn1   O5    1.985471 S    
C5    N3    1.471434 S    
C19   H3    1.079902 S    
C10   C11   1.624124 S    
C25   H9    1.084022 S    
N8    O24   1.299793 A    
C6    N8    1.504123 S    
N1    N5    1.384979 S    
C3    C18   1.414856 S    
C20   H4    1.066676 S    
C24   O28   1.222759 D    
C10   C20   1.533121 S    
O5    C3    1.319093 A    
N6    O19   1.304130 A    
N5    O16   1.298579 A    
Zn1   O7    1.963985 S    
Zn1   N2    2.088913 S    
O1    Zn1   1.979166 S    
C15   C16   1.185783 T    
C21   H5    1.084465 S    
Zn2   N1    2.088913 S    
C4    C8    1.394403 S    
Zn2   O6    1.979166 S    
O2    Zn2   1.985472 S    
C22   H6    1.080846 S    
C6    C7    1.662671 S    
C5    C10   1.632969 S    
O1    C1    1.311077 A    
O6    C3    1.307212 A    
C7    C11   1.622376 S    
