data_mof_unit_22936.cif
_audit_creation_date              2013-03-05T15:40:48-0500
_audit_creation_method            fapswitch 2.2
_symmetry_space_group_name_H-M    P1
_symmetry_Int_Tables_number       1
_space_group_crystal_system       triclinic
_cell_length_a                    7.773018
_cell_length_b                    8.670404
_cell_length_c                    14.84707
_cell_angle_alpha                 91.200034
_cell_angle_beta                  85.987553
_cell_angle_gamma                 93.631255
_cell_volume                      996.027685147

loop_
_atom_site_label
_atom_site_type_symbol
_atom_site_description
_atom_site_fract_x
_atom_site_fract_y
_atom_site_fract_z
_atom_type_partial_charge
O1    O     O_R   0.389250 0.738570 0.505970 -0.582731
O2    O     O_R   0.610750 0.261430 0.494030 -0.582731
O3    O     O_R   0.678390 0.711620 0.490370 -0.590476
O4    O     O_R   0.321610 0.288380 0.509630 -0.590476
C1    C     C_R   0.545057 0.793904 0.496637 0.870261
C2    C     C_R   0.454943 0.206096 0.503363 0.870262
O5    O     O_R   0.355420 0.513510 0.639950 -0.613959
O6    O     O_R   0.644580 0.486490 0.360050 -0.613959
O7    O     O_R   0.644560 0.486560 0.624350 -0.615415
O8    O     O_R   0.355440 0.513440 0.375650 -0.615415
C3    C     C_R   0.502367 0.500033 0.672719 0.874687
C4    C     C_R   0.497632 0.499967 0.327281 0.874687
Zn1   Zn    Zn3+2 0.306940 0.517990 0.510420 1.044795
Zn2   Zn    Zn3+2 0.693060 0.482010 0.489580 1.044795
C5    C     C_R   0.450208 0.363306 0.187011 -0.251410
C6    C     C_R   0.549792 0.636694 0.812989 -0.251410
C7    C     C_R   0.492623 0.501022 0.232296 -0.032691
C8    C     C_R   0.507377 0.498978 0.767704 -0.032691
C9    C     C_R   0.536127 0.638675 0.187373 -0.227202
C10   C     C_R   0.463873 0.361325 0.812627 -0.227202
C11   C     C_R   0.538654 0.639684 0.094075 0.119447
C12   C     C_R   0.461346 0.360316 0.905925 0.119447
C13   C     C_R   0.497826 0.500336 0.046905 0.057380
C14   C     C_R   0.502174 0.499664 0.953094 0.057380
C15   C     C_R   0.453139 0.361567 0.093660 0.124594
C16   C     C_R   0.546861 0.638433 0.906339 0.124594
C17   C     C_R   0.582317 0.776753 0.047317 -0.207038
C18   C     C_R   0.417683 0.223247 0.952683 -0.207038
C19   C     C_R   0.586357 0.776141 0.953558 -0.207143
C20   C     C_R   0.413643 0.223859 0.046441 -0.207143
H1    H     H_    0.417680 0.258102 0.224527 0.148029
H2    H     H_    0.582320 0.741898 0.775473 0.148029
H3    H     H_    0.568731 0.743741 0.225192 0.146329
H4    H     H_    0.431269 0.256259 0.774808 0.146329
H5    H     H_    0.613427 0.883939 0.083204 0.155632
H6    H     H_    0.386573 0.116061 0.916796 0.155632
H7    H     H_    0.620187 0.882926 0.918028 0.158286
H8    H     H_    0.379813 0.117074 0.081972 0.158286
C21   C     C_2   0.569243 0.955858 0.501207 -0.026601
C22   C     C_2   0.430757 0.044142 0.498793 -0.026601
N1    N     N_2   0.950330 0.457950 0.475660 -0.139981
N2    N     N_2   0.049670 0.542050 0.524340 -0.139981
H9    H     H_    0.013730 0.382463 0.432582 0.222009
H10   H     H_    0.986270 0.617537 0.567418 0.222009
N3    N     N_R   0.741341 0.016936 0.515897 0.240455
O9    O     O_R   0.857826 0.025385 0.448573 -0.306392
O10   O     O_R   0.782689 0.057289 0.596880 -0.360866
N4    N     N_R   0.258659 0.983064 0.484103 0.240455
O11   O     O_R   0.142174 0.974615 0.551427 -0.306392
O12   O     O_R   0.217312 0.942711 0.403120 -0.360866

loop_
_geom_bond_atom_site_label_1
_geom_bond_atom_site_label_2
_geom_bond_distance
_ccdc_geom_bond_type
C4    C7    1.413746 S    
C13   C14   1.390760 A    
C3    C8    1.413746 S    
C5    C7    1.390702 A    
C17   C19   1.390097 A    
N1    H9    1.029327 S    
N1    N2    1.278684 D    
O6    C4    1.285336 A    
C21   N3    1.436585 S    
C10   H4    1.085641 S    
C18   C20   1.390097 A    
C11   C17   1.400012 A    
C12   C18   1.400011 A    
N3    O9    1.300889 A    
O5    C3    1.285336 A    
O7    C3    1.285587 A    
C20   H8    1.083913 S    
O2    C2    1.273508 A    
O3    Zn2   2.001014 S    
N2    H10   1.029327 S    
C17   H5    1.083915 S    
Zn2   N1    2.019526 S    
O1    C1    1.273508 A    
O8    C4    1.285587 A    
C12   C14   1.413515 A    
N4    O12   1.301374 A    
N4    O11   1.300890 A    
C9    C11   1.384176 A    
C10   C12   1.384176 A    
C8    C10   1.390796 A    
C1    C21   1.405738 S    
C11   C13   1.413514 A    
C6    C16   1.384351 A    
O2    Zn2   1.978841 S    
C2    C22   1.405738 S    
C5    C15   1.384351 A    
O4    C2    1.291959 A    
O1    Zn1   1.978840 S    
C21   C22   1.362666 D    
O5    Zn1   1.987055 S    
C13   C15   1.413678 A    
C18   H6    1.083915 S    
C16   C19   1.399986 A    
C6    C8    1.390702 A    
C9    H3    1.085641 S    
N3    O10   1.301374 A    
C19   H7    1.083914 S    
C15   C20   1.399986 A    
C22   N4    1.436585 S    
O7    Zn2   2.010087 S    
C6    H2    1.085627 S    
Zn1   N2    2.019527 S    
O6    Zn2   1.987057 S    
C7    C9    1.390796 A    
C5    H1    1.085627 S    
O4    Zn1   2.001016 S    
C14   C16   1.413678 A    
O3    C1    1.291960 A    
O8    Zn1   2.010088 S    
