data_mof_unit_52822.cif
_audit_creation_date              2012-12-10T20:36:33-0500
_audit_creation_method            fapswitch 2.2
_symmetry_space_group_name_H-M    P1
_symmetry_Int_Tables_number       1
_space_group_crystal_system       triclinic
_cell_length_a                    10.502161
_cell_length_b                    10.693389
_cell_length_c                    9.901376
_cell_angle_alpha                 89.494876
_cell_angle_beta                  90.976698
_cell_angle_gamma                 90.437384
_cell_volume                      1111.72518506

loop_
_atom_site_label
_atom_site_type_symbol
_atom_type_description
_atom_site_fract_x
_atom_site_fract_y
_atom_site_fract_z
_atom_type_partial_charge
C1    C     C_R   0.502478 0.260086 0.500437 0.917808
C2    C     C_3   0.962485 0.600348 0.561407 0.536137
C3    C     C_3   0.042869 0.604202 0.433497 -0.294687
C4    C     C_3   0.122844 0.499474 0.496993 -0.020068
C5    C     C_R   0.502241 0.061579 0.621699 0.007005
C6    C     C_R   0.517194 0.128264 0.501649 -0.059292
C7    C     C_R   0.553010 0.066049 0.384035 -0.214865
C8    C     C_R   0.553920 0.936604 0.383457 -0.199659
C9    C     C_R   0.519544 0.871217 0.500683 -0.129632
C10   C     C_R   0.505381 0.934251 0.621569 0.063637
C11   C     C_3   0.403705 0.921592 0.724586 0.076538
C12   C     C_R   0.257568 0.499264 0.498983 0.912488
C13   C     C_3   0.399296 0.063360 0.724687 0.024694
C14   C     C_R   0.390617 0.477297 0.069462 0.235228
C15   C     C_R   0.603118 0.539872 0.074564 -0.240560
C16   C     C_R   0.605364 0.538457 0.929588 0.554083
C17   C     C_R   0.390140 0.478286 0.927546 0.145461
C18   C     C_3   0.307831 0.364328 0.922732 -0.459186
C19   C     C_3   0.309068 0.363306 0.076154 -0.503242
C20   C     C_R   0.503338 0.739711 0.499598 0.858303
C21   C     C_R   0.742538 0.500289 0.500586 0.864353
C22   C     C_3   0.039627 0.397251 0.433108 -0.111260
C23   C     C_3   0.955999 0.501622 0.370203 -0.222357
C24   C     C_3   0.877502 0.499934 0.500121 -0.077929
C25   C     C_3   0.958928 0.395866 0.562384 -0.225148
C26   C     C_3   0.045008 0.497922 0.626128 -0.179406
H1    H     H_    0.914561 0.501972 0.266382 0.162372
H2    H     H_    0.433636 0.103976 0.821307 0.161101
H3    H     H_    0.683886 0.573073 0.132901 0.155611
H4    H     H_    0.212179 0.383010 0.878240 0.216918
H5    H     H_    0.357850 0.284430 0.879130 0.230359
H6    H     H_    0.214444 0.382848 0.119606 0.204650
H7    H     H_    0.359742 0.281788 0.121520 0.221449
H8    H     H_    0.076510 0.314446 0.379832 0.154446
H9    H     H_    0.921102 0.311703 0.615031 0.166014
H10   H     H_    0.085992 0.497941 0.729726 0.137449
H11   H     H_    0.081600 0.687674 0.380444 0.147984
H12   H     H_    0.573756 0.116428 0.291492 0.175203
H13   H     H_    0.574644 0.888591 0.290565 0.190824
H14   H     H_    0.315955 0.874883 0.684828 0.161661
N1    N     N_R   0.499140 0.499140 0.142800 -0.127810
N2    N     N_R   0.499140 0.499180 0.857150 -0.142860
O1    O     O_R   0.500020 0.316790 0.614690 -0.616941
O2    O     O_R   0.500000 0.316760 0.385350 -0.630080
O3    O     O_R   0.313960 0.499990 0.614650 -0.614146
O4    O     O_R   0.313940 0.499950 0.385310 -0.618151
O5    O     O_R   0.500000 0.683240 0.614650 -0.569043
O6    O     O_R   0.499980 0.683210 0.385310 -0.615355
O7    O     O_R   0.686060 0.500050 0.614690 -0.567464
O8    O     O_R   0.686040 0.500010 0.385350 -0.646130
Zn1   Zn    Zn3+2 0.500010 0.500020 0.653130 1.014423
Zn2   Zn    Zn3+2 0.499990 0.499980 0.346870 0.950247
Br1   Br    Br    0.469251 0.851758 0.893530 -0.534136
Br2   Br    Br    0.237241 0.127329 0.655450 -0.613079
O9    O     O_3   0.707607 0.587905 0.859264 -0.581434
C27   C     C_3   0.827552 0.553702 0.915776 0.095632
H15   H     H_    0.884951 0.517311 0.832687 0.190096
H16   H     H_    0.824228 0.475749 0.991202 0.073651
C28   C     C_3   0.895310 0.668961 0.975164 -0.313180
H17   H     H_    0.891864 0.747290 0.900754 0.278201
H18   H     H_    0.845939 0.699899 0.067087 0.194883
C29   C     C_3   0.034388 0.642151 0.011843 -0.932678
H19   H     H_    0.042270 0.557423 0.076822 0.249223
H20   H     H_    0.076093 0.722814 0.067409 0.277446
H21   H     H_    0.090189 0.628279 0.919154 0.275278
O10   O     O_3   0.920377 0.702009 0.638327 -0.649631
C30   C     C_3   0.863563 0.795022 0.555500 0.073700
H22   H     H_    0.773897 0.823093 0.604229 0.191990
H23   H     H_    0.836866 0.763130 0.451683 0.108547
C31   C     C_3   0.952034 0.909162 0.548199 -0.311590
H24   H     H_    0.978041 0.939452 0.652260 0.259931
H25   H     H_    0.040866 0.883910 0.495987 0.223876
C32   C     C_3   0.888779 0.017918 0.472996 -0.927540
H26   H     H_    0.859802 0.989556 0.369211 0.262079
H27   H     H_    0.956876 0.097542 0.465900 0.282125
H28   H     H_    0.803756 0.049280 0.528215 0.265434

loop_
_geom_bond_atom_site_label_1
_geom_bond_atom_site_label_2
_ccdc_geom_bond_type
O9    C27   S    
C32   H26   S    
C3    C23   S    
C21   O7    A    
C7    C8    A    
C5    C6    A    
O3    Zn1   S    
C15   C16   A    
O4    Zn2   S    
C27   H15   S    
C18   C19   S    
C17   N2    A    
C29   H20   S    
C9    C20   S    
C1    O1    A    
C8    C9    A    
O7    Zn1   S    
C22   C25   S    
O8    Zn2   S    
C23   C24   S    
C13   H2    S    
C31   H24   S    
C18   H4    S    
C8    H13   S    
C23   H1    S    
C4    C12   S    
C9    C10   A    
N1    Zn2   S    
C5    C13   S    
C11   Br1   S    
N2    Zn1   S    
O2    Zn2   S    
O10   C30   S    
C28   H17   S    
C32   H27   S    
C14   C17   A    
C19   H6    S    
C21   O8    A    
C15   H3    S    
C22   H8    S    
C28   H18   S    
C30   H22   S    
C24   C25   S    
C15   N1    A    
C12   O4    A    
C19   H7    S    
O5    Zn1   S    
C25   C26   S    
C1    C6    S    
C30   H23   S    
C29   H19   S    
C4    C22   S    
C1    O2    A    
C31   C32   S    
C17   C18   S    
C2    C26   S    
C20   O6    A    
C25   H9    S    
C14   N1    A    
C26   H10   S    
C2    C24   S    
C32   H28   S    
C3    C4    S    
C16   N2    A    
C13   Br2   S    
C28   C29   S    
C29   H21   S    
C14   C19   S    
C12   O3    A    
C2    O10   S    
C4    C26   S    
C6    C7    A    
C27   C28   S    
C30   C31   S    
C2    C3    S    
C16   O9    S    
C5    C10   A    
C11   C13   S    
O1    Zn1   S    
C7    H12   S    
C27   H16   S    
C11   H14   S    
C20   O5    A    
C10   C11   S    
O6    Zn2   S    
C3    H11   S    
C21   C24   S    
C22   C23   S    
C31   H25   S    
C18   H5    S    
