data_mof_unit_25875.cif
_audit_creation_date              2012-12-10T20:34:10-0500
_audit_creation_method            fapswitch 2.2
_symmetry_space_group_name_H-M    P1
_symmetry_Int_Tables_number       1
_space_group_crystal_system       triclinic
_cell_length_a                    9.873253
_cell_length_b                    10.681899
_cell_length_c                    13.653975
_cell_angle_alpha                 90.262124
_cell_angle_beta                  84.099126
_cell_angle_gamma                 89.844858
_cell_volume                      1432.36512437

loop_
_atom_site_label
_atom_site_type_symbol
_atom_type_description
_atom_site_fract_x
_atom_site_fract_y
_atom_site_fract_z
_atom_type_partial_charge
C1    C     C_R   0.500888 0.740052 0.494951 0.878837
C2    C     C_1   0.461469 0.507263 0.788486 -0.196856
C3    C     C_R   0.380537 0.936566 0.482259 0.111760
C4    C     C_R   0.503556 0.871433 0.476056 -0.115097
C5    C     C_R   0.626703 0.936135 0.449340 0.077010
C6    C     C_R   0.624752 0.066247 0.451181 -0.271233
C7    C     C_R   0.501938 0.129059 0.478355 -0.133878
C8    C     C_R   0.379719 0.064150 0.483094 0.130510
C9    C     C_3   0.257683 0.071344 0.557283 -0.465289
C10   C     C_3   0.258602 0.929492 0.556597 -0.492332
C11   C     C_R   0.923055 0.596209 0.542616 0.038753
C12   C     C_R   0.476853 0.500986 0.685427 0.910064
C13   C     C_R   0.935309 0.413122 0.447112 0.567582
C14   C     C_R   0.079791 0.411762 0.449374 -0.229051
C15   C     C_R   0.065317 0.596728 0.541817 0.116761
C16   C     C_3   0.058043 0.639122 0.646272 -0.549493
C17   C     C_3   0.903614 0.639578 0.647398 0.369323
C18   C     C_R   0.500564 0.260049 0.496298 0.884238
C19   C     C_R   0.523019 0.497346 0.314618 0.890196
C20   C     C_1   0.536720 0.477888 0.212531 -0.182264
C21   C     C_2   0.533480 0.442388 0.024383 -0.019621
C22   C     C_2   0.449317 0.518842 0.980510 0.532941
C23   C     C_1   0.452219 0.513146 0.875732 -0.174356
C24   C     C_1   0.540334 0.459236 0.126576 0.082719
H1    H     H_    0.140599 0.338174 0.411991 0.159612
H2    H     H_    0.097834 0.567636 0.695031 0.235241
H3    H     H_    0.100256 0.734227 0.654042 0.152293
H4    H     H_    0.855164 0.734188 0.653828 0.062658
H5    H     H_    0.719805 0.116575 0.437589 0.218798
H6    H     H_    0.280750 0.112673 0.628604 0.202549
H7    H     H_    0.167933 0.112233 0.525968 0.210113
H8    H     H_    0.282564 0.888458 0.627548 0.195613
H9    H     H_    0.169173 0.888614 0.524940 0.205825
N1    N     N_R   0.857130 0.500860 0.500650 -0.121926
N2    N     N_R   0.142770 0.500820 0.500650 -0.105913
O1    O     O_R   0.385310 0.683210 0.499990 -0.614275
O2    O     O_R   0.614650 0.683240 0.500000 -0.605008
O3    O     O_R   0.368820 0.499950 0.640340 -0.620721
O4    O     O_R   0.598170 0.499990 0.640350 -0.555553
O5    O     O_R   0.385350 0.316760 0.500000 -0.626721
O6    O     O_R   0.614690 0.316790 0.500010 -0.568757
O7    O     O_R   0.401830 0.500010 0.359650 -0.604393
O8    O     O_R   0.631180 0.500050 0.359660 -0.602825
Zn1   Zn    Zn3+2 0.346870 0.499980 0.499990 0.951784
Zn2   Zn    Zn3+2 0.653130 0.500020 0.500010 1.019737
O9    O     O_3   0.373328 0.608909 0.037706 -0.606449
C25   C     C_3   0.271685 0.665931 0.987333 -0.302111
H10   H     H_    0.202862 0.594866 0.959223 0.160702
H11   H     H_    0.317980 0.725942 0.926563 0.167901
H12   H     H_    0.208702 0.727286 0.039751 0.187299
O10   O     O_3   0.842081 0.546934 0.710366 -0.552317
C26   C     C_3   0.810067 0.599212 0.804890 -0.296042
H13   H     H_    0.730156 0.672717 0.803945 0.159747
H14   H     H_    0.902037 0.637674 0.834979 0.146171
H15   H     H_    0.768809 0.524484 0.855129 0.184858
N3    N     N_3   0.612697 0.342158 0.975587 -0.478961
H16   H     H_    0.715469 0.366162 0.973582 0.177888
H17   H     H_    0.591036 0.327051 0.903285 0.196303
N4    N     N_3   0.753652 0.871787 0.426022 -0.430310
H18   H     H_    0.820660 0.900274 0.476289 0.176012
H19   H     H_    0.794458 0.899627 0.355828 0.183475
O11   O     O_3   0.871440 0.320488 0.398187 -0.601568
C27   C     C_3   0.909651 0.330119 0.296114 -0.341522
H20   H     H_    0.841791 0.269070 0.257079 0.193953
H21   H     H_    0.015693 0.296589 0.276731 0.155726
H22   H     H_    0.897362 0.427349 0.269021 0.169894

loop_
_geom_bond_atom_site_label_1
_geom_bond_atom_site_label_2
_ccdc_geom_bond_type
C21   N3    S    
C19   O7    A    
O3    Zn1   S    
C6    C7    A    
C13   C14   A    
C10   H9    S    
C9    C10   S    
C19   C20   S    
C26   H15   S    
C1    O2    A    
O4    Zn2   S    
C1    C4    S    
C2    C12   S    
C7    C18   S    
C16   H3    S    
C27   H21   S    
C27   H22   S    
C26   H14   S    
N4    H18   S    
C25   H11   S    
N1    Zn2   S    
O6    Zn2   S    
C21   C22   D    
N3    H16   S    
C12   O3    A    
N2    Zn1   S    
O8    Zn2   S    
C17   O10   S    
O11   C27   S    
O7    Zn1   S    
C9    H6    S    
C12   O4    A    
C13   O11   S    
C15   N2    A    
C22   O9    S    
N3    H17   S    
C25   H12   S    
C14   H1    S    
C16   H2    S    
C5    C6    A    
C20   C24   T    
C16   C17   S    
N4    H19   S    
O1    Zn1   S    
C5    N4    S    
O2    Zn2   S    
C15   C16   S    
C25   H10   S    
C10   H8    S    
O5    Zn1   S    
C6    H5    S    
O10   C26   S    
C26   H13   S    
C18   O6    A    
C3    C8    A    
C21   C24   S    
C2    C23   T    
C3    C10   S    
C7    C8    A    
C9    H7    S    
C22   C23   S    
C8    C9    S    
C13   N1    A    
C18   O5    A    
O9    C25   S    
C17   H4    S    
C11   C15   A    
C14   N2    A    
C11   N1    A    
C11   C17   S    
C3    C4    A    
C27   H20   S    
C1    O1    A    
C19   O8    A    
C4    C5    A    
