data_mof_unit_15667.cif
_audit_creation_date              2013-03-05T16:12:46-0500
_audit_creation_method            fapswitch 2.2
_symmetry_space_group_name_H-M    P1
_symmetry_Int_Tables_number       1
_space_group_crystal_system       triclinic
_cell_length_a                    10.706473
_cell_length_b                    9.906275
_cell_length_c                    27.74084
_cell_angle_alpha                 88.728609
_cell_angle_beta                  91.235694
_cell_angle_gamma                 89.602767
_cell_volume                      2940.73935096

loop_
_atom_site_label
_atom_site_type_symbol
_atom_site_description
_atom_site_fract_x
_atom_site_fract_y
_atom_site_fract_z
_atom_type_partial_charge
O1    O     O_R   0.316770 0.614620 0.500000 -0.642202
O2    O     O_R   0.683230 0.385380 0.500000 -0.642024
O3    O     O_R   0.683230 0.614620 0.500000 -0.603621
O4    O     O_R   0.316770 0.385380 0.500000 -0.603290
C1    C     C_R   0.260090 0.500286 0.499887 0.873985
C2    C     C_R   0.739911 0.499723 0.500079 0.873888
O5    O     O_R   0.500030 0.614650 0.428760 -0.637233
O6    O     O_R   0.499970 0.385350 0.571240 -0.638008
O7    O     O_R   0.499970 0.614650 0.571240 -0.600136
O8    O     O_R   0.500030 0.385350 0.428760 -0.600961
C3    C     C_R   0.499891 0.501383 0.406083 0.883179
C4    C     C_R   0.500310 0.498636 0.593919 0.883547
Zn1   Zn    Zn3+2 0.500000 0.653120 0.500000 0.956869
Zn2   Zn    Zn3+2 0.500000 0.346880 0.500000 0.956909
C5    C     C_R   0.387688 0.522614 0.176581 0.512467
C6    C     C_R   0.620889 0.497227 0.822964 0.514020
O9    O     O_2   0.281449 0.535526 0.201383 -0.539012
O10   O     O_2   0.726663 0.507234 0.797626 -0.539076
N1    N     N_R   0.498577 0.510338 0.201508 -0.357180
N2    N     N_R   0.509651 0.484727 0.798583 -0.356932
C7    C     C_R   0.609529 0.495929 0.179076 0.518085
C8    C     C_R   0.399367 0.471049 0.821633 0.516805
C9    C     C_R   0.504883 0.631734 0.277743 0.052539
C10   C     C_R   0.509162 0.614165 0.722107 0.046063
C11   C     C_R   0.505533 0.628610 0.327966 -0.252565
C12   C     C_R   0.506277 0.616732 0.671906 -0.243635
C13   C     C_R   0.493195 0.383712 0.328061 -0.203296
C14   C     C_R   0.500499 0.371515 0.672101 -0.213274
C15   C     C_R   0.492593 0.386658 0.278033 -0.112489
C16   C     C_R   0.503558 0.368741 0.722164 -0.101369
C17   C     C_R   0.498377 0.510055 0.252870 0.281739
C18   C     C_R   0.508066 0.489478 0.747182 0.279399
C19   C     C_R   0.499674 0.504770 0.101788 -0.060884
C20   C     C_R   0.510020 0.487487 0.898366 -0.060715
C21   C     C_R   0.384933 0.520643 0.125676 -0.065546
C22   C     C_R   0.624362 0.499694 0.873870 -0.065352
C23   C     C_R   0.273145 0.534390 0.097786 0.008502
C24   C     C_R   0.736287 0.515977 0.901132 0.008281
C25   C     C_R   0.612393 0.492990 0.128896 -0.017859
C26   C     C_R   0.397255 0.472240 0.871841 -0.017436
C27   C     C_R   0.499545 0.504638 0.353377 -0.055345
C28   C     C_R   0.502127 0.495517 0.646636 -0.055861
H1    H     H_    0.488676 0.286897 0.346812 0.163239
H2    H     H_    0.496689 0.276727 0.653460 0.159418
H3    H     H_    0.487772 0.293056 0.258652 0.148229
H4    H     H_    0.502220 0.272838 0.741659 0.149999
C29   C     C_R   0.391512 0.487395 0.973129 0.056657
C30   C     C_R   0.618642 0.492180 0.027301 0.056452
C31   C     C_R   0.621046 0.498749 0.976263 0.036209
C32   C     C_R   0.388965 0.503572 0.023678 0.036187
C33   C     C_R   0.507656 0.491067 0.949385 0.073345
C34   C     C_R   0.502343 0.500268 0.050792 0.073364
C35   C     C_R   0.281467 0.466012 0.945475 -0.214749
C36   C     C_R   0.728915 0.476254 0.055767 -0.214156
C37   C     C_R   0.284576 0.458647 0.895772 -0.124542
C38   C     C_R   0.725550 0.476732 0.105597 -0.123961
O11   O     O_2   0.291970 0.457848 0.795789 -0.541426
O12   O     O_2   0.716662 0.484423 0.205491 -0.541220
C39   C     C_R   0.276368 0.525580 0.047834 -0.255463
C40   C     C_R   0.733413 0.515168 0.951272 -0.254862
H5    H     H_    0.507199 0.713212 0.652702 0.162141
H6    H     H_    0.511201 0.722722 0.347055 0.157409
H7    H     H_    0.197648 0.442700 0.876103 0.202254
H8    H     H_    0.812588 0.463904 0.125858 0.202348
H9    H     H_    0.191498 0.450671 0.961363 0.143432
H10   H     H_    0.819339 0.458800 0.040630 0.143260
H11   H     H_    0.188974 0.541226 0.028300 0.138160
H12   H     H_    0.820897 0.532855 0.970059 0.137676
C41   C     C_R   0.064131 0.380949 0.489929 -0.171133
C42   C     C_R   0.935870 0.619136 0.509912 -0.171229
C43   C     C_R   0.936249 0.380582 0.489985 -0.196425
C44   C     C_R   0.063750 0.619519 0.509837 -0.196725
H13   H     H_    0.112836 0.288293 0.481948 0.155123
H14   H     H_    0.887171 0.711799 0.517890 0.155085
H15   H     H_    0.887800 0.287925 0.481803 0.152218
H16   H     H_    0.112205 0.712211 0.517976 0.152766
C45   C     C_R   0.872460 0.499644 0.500058 -0.014690
C46   C     C_R   0.127540 0.500413 0.499820 -0.014870
C47   C     C_R   0.580041 0.067329 0.529950 0.057087
C48   C     C_R   0.420360 0.932683 0.469886 0.056651
C49   C     C_R   0.421079 0.076156 0.469969 0.169589
C50   C     C_R   0.578824 0.923851 0.530069 0.169000
N3    N     N_R   0.500000 0.857200 0.500000 -0.112472
N4    N     N_R   0.500000 0.142800 0.500000 -0.112465
N5    N     N_3   0.668881 0.130020 0.561292 -0.479831
H17   H     H_    0.623542 0.193306 0.584757 0.225436
H18   H     H_    0.733996 0.182204 0.540863 0.217316
N6    N     N_3   0.333283 0.870005 0.437820 -0.479907
H19   H     H_    0.268648 0.815205 0.457557 0.219242
H20   H     H_    0.380445 0.809424 0.414003 0.224630
N7    N     N_3   0.339031 0.152684 0.438290 -0.390299
H21   H     H_    0.358713 0.127574 0.402834 0.179559
H22   H     H_    0.247328 0.123669 0.445130 0.171410
N8    N     N_3   0.660757 0.847314 0.561793 -0.389779
H23   H     H_    0.752536 0.875882 0.554874 0.171618
H24   H     H_    0.641282 0.872830 0.597228 0.180413
C51   C     C_1   0.152400 0.559277 0.118438 0.272149
N9    N     N_1   0.055623 0.579393 0.134758 -0.164363
C52   C     C_1   0.856799 0.536080 0.879565 0.272637
N10   N     N_1   0.953379 0.552404 0.862498 -0.163353
C53   C     C_1   0.512320 0.739672 0.747515 0.187427
N11   N     N_1   0.514869 0.840264 0.767933 -0.186775
C54   C     C_1   0.511386 0.759733 0.252117 0.190800
N12   N     N_1   0.516581 0.862347 0.231520 -0.186221

loop_
_geom_bond_atom_site_label_1
_geom_bond_atom_site_label_2
_geom_bond_distance
_ccdc_geom_bond_type
C43   H15   1.083452 S    
C53   N11   1.157293 T    
C50   N8    1.430637 S    
C13   C15   1.387348 A    
Zn2   N4    2.021673 S    
C44   H16   1.083526 S    
O3    C2    1.286092 A    
N1    C17   1.424797 S    
C8    O11   1.350529 S    
C23   C51   1.447059 S    
C51   N9    1.157422 T    
N5    H17   1.039204 S    
C19   C34   1.417258 A    
C30   C36   1.412108 A    
C20   C33   1.417291 A    
C19   C25   1.410879 A    
C31   C40   1.409999 A    
O1    C1    1.288691 A    
C32   C39   1.409788 A    
N1    C7    1.360958 A    
C12   H5    1.084039 S    
C10   C12   1.391964 A    
C47   N4    1.384370 A    
C10   C53   1.442979 S    
C14   C28   1.403793 A    
C41   C43   1.369224 A    
O7    Zn1   2.004351 S    
C4    C28   1.461742 S    
C39   H11   1.079625 S    
C5    N1    1.364312 A    
C9    C54   1.442702 S    
C25   C38   1.395400 A    
C31   C33   1.414333 A    
C37   H7    1.082972 S    
C42   H14   1.082033 S    
C32   C34   1.413969 A    
C38   H8    1.083059 S    
C41   H13   1.082036 S    
C35   H9    1.078232 S    
O3    Zn1   1.995880 S    
O6    C4    1.298675 A    
C29   C35   1.411816 A    
N5    H18   1.040902 S    
C42   C45   1.397972 A    
C41   C46   1.397942 A    
O2    C2    1.288756 A    
C48   N3    1.384471 A    
C5    C21   1.412382 A    
C29   C32   1.415757 A    
C35   C37   1.383446 A    
C36   C38   1.383678 A    
O8    Zn2   2.004356 S    
C11   C27   1.404955 A    
N7    H21   1.045363 S    
C24   C52   1.447047 S    
C2    C45   1.419137 S    
C29   C33   1.419982 A    
C14   H2    1.082575 S    
C15   H3    1.083104 S    
C9    C17   1.403528 A    
O5    C3    1.298477 A    
C10   C18   1.404315 A    
N7    H22   1.045043 S    
C13   C27   1.403310 A    
C52   N10   1.157395 T    
C7    C25   1.393957 A    
C30   C34   1.420347 A    
C6    N2    1.364619 A    
C26   C37   1.395371 A    
C8    C26   1.393791 A    
N8    H24   1.045373 S    
C23   C39   1.391539 A    
C24   C40   1.391793 A    
C6    O10   1.348753 S    
C30   C31   1.416683 A    
N6    H20   1.038956 S    
C20   C26   1.411040 A    
O1    Zn1   2.001071 S    
C43   C45   1.395477 A    
C49   N4    1.358540 A    
C12   C28   1.404290 A    
N2    C18   1.425387 S    
C5    O9    1.348775 S    
O6    Zn2   2.020956 S    
C21   C23   1.415173 A    
C16   H4    1.083030 S    
N2    C8    1.360999 A    
C48   C49   1.421417 A    
C47   C50   1.421416 A    
C36   H10   1.077933 S    
Zn1   N3    2.021673 S    
C14   C16   1.388119 A    
C7    O12   1.350494 S    
C15   C17   1.396585 A    
C6    C22   1.412626 A    
C16   C18   1.396687 A    
O4    C1    1.286136 A    
C22   C24   1.415265 A    
C19   C21   1.417773 A    
C47   N5    1.429259 S    
C3    C27   1.461665 S    
C20   C22   1.417511 A    
C11   H6    1.083780 S    
C9    C11   1.392751 A    
O4    Zn2   1.995880 S    
N8    H23   1.045012 S    
O2    Zn2   2.001071 S    
O7    C4    1.297849 A    
O8    C3    1.298011 A    
C49   N7    1.430583 S    
C13   H1    1.082741 S    
O5    Zn1   2.020962 S    
N6    H19   1.040059 S    
C40   H12   1.079306 S    
C48   N6    1.429236 S    
C50   N3    1.358585 A    
C44   C46   1.395481 A    
C54   N12   1.157266 T    
C42   C44   1.369223 A    
C1    C46   1.419093 S    
