data_mof_unit_19093.cif
_audit_creation_date              2013-03-05T16:06:02-0500
_audit_creation_method            fapswitch 2.2
_symmetry_space_group_name_H-M    P1
_symmetry_Int_Tables_number       1
_space_group_crystal_system       triclinic
_cell_length_a                    10.492784
_cell_length_b                    15.202823
_cell_length_c                    15.553934
_cell_angle_alpha                 81.660176
_cell_angle_beta                  92.030855
_cell_angle_gamma                 104.386952
_cell_volume                      2377.93734814

loop_
_atom_site_label
_atom_site_type_symbol
_atom_site_description
_atom_site_fract_x
_atom_site_fract_y
_atom_site_fract_z
_atom_type_partial_charge
O1    O     O_R   0.462600 0.383110 0.605620 -0.587472
O2    O     O_R   0.537400 0.616890 0.394380 -0.585670
O3    O     O_R   0.510210 0.531900 0.639510 -0.582541
O4    O     O_R   0.489790 0.468100 0.360490 -0.600513
C1    C     C_R   0.478987 0.442170 0.661564 0.933168
C2    C     C_R   0.516716 0.557861 0.338390 0.933987
O5    O     O_R   0.662240 0.425610 0.483080 -0.552600
O6    O     O_R   0.337760 0.574390 0.516920 -0.545653
O7    O     O_R   0.709860 0.574400 0.516970 -0.674726
O8    O     O_R   0.290140 0.425600 0.483030 -0.666777
C3    C     C_R   0.742258 0.501102 0.500467 0.859325
C4    C     C_R   0.257753 0.498908 0.499517 0.876822
Zn1   Zn    Zn3+2 0.468210 0.400660 0.477370 1.007305
Zn2   Zn    Zn3+2 0.531790 0.599340 0.522630 1.015845
C5    C     C_3   0.936318 0.434047 0.561586 -0.133449
C6    C     C_3   0.063746 0.565985 0.438402 -0.127677
C7    C     C_3   0.053007 0.514306 0.578167 -0.188875
C8    C     C_3   0.947054 0.485726 0.421820 -0.188792
H1    H     H_    0.100735 0.525526 0.641868 0.173334
H2    H     H_    0.899373 0.474504 0.358110 0.159696
H3    H     H_    0.880250 0.380727 0.612131 0.195112
H4    H     H_    0.119957 0.619309 0.387909 0.195189
C9    C     C_3   0.121605 0.497438 0.499217 -0.014080
C10   C     C_3   0.878437 0.502588 0.500771 -0.011070
C11   C     C_3   0.007557 0.417177 0.482630 -0.074831
C12   C     C_3   0.992498 0.582854 0.517357 -0.085582
H5    H     H_    0.017608 0.349728 0.468409 0.192447
H6    H     H_    0.982470 0.650311 0.531572 0.188929
C13   C     C_R   0.467667 0.407676 0.754415 -0.139258
C14   C     C_R   0.530550 0.592993 0.245803 -0.120362
C15   C     C_R   0.473969 0.288487 0.876248 0.451876
C16   C     C_R   0.623909 0.712346 0.127097 0.456148
C17   C     C_R   0.472972 0.317525 0.786261 -0.375775
C18   C     C_R   0.601352 0.682892 0.216470 -0.378046
C19   C     C_R   0.457425 0.467870 0.812159 0.371507
C20   C     C_R   0.477948 0.533529 0.186121 0.363851
C21   C     C_R   0.486550 0.446092 0.900157 -0.113229
C22   C     C_R   0.523861 0.555298 0.100253 -0.117964
C23   C     C_R   0.482414 0.353532 0.933539 0.076090
C24   C     C_R   0.586371 0.647686 0.068696 0.074367
C25   C     C_R   0.520706 0.514229 0.955391 0.092959
C26   C     C_R   0.510330 0.487196 0.045568 0.095236
C27   C     C_R   0.498045 0.393874 0.078890 -0.237624
C28   C     C_R   0.575383 0.607506 0.923327 -0.233673
C29   C     C_R   0.488612 0.328529 0.023461 -0.141506
C30   C     C_R   0.611670 0.672744 0.979626 -0.141507
H7    H     H_    0.484959 0.258411 0.051425 0.203660
H8    H     H_    0.658472 0.742779 0.952960 0.204319
H9    H     H_    0.638684 0.729946 0.262756 0.189819
H10   H     H_    0.475358 0.269689 0.741526 0.213843
H11   H     H_    0.504071 0.371493 0.147855 0.206660
H12   H     H_    0.598412 0.629878 0.855170 0.221401
N1    N     N_R   0.574200 0.731700 0.552740 -0.203885
N2    N     N_R   0.425800 0.268300 0.447260 -0.209939
C31   C     C_R   0.683770 0.840307 0.645128 -0.251184
C32   C     C_R   0.311908 0.158502 0.357148 -0.252364
C33   C     C_R   0.663903 0.755512 0.617498 0.525178
C34   C     C_R   0.331882 0.243152 0.385206 0.514570
C35   C     C_R   0.507098 0.792850 0.512358 0.316140
C36   C     C_R   0.495138 0.207722 0.485893 0.312825
C37   C     C_R   0.539671 0.885085 0.530800 -0.102380
C38   C     C_R   0.461945 0.115418 0.467890 -0.099689
C39   C     C_R   0.620471 0.904396 0.603646 0.029322
C40   C     C_R   0.378795 0.095525 0.396335 0.024374
C41   C     C_R   0.492035 0.957808 0.482596 0.110852
C42   C     C_R   0.510393 0.042998 0.515746 0.115488
C43   C     C_R   0.570592 0.051132 0.597461 -0.138675
C44   C     C_R   0.431512 0.949901 0.400902 -0.137465
C45   C     C_R   0.632234 0.985752 0.637655 -0.151886
C46   C     C_R   0.367719 0.014580 0.361757 -0.151648
H13   H     H_    0.685080 0.997360 0.697797 0.153986
H14   H     H_    0.313555 0.002755 0.302119 0.155210
H15   H     H_    0.748627 0.855615 0.699765 0.180173
H16   H     H_    0.244018 0.142378 0.304156 0.183737
H17   H     H_    0.569641 0.106799 0.632590 0.186101
H18   H     H_    0.433039 0.894798 0.365238 0.192230
N3    N     N_R   0.615938 0.242398 0.529247 0.211772
O9    O     O_R   0.615564 0.272560 0.603201 -0.440285
O10   O     O_R   0.726308 0.234939 0.499082 -0.412809
N4    N     N_R   0.388081 0.758522 0.466990 0.210519
O11   O     O_R   0.276268 0.764571 0.496107 -0.410719
O12   O     O_R   0.391472 0.730070 0.392449 -0.423001
O13   O     O_3   0.258132 0.300113 0.344717 -0.738879
H19   H     H_    0.290655 0.360693 0.362266 0.408314
O14   O     O_3   0.732136 0.696760 0.661767 -0.772274
H20   H     H_    0.708622 0.638747 0.638360 0.385281
O15   O     O_3   0.375897 0.458056 0.212112 -0.748738
H21   H     H_    0.319677 0.443073 0.161043 0.350344
O16   O     O_3   0.410205 0.543980 0.781869 -0.750287
H22   H     H_    0.364061 0.559333 0.830055 0.338696
O17   O     O_3   0.472809 0.198781 0.909000 -0.763983
H23   H     H_    0.467058 0.162790 0.860057 0.342654
O18   O     O_3   0.687458 0.801907 0.096352 -0.764329
H24   H     H_    0.706483 0.837643 0.145827 0.343007

loop_
_geom_bond_atom_site_label_1
_geom_bond_atom_site_label_2
_geom_bond_distance
_ccdc_geom_bond_type
O15   H21   0.991630 S    
O18   H24   0.991805 S    
C25   C26   1.403355 A    
C14   C18   1.402331 A    
N1    C35   1.370779 A    
N2    C36   1.371136 A    
O14   H20   0.974627 S    
O5    C3    1.300141 A    
C4    C9    1.423040 S    
C7    C9    1.528890 S    
C8    C10   1.528975 S    
C7    C12   1.544031 S    
C19   C21   1.401995 A    
C10   C12   1.526984 S    
C22   C26   1.410468 A    
C5    C11   1.544150 S    
C13   C17   1.402103 A    
C3    C10   1.423301 S    
C36   C38   1.425885 A    
O4    Zn1   1.944352 S    
C37   C39   1.411917 A    
C38   C40   1.410327 A    
C39   C45   1.390720 A    
C15   C23   1.409344 A    
C31   C39   1.384060 A    
O6    Zn2   1.977350 S    
C32   C40   1.383848 A    
C40   C46   1.390551 A    
C23   C29   1.398768 A    
C28   H12   1.081954 S    
C29   H7    1.083216 S    
C16   O18   1.381945 S    
C45   H13   1.084507 S    
O2    C2    1.314295 A    
C8    C11   1.544017 S    
C28   C30   1.391426 A    
C1    C13   1.461624 S    
N3    O10   1.301295 A    
C20   O15   1.382808 S    
C6    C12   1.544178 S    
C30   H8    1.083201 S    
C36   N3    1.431687 S    
C35   C37   1.427201 A    
C32   H16   1.084955 S    
C38   C42   1.427664 A    
N4    O12   1.299492 A    
O17   H23   0.991819 S    
N1    C33   1.378692 A    
C17   H10   1.081997 S    
N3    O9    1.299079 A    
C43   C45   1.381206 A    
C16   C18   1.406777 A    
C24   C30   1.399149 A    
O7    Zn2   2.004000 S    
O7    C3    1.304070 A    
O13   H19   0.974322 S    
O5    Zn1   1.977351 S    
O6    C4    1.300050 A    
C41   C44   1.407662 A    
C15   C17   1.405706 A    
C27   C29   1.390506 A    
O3    Zn2   1.944352 S    
O8    C4    1.304083 A    
C19   O16   1.384376 S    
O4    C2    1.318857 A    
C5    C10   1.528806 S    
C2    C14   1.460607 S    
C6    C9    1.528735 S    
C15   O17   1.382104 S    
C31   C33   1.382308 A    
C11   H5    1.110280 S    
C25   C28   1.414093 A    
O1    C1    1.316139 A    
C43   H17   1.074046 S    
C26   C27   1.413739 A    
C16   C24   1.409910 A    
Zn1   N2    2.068841 S    
N2    C34   1.378870 A    
C5    C7    1.543029 S    
C18   H9    1.083345 S    
C6    H4    1.110143 S    
N4    O11   1.301291 A    
O3    C1    1.317588 A    
O8    Zn1   2.003998 S    
C35   N4    1.431906 S    
C44   H18   1.073245 S    
C13   C19   1.396345 A    
C12   H6    1.110277 S    
C14   C20   1.393835 A    
C20   C22   1.401267 A    
C21   C23   1.418062 A    
C34   O13   1.373166 S    
C22   C24   1.417371 A    
C27   H11   1.081855 S    
C7    H1    1.110407 S    
C32   C34   1.383100 A    
C42   C43   1.406972 A    
C8    H2    1.110341 S    
C9    C11   1.526853 S    
C21   C25   1.411170 A    
O2    Zn2   1.974833 S    
C31   H15   1.084958 S    
C37   C41   1.428956 A    
C5    H3    1.110036 S    
Zn2   N1    2.068842 S    
O1    Zn1   1.974836 S    
C6    C8    1.543050 S    
C41   C42   1.429353 A    
C44   C46   1.382075 A    
C46   H14   1.084443 S    
O16   H22   0.991596 S    
C33   O14   1.374387 S    
