data_mof_unit_51677.cif
_audit_creation_date              2013-03-05T15:51:39-0500
_audit_creation_method            fapswitch 2.2
_symmetry_space_group_name_H-M    P1
_symmetry_Int_Tables_number       1
_space_group_crystal_system       triclinic
_cell_length_a                    10.630001
_cell_length_b                    10.793695
_cell_length_c                    9.588946
_cell_angle_alpha                 88.948775
_cell_angle_beta                  89.817013
_cell_angle_gamma                 92.90423
_cell_volume                      1098.59940242

loop_
_atom_site_label
_atom_site_type_symbol
_atom_site_description
_atom_site_fract_x
_atom_site_fract_y
_atom_site_fract_z
_atom_type_partial_charge
O1    O     O_R   0.499990 0.319640 0.618810 -0.564596
O2    O     O_R   0.500000 0.319660 0.381240 -0.529018
C1    C     C_R   0.495905 0.261676 0.501149 0.908535
O3    O     O_R   0.316850 0.499960 0.618770 -0.614620
O4    O     O_R   0.316860 0.499980 0.381190 -0.575929
C2    C     C_R   0.259555 0.499821 0.500267 0.785202
Cu1   Cu    Cu3+1 0.499990 0.499990 0.640660 0.960712
Cu2   Cu    Cu3+1 0.500010 0.500010 0.359340 1.025236
O5    O     O_R   0.500000 0.680340 0.618760 -0.625922
O6    O     O_R   0.500010 0.680360 0.381190 -0.547288
O7    O     O_R   0.683140 0.500020 0.618810 -0.577975
O8    O     O_R   0.683150 0.500040 0.381230 -0.595800
C3    C     C_R   0.484377 0.735829 0.498415 0.819120
C4    C     C_R   0.740409 0.499225 0.499839 0.856445
C5    C     C_3   0.041254 0.497372 0.633717 -0.210227
C6    C     C_3   0.955278 0.397927 0.565364 0.400504
H1    H     H_    0.076060 0.494916 0.742742 0.161198
C7    C     C_3   0.877074 0.497754 0.499667 -0.070783
C8    C     C_3   0.962608 0.599499 0.565906 -0.247504
C9    C     C_3   0.047022 0.601721 0.433740 -0.132616
C10   C     C_3   0.959791 0.499784 0.367513 -0.166644
C11   C     C_3   0.038462 0.397232 0.434529 -0.196261
C12   C     C_3   0.122928 0.499337 0.501032 -0.038722
H2    H     H_    0.929143 0.682260 0.619133 0.154246
H3    H     H_    0.088384 0.686037 0.379495 0.178640
H4    H     H_    0.924463 0.501254 0.258673 0.174132
H5    H     H_    0.071587 0.313758 0.382441 0.166077
C13   C     C_R   0.330458 0.119440 0.702742 -0.100023
H6    H     H_    0.317791 0.217749 0.698509 0.137760
C14   C     C_R   0.263638 0.051803 0.806384 -0.029450
H7    H     H_    0.208201 0.099331 0.881608 0.162402
C15   C     C_R   0.264827 0.923235 0.810871 -0.121533
H8    H     H_    0.210537 0.870924 0.889739 0.164029
C16   C     C_R   0.330304 0.861380 0.709656 -0.152339
H9    H     H_    0.317988 0.761501 0.710418 0.166559
C17   C     C_R   0.401112 0.928117 0.605076 0.069354
C18   C     C_R   0.405083 0.059694 0.604174 0.039410
C19   C     C_R   0.481406 0.125986 0.502040 -0.282255
C20   C     C_R   0.532284 0.060727 0.390098 0.339025
C21   C     C_R   0.492510 0.937735 0.372836 0.351479
C22   C     C_R   0.457707 0.867897 0.492927 -0.284381
H10   H     H_    0.349811 0.366765 0.132516 0.141465
C23   C     C_R   0.675533 0.657004 0.140840 -0.065956
H11   H     H_    0.677318 0.670743 0.250155 0.189532
C24   C     C_R   0.765499 0.729551 0.067112 -0.129533
H12   H     H_    0.833518 0.788374 0.122127 0.175397
C25   C     C_R   0.764541 0.731164 0.923342 -0.195656
H13   H     H_    0.832100 0.790997 0.865955 0.162863
C26   C     C_R   0.674803 0.658872 0.852571 -0.136991
H14   H     H_    0.678613 0.671875 0.742644 0.195757
C27   C     C_R   0.586329 0.577504 0.923459 0.203382
C28   C     C_R   0.586499 0.577064 0.073110 0.213437
N1    N     N_R   0.501210 0.501210 0.147910 -0.195196
C29   C     C_R   0.417395 0.426878 0.075789 0.038310
H15   H     H_    0.349257 0.367572 0.874416 0.123346
C30   C     C_R   0.417384 0.426989 0.927901 -0.028987
N2    N     N_R   0.501250 0.501290 0.852040 -0.203072
N3    N     N_R   0.908412 0.284979 0.638096 0.132990
O9    O     O_R   0.987846 0.208253 0.688461 -0.382350
O10   O     O_R   0.788200 0.259611 0.652792 -0.317604
S1    S     S_3+6 0.422223 0.901052 0.209221 0.033184
O11   O     O_2   0.334957 0.787228 0.220402 -0.314217
O12   O     O_2   0.347124 0.008533 0.162515 -0.299291
O13   O     O_3   0.533225 0.880149 0.088358 -0.476847
H16   H     H_    0.486179 0.860348 0.001921 0.365565
S2    S     S_3+6 0.649058 0.125120 0.272574 0.073147
O14   O     O_2   0.586240 0.184580 0.150013 -0.239344
O15   O     O_2   0.733362 0.220187 0.343776 -0.283627
O16   O     O_3   0.737705 0.011526 0.215705 -0.516007
H17   H     H_    0.789638 0.050195 0.139068 0.380128

loop_
_geom_bond_atom_site_label_1
_geom_bond_atom_site_label_2
_geom_bond_distance
_ccdc_geom_bond_type
Cu2   N1    2.027190 S    
C8    C9    1.549624 S    
S1    O13   1.677553 S    
S2    O15   1.502872 D    
C23   H11   1.061436 S    
C21   C22   1.402963 A    
C18   C19   1.428196 A    
C27   N2    1.383073 A    
O4    Cu2   1.957444 S    
C7    C10   1.539272 S    
C4    C7    1.453629 S    
C25   H13   1.083087 S    
C9    C12   1.534991 S    
C14   H7    1.082709 S    
Cu2   O8    1.958712 S    
C15   H8    1.082726 S    
C9    C10   1.549105 S    
H15   C30   1.079889 S    
C5    C12   1.537229 S    
O2    C1    1.298524 A    
Cu1   Cu2   2.697558 S    
C25   C26   1.388339 A    
C6    N3    1.458049 S    
C24   H12   1.082775 S    
H10   C29   1.081814 S    
C5    C8    1.551580 S    
C23   C24   1.388184 A    
C17   C22   1.414927 A    
S1    O11   1.503488 D    
C13   C18   1.417004 A    
S1    O12   1.503592 D    
O3    Cu1   1.958713 S    
O4    C2    1.292364 A    
O13   H16   0.990495 S    
C3    C22   1.467487 S    
C13   H6    1.076419 S    
C20   S2    1.780104 S    
C10   H4    1.110413 S    
O8    C4    1.291778 A    
Cu1   O7    1.957443 S    
C16   C17   1.415908 A    
C11   H5    1.110318 S    
C24   C25   1.378465 A    
N1    C29   1.366614 A    
O16   H17   0.990867 S    
C16   H9    1.079272 S    
O7    C4    1.291728 A    
C29   C30   1.418068 A    
C23   C28   1.415544 A    
S2    O16   1.681358 S    
C9    H3    1.110288 S    
C2    C12   1.452080 S    
N3    O10   1.299895 A    
C27   C28   1.434921 A    
C14   C15   1.388302 A    
Cu1   O5    1.954096 S    
C20   C21   1.385690 A    
C19   C20   1.415456 A    
C30   N2    1.367142 A    
C6    C7    1.522549 S    
C26   H14   1.061204 S    
C26   C27   1.417103 A    
S2    O14   1.503239 D    
C5    H1    1.110385 S    
C7    C8    1.537618 S    
O5    C3    1.305340 A    
C11   C12   1.535121 S    
C17   C18   1.418557 A    
C6    C11   1.532912 S    
O1    Cu1   1.961704 S    
N3    O9    1.300326 A    
C10   C11   1.551991 S    
O3    C2    1.290954 A    
C8    H2    1.110313 S    
Cu1   N2    2.027301 S    
Cu2   O6    1.961704 S    
O2    Cu2   1.954099 S    
C21   S1    1.782346 S    
C5    C6    1.532072 S    
C1    C19   1.464760 S    
C28   N1    1.380525 A    
C13   C14   1.393377 A    
O1    C1    1.299892 A    
O6    C3    1.297372 A    
C15   C16   1.392366 A    
