data_mof_unit_7159.cif
_audit_creation_date              2012-12-10T17:31:23-0500
_audit_creation_method            fapswitch 2.2
_symmetry_space_group_name_H-M    P1
_symmetry_Int_Tables_number       1
_space_group_crystal_system       triclinic
_cell_length_a                    19.180586
_cell_length_b                    18.596322
_cell_length_c                    12.370048
_cell_angle_alpha                 90.007618
_cell_angle_beta                  129.378744
_cell_angle_gamma                 90.498996
_cell_volume                      3410.31331924

loop_
_atom_site_label
_atom_site_type_symbol
_atom_type_description
_atom_site_fract_x
_atom_site_fract_y
_atom_site_fract_z
_atom_type_partial_charge
C1    C     C_R   0.608716 0.896100 0.648944 0.847975
C2    C     C_R   0.612129 0.102389 0.652905 0.846545
C3    C     C_R   0.108716 0.396100 0.648944 0.847975
C4    C     C_R   0.112129 0.602389 0.652905 0.846545
C5    C     C_R   0.236846 0.782956 0.027242 0.097583
C6    C     C_R   0.250049 0.231289 0.050694 0.091995
C7    C     C_R   0.736846 0.282956 0.027242 0.097583
C8    C     C_R   0.750050 0.731289 0.050695 0.091996
C9    C     C_R   0.663610 0.270751 0.026433 0.174944
C10   C     C_R   0.687536 0.753520 0.068837 0.167773
C11   C     C_R   0.163609 0.770752 0.026432 0.174945
C12   C     C_R   0.187536 0.253519 0.068836 0.167775
C13   C     C_R   0.588389 0.232907 0.916405 -0.240332
C14   C     C_R   0.612979 0.792886 0.965096 -0.247254
C15   C     C_R   0.088389 0.732908 0.916405 -0.240333
C16   C     C_R   0.112978 0.292886 0.965095 -0.247253
C17   C     C_R   0.586999 0.203118 0.812337 -0.144232
C18   C     C_R   0.600543 0.810768 0.845396 -0.134203
C19   C     C_R   0.086999 0.703118 0.812336 -0.144232
C20   C     C_R   0.100543 0.310768 0.845395 -0.134203
C21   C     C_R   0.314091 0.817110 0.144463 -0.264827
C22   C     C_R   0.309915 0.176930 0.137761 -0.250403
C23   C     C_R   0.814091 0.317110 0.144463 -0.264827
C24   C     C_R   0.809915 0.676930 0.137761 -0.250403
C25   C     C_R   0.239752 0.838006 0.242512 -0.198842
C26   C     C_R   0.263144 0.182657 0.278871 -0.195627
C27   C     C_R   0.739752 0.338006 0.242512 -0.198842
C28   C     C_R   0.763144 0.682658 0.278872 -0.195626
C29   C     C_R   0.672824 0.165310 0.733480 -0.188270
C30   C     C_R   0.666060 0.832708 0.727461 -0.195688
C31   C     C_R   0.172824 0.665310 0.733480 -0.188269
C32   C     C_R   0.166060 0.332708 0.727461 -0.195688
C33   C     C_R   0.684845 0.986467 0.289698 0.057664
C34   C     C_R   0.184845 0.486466 0.289698 0.057663
C35   C     C_R   0.344252 0.995152 0.625712 0.050899
C36   C     C_R   0.844252 0.495152 0.625712 0.050898
C37   C     C_R   0.310147 0.990486 0.696157 -0.304308
C38   C     C_R   0.810147 0.490486 0.696157 -0.304304
C39   C     C_R   0.385300 0.099093 0.343546 0.789143
C40   C     C_R   0.385302 0.900332 0.343700 0.784642
C41   C     C_R   0.885300 0.599093 0.343546 0.789143
C42   C     C_R   0.885302 0.400332 0.343700 0.784642
C43   C     C_R   0.368547 0.992375 0.841580 -0.064475
C44   C     C_R   0.868547 0.492375 0.841580 -0.064476
C45   C     C_R   0.463155 0.998852 0.920687 0.031511
C46   C     C_R   0.963155 0.498852 0.920687 0.031510
C47   C     C_R   0.494646 0.000214 0.842727 0.253189
C48   C     C_R   0.994646 0.500214 0.842727 0.253188
C49   C     C_R   0.527629 0.999778 0.072574 -0.082239
C50   C     C_R   0.027629 0.499777 0.072574 -0.082239
C51   C     C_R   0.621182 0.992943 0.141505 0.065554
C52   C     C_R   0.121182 0.492942 0.141505 0.065556
C53   C     C_R   0.649275 0.994097 0.061140 -0.243047
C54   C     C_R   0.149275 0.494097 0.061140 -0.243044
C55   C     C_R   0.588009 0.999490 0.916816 -0.177194
C56   C     C_R   0.088009 0.499489 0.916816 -0.177194
C57   C     C_R   0.503372 0.007424 0.159299 0.549262
C58   C     C_R   0.003372 0.507424 0.159299 0.549263
C59   C     C_R   0.654263 0.989197 0.366428 0.016931
C60   C     C_R   0.154263 0.489197 0.366428 0.016929
C61   C     C_R   0.665790 0.297682 0.134499 -0.193733
C62   C     C_R   0.696112 0.730872 0.184838 -0.209741
C63   C     C_R   0.165790 0.797683 0.134498 -0.193732
C64   C     C_R   0.196111 0.230872 0.184837 -0.209742
C65   C     C_R   0.313480 0.849009 0.245985 -0.055880
C66   C     C_R   0.318889 0.154132 0.253419 -0.061028
C67   C     C_R   0.813480 0.349009 0.245986 -0.055880
C68   C     C_R   0.818890 0.654132 0.253420 -0.061029
C69   C     C_R   0.744700 0.180495 0.731445 0.320238
C70   C     C_R   0.722885 0.806460 0.700759 0.324373
C71   C     C_R   0.244700 0.680495 0.731445 0.320236
C72   C     C_R   0.222885 0.306460 0.700759 0.324373
C73   C     C_R   0.299081 0.742997 0.800010 0.085043
C74   C     C_R   0.292503 0.258452 0.795728 0.094241
C75   C     C_R   0.799081 0.242998 0.800009 0.085042
C76   C     C_R   0.792503 0.758452 0.795727 0.094241
C77   C     C_R   0.291349 0.782139 0.889292 0.303703
C78   C     C_R   0.312459 0.246472 0.924665 0.299309
C79   C     C_R   0.791349 0.282139 0.889292 0.303702
C80   C     C_R   0.812459 0.746472 0.924665 0.299309
C81   C     C_R   0.732238 0.257570 0.914216 -0.062936
C82   C     C_R   0.745528 0.759548 0.939182 -0.064539
C83   C     C_R   0.232238 0.757570 0.914216 -0.062936
C84   C     C_R   0.245527 0.259547 0.939182 -0.064539
C85   C     C_R   0.663242 0.207920 0.818740 -0.038735
C86   C     C_R   0.669839 0.801330 0.836075 -0.035535
C87   C     C_R   0.163242 0.707920 0.818740 -0.038735
C88   C     C_R   0.169839 0.301330 0.836074 -0.035535
Cu1   Cu    Cu3+1 0.526340 1.000000 0.421010 0.998455
Cu2   Cu    Cu3+1 0.026340 0.500000 0.421010 0.998455
Cu3   Cu    Cu3+1 0.473640 0.000000 0.578990 0.898582
Cu4   Cu    Cu3+1 0.973640 0.500000 0.578990 0.898582
H1    H     H_    0.238283 0.861881 0.320915 0.154476
H2    H     H_    0.268591 0.165335 0.367422 0.157341
H3    H     H_    0.738283 0.361881 0.320916 0.154476
H4    H     H_    0.768592 0.665335 0.367423 0.157341
H5    H     H_    0.719689 0.991592 0.108498 0.162664
H6    H     H_    0.219689 0.491592 0.108498 0.162662
H7    H     H_    0.298629 0.993721 0.512633 0.135863
H8    H     H_    0.798629 0.493721 0.512633 0.135864
H9    H     H_    0.336504 0.985089 0.886838 0.197742
H10   H     H_    0.836504 0.485090 0.886838 0.197743
H11   H     H_    0.238141 0.984890 0.637912 0.146699
H12   H     H_    0.738141 0.484889 0.637913 0.146699
H13   H     H_    0.617259 0.000860 0.866996 0.211513
H14   H     H_    0.117259 0.500860 0.866996 0.211513
H15   H     H_    0.531506 0.224937 0.913180 0.143059
H16   H     H_    0.561260 0.805867 0.972585 0.141427
H17   H     H_    0.031506 0.724938 0.913179 0.143059
H18   H     H_    0.061260 0.305866 0.972584 0.141426
H19   H     H_    0.609266 0.289282 0.133215 0.158167
H20   H     H_    0.649733 0.749139 0.200873 0.150200
H21   H     H_    0.109265 0.789283 0.133215 0.158166
H22   H     H_    0.149731 0.249138 0.200871 0.150199
H23   H     H_    0.375339 0.820083 0.157493 0.205491
H24   H     H_    0.347052 0.149173 0.112633 0.248625
H25   H     H_    0.875339 0.320083 0.157492 0.205491
H26   H     H_    0.847051 0.649173 0.112633 0.248624
H27   H     H_    0.524157 0.178418 0.725927 0.178288
H28   H     H_    0.534420 0.829964 0.759814 0.179138
H29   H     H_    0.024157 0.678418 0.725926 0.178288
H30   H     H_    0.034419 0.329964 0.759813 0.179138
H31   H     H_    0.701009 0.983175 0.478915 0.172843
H32   H     H_    0.201009 0.483174 0.478915 0.172844
N1    N     N_R   0.566260 0.000000 0.302220 -0.228876
N2    N     N_R   0.066260 0.500000 0.302220 -0.228876
N3    N     N_R   0.434410 0.000000 0.697680 -0.209850
N4    N     N_R   0.934410 0.500000 0.697680 -0.209850
O1    O     O_R   0.608610 0.924520 0.551740 -0.519230
O2    O     O_R   0.608610 0.075480 0.551740 -0.507544
O3    O     O_R   0.108610 0.424520 0.551740 -0.519230
O4    O     O_R   0.108610 0.575480 0.551740 -0.507544
O5    O     O_R   0.564110 0.924510 0.685150 -0.627296
O6    O     O_R   0.564110 0.075490 0.685150 -0.625063
O7    O     O_R   0.064110 0.424510 0.685150 -0.627296
O8    O     O_R   0.064110 0.575490 0.685150 -0.625063
O9    O     O_R   0.435880 0.075470 0.314850 -0.555481
O10   O     O_R   0.435880 0.924530 0.314850 -0.603691
O11   O     O_R   0.935880 0.575470 0.314850 -0.555481
O12   O     O_R   0.935880 0.424530 0.314850 -0.603692
O13   O     O_R   0.391380 0.075460 0.448260 -0.604738
O14   O     O_R   0.391380 0.924540 0.448260 -0.599755
O15   O     O_R   0.891380 0.575460 0.448260 -0.604738
O16   O     O_R   0.891380 0.424540 0.448260 -0.599755
C89   C     C_3   0.784937 0.975200 0.369899 -0.411147
C90   C     C_3   0.804084 0.897996 0.354167 -0.809726
H33   H     H_    0.779737 0.859724 0.393011 0.256761
H34   H     H_    0.770586 0.885007 0.243377 0.260093
H35   H     H_    0.877868 0.891039 0.416535 0.237624
H36   H     H_    0.812009 0.014110 0.336393 0.202324
H37   H     H_    0.823410 0.985873 0.483370 0.198220
C91   C     C_3   0.284937 0.475198 0.369899 -0.411147
C92   C     C_3   0.304082 0.397993 0.354165 -0.809723
H38   H     H_    0.279726 0.359722 0.392996 0.256764
H39   H     H_    0.270591 0.385007 0.243376 0.260091
H40   H     H_    0.377867 0.391034 0.416544 0.237623
H41   H     H_    0.312010 0.514108 0.336394 0.202324
H42   H     H_    0.323409 0.485870 0.483370 0.198220
O17   O     O_3   0.418837 0.030611 0.101553 -0.750641
H43   H     H_    0.393102 0.995266 0.127305 0.341005
O18   O     O_3   0.918837 0.530611 0.101553 -0.750641
H44   H     H_    0.893102 0.495266 0.127305 0.341005
O19   O     O_3   0.757810 0.134782 0.657619 -0.723719
H45   H     H_    0.820434 0.139237 0.692770 0.320355
O20   O     O_3   0.709340 0.829093 0.582224 -0.721420
H46   H     H_    0.767221 0.829036 0.599537 0.318851
O21   O     O_3   0.257810 0.634781 0.657620 -0.723720
H47   H     H_    0.320435 0.639236 0.692770 0.320355
O22   O     O_3   0.209340 0.329093 0.582224 -0.721421
H48   H     H_    0.267221 0.329036 0.599537 0.318852
O23   O     O_3   0.335113 0.847843 0.938999 -0.775204
H49   H     H_    0.296596 0.880662 0.943615 0.317199
O24   O     O_3   0.399958 0.228311 0.035947 -0.749635
H50   H     H_    0.416225 0.253129 0.120313 0.324882
O25   O     O_3   0.835112 0.347844 0.938999 -0.775204
H51   H     H_    0.796595 0.380662 0.943614 0.317199
O26   O     O_3   0.899958 0.728311 0.035947 -0.749635
H52   H     H_    0.916225 0.753129 0.120313 0.324882
C93   C     C_3   0.362013 0.770688 0.773212 -0.361127
C94   C     C_3   0.309630 0.794955 0.621976 -0.811505
H53   H     H_    0.273859 0.748994 0.548085 0.271462
H54   H     H_    0.259664 0.836331 0.595654 0.254389
H55   H     H_    0.357060 0.818762 0.608676 0.238062
H56   H     H_    0.402945 0.817482 0.841031 0.251642
H57   H     H_    0.412073 0.729401 0.799968 0.167529
C95   C     C_3   0.347979 0.221737 0.763713 -0.364421
C96   C     C_3   0.289725 0.173903 0.633528 -0.845189
H58   H     H_    0.251513 0.134152 0.645383 0.263249
H59   H     H_    0.241352 0.205668 0.537815 0.267000
H60   H     H_    0.333978 0.144943 0.619765 0.244580
H61   H     H_    0.384882 0.262291 0.750725 0.172228
H62   H     H_    0.398804 0.185977 0.850805 0.257781
C97   C     C_3   0.862012 0.270689 0.773211 -0.361127
C98   C     C_3   0.809629 0.294955 0.621974 -0.811509
H63   H     H_    0.773863 0.248993 0.548085 0.271461
H64   H     H_    0.759658 0.336327 0.595648 0.254389
H65   H     H_    0.857058 0.318766 0.608676 0.238064
H66   H     H_    0.902943 0.317483 0.841029 0.251642
H67   H     H_    0.912072 0.229402 0.799968 0.167529
C99   C     C_3   0.847979 0.721737 0.763713 -0.364420
C100  C     C_3   0.789725 0.673903 0.633528 -0.845189
H68   H     H_    0.751513 0.634152 0.645383 0.263249
H69   H     H_    0.741352 0.705668 0.537815 0.267000
H70   H     H_    0.833978 0.644943 0.619765 0.244580
H71   H     H_    0.884882 0.762291 0.750724 0.172228
H72   H     H_    0.898804 0.685977 0.850805 0.257781

loop_
_geom_bond_atom_site_label_1
_geom_bond_atom_site_label_2
_ccdc_geom_bond_type
C26   H2    S    
C98   H64   S    
O23   H49   S    
C39   O9    A    
C25   H1    S    
O20   H46   S    
C40   O14   A    
C100  H68   S    
C14   C18   A    
C53   C55   A    
C27   H3    S    
O19   H45   S    
C25   C63   A    
C13   H15   S    
C11   C63   A    
C39   C66   S    
Cu2   O11   S    
C16   H18   S    
C32   C72   A    
C10   C62   A    
O24   H50   S    
C15   C19   A    
C99   H71   S    
Cu3   N3    S    
C55   H13   S    
C2    C29   S    
C9    C61   A    
C28   C68   A    
C41   O15   A    
C1    O1    A    
C57   N1    A    
C12   C64   A    
C96   H59   S    
C1    O5    A    
C98   H65   S    
C77   C83   A    
C97   H66   S    
C6    C22   A    
Cu1   O1    S    
C48   C56   A    
O22   H48   S    
C23   C67   A    
C95   H61   S    
C60   H32   S    
Cu4   O15   S    
C9    C13   A    
C22   C66   A    
C96   H60   S    
C38   H12   S    
C27   C61   A    
C2    O2    A    
C11   C15   A    
C12   C16   A    
C94   H54   S    
C99   C100  S    
C49   C51   A    
C40   O10   A    
C78   O24   S    
C50   C52   A    
C30   C86   A    
C20   H30   S    
C89   H36   S    
C97   C98   S    
C94   H55   S    
C77   O23   S    
C4    O8    A    
Cu3   O14   S    
Cu2   O4    S    
C22   H24   S    
C98   H63   S    
C57   O17   S    
C18   C86   A    
C33   C59   A    
C71   O21   S    
C34   C60   A    
C100  H69   S    
Cu4   O8    S    
C35   H7    S    
Cu4   N4    S    
C6    C12   A    
C21   C65   A    
C30   C70   A    
C58   N2    A    
C52   C54   A    
C89   C90   S    
C41   C68   S    
C90   H34   S    
C45   C47   A    
C59   H31   S    
C46   C48   A    
C14   H16   S    
C31   C87   A    
C42   O12   A    
C26   C66   A    
C79   O25   S    
C6    C84   A    
C4    O4    A    
C10   C14   A    
C70   O20   S    
O21   H47   S    
C79   C81   A    
C44   H10   S    
Cu1   N1    S    
C44   C46   A    
C53   H5    S    
C17   C85   A    
C97   H67   S    
C24   C68   A    
Cu1   O2    S    
C51   C53   A    
C5    C21   A    
C84   C88   A    
C37   C43   A    
C43   H9    S    
C5    C83   A    
C38   C44   A    
C48   N4    A    
C90   H35   S    
Cu2   Cu4   S    
O17   H43   S    
Cu3   O5    S    
C45   C49   A    
C16   C20   A    
Cu2   N2    S    
C50   C58   A    
C25   C65   A    
C36   H8    S    
C2    O6    A    
C92   H40   S    
C35   N3    A    
C43   C45   A    
C56   H14   S    
C89   H37   S    
C60   N2    A    
C33   C89   S    
C91   H42   S    
C39   O13   A    
Cu2   O3    S    
C75   C97   S    
C72   C74   A    
C7    C81   A    
O26   H52   S    
Cu1   O9    S    
C40   C65   S    
C69   O19   S    
C76   C99   S    
C42   C67   S    
C100  H70   S    
C3    O3    A    
Cu4   O7    S    
C92   H39   S    
C70   C76   A    
C61   H19   S    
C18   H28   S    
C36   N4    A    
C94   H53   S    
C47   C55   A    
C90   H33   S    
C93   H56   S    
C7    C9    A    
C91   H41   S    
C19   H29   S    
C34   C91   S    
C35   C37   A    
C24   H26   S    
C54   H6    S    
C76   C80   A    
C73   C93   S    
C83   C87   A    
C23   H25   S    
C49   C57   A    
C37   H11   S    
C54   C56   A    
C5    C11   A    
C93   H57   S    
C26   C64   A    
C33   C51   A    
C46   C50   A    
C34   C52   A    
C21   H23   S    
C13   C17   A    
C28   H4    S    
C80   O26   S    
C36   C38   A    
C92   H38   S    
C19   C87   A    
C29   C85   A    
C96   H58   S    
O25   H51   S    
C82   C86   A    
C59   N1    A    
C72   O22   S    
C42   O16   A    
C15   H17   S    
Cu3   O6    S    
O18   H44   S    
C47   N3    A    
C7    C23   A    
C20   C88   A    
Cu1   Cu3   S    
C1    C30   S    
C8    C24   A    
C80   C82   A    
C69   C75   A    
C3    O7    A    
C95   H62   S    
C3    C32   S    
Cu4   O16   S    
C99   H72   S    
C41   O11   A    
C4    C31   S    
C27   C67   A    
C17   H27   S    
C93   C94   S    
C63   H21   S    
C78   C84   A    
C8    C82   A    
C62   H20   S    
C91   C92   S    
C64   H22   S    
C8    C10   A    
Cu1   O10   S    
C74   C78   A    
C71   C73   A    
C73   C77   A    
C29   C69   A    
Cu2   O12   S    
Cu3   O13   S    
C95   C96   S    
C58   O18   S    
C75   C79   A    
C81   C85   A    
C28   C62   A    
C31   C71   A    
C74   C95   S    
C32   C88   A    
