data_mof_unit_27943.cif
_audit_creation_date              2012-12-11T15:13:51-0500
_audit_creation_method            fapswitch 2.2
_symmetry_space_group_name_H-M    P1
_symmetry_Int_Tables_number       1
_space_group_crystal_system       triclinic
_cell_length_a                    6.945477
_cell_length_b                    13.467849
_cell_length_c                    20.150688
_cell_angle_alpha                 104.168329
_cell_angle_beta                  90.16155
_cell_angle_gamma                 90.539975
_cell_volume                      1827.46405412

loop_
_atom_site_label
_atom_site_type_symbol
_atom_type_description
_atom_site_fract_x
_atom_site_fract_y
_atom_site_fract_z
_atom_type_partial_charge
O1    O     O_R   0.506780 0.600060 0.449950 -0.538018
O2    O     O_R   0.179840 0.597110 0.589410 -0.543205
O3    O     O_R   0.004570 0.399940 0.550050 -0.538892
C1    C     C_R   0.348682 0.618948 0.616837 0.684749
O4    O     O_R   0.177380 0.612160 0.452890 -0.541187
O5    O     O_R   0.002100 0.415100 0.412560 -0.538990
C2    C     C_R   0.346492 0.639380 0.436712 0.693760
O6    O     O_R   0.509250 0.584900 0.587440 -0.541365
O7    O     O_3   0.337570 0.435330 0.486930 -0.369876
V1    V     V_3+5 0.064650 0.512000 0.502430 1.413515
O8    O     O_R   0.672090 0.402890 0.410590 -0.544722
C3    C     C_R   0.840139 0.380919 0.383087 0.681762
O9    O     O_R   0.674540 0.387840 0.547110 -0.541265
C4    C     C_R   0.842969 0.361070 0.563744 0.694404
V2    V     V_3+5 0.564040 0.488000 0.497570 1.412708
O10   O     O_3   0.840990 0.564670 0.513070 -0.369371
C5    C     C_R   0.860174 0.106204 0.607785 -0.162665
H1    H     H_    0.853026 0.155786 0.514408 0.101212
H2    H     H_    0.869883 0.979881 0.689996 0.118324
H3    H     H_    0.863244 0.025981 0.580920 0.112379
C6    C     C_R   0.850514 0.283464 0.603180 -0.030146
C7    C     C_R   0.858243 0.319595 0.932658 -0.176492
C8    C     C_R   0.854279 0.396549 0.897710 -0.108902
C9    C     C_R   0.854436 0.372226 0.826408 -0.163487
C10   C     C_R   0.857703 0.268970 0.787836 0.074941
C11   C     C_R   0.861952 0.190349 0.824110 0.071179
C12   C     C_R   0.857168 0.241132 0.714646 0.073792
C13   C     C_R   0.861375 0.135703 0.679635 0.146344
C14   C     C_R   0.866398 0.060328 0.716389 -0.217896
C15   C     C_R   0.866587 0.086995 0.787407 -0.206862
C16   C     C_R   0.852011 0.314110 0.674700 -0.219311
C17   C     C_R   0.854446 0.179721 0.569810 -0.177566
C18   C     C_R   0.862196 0.216858 0.896656 -0.069555
H4    H     H_    0.848126 0.395326 0.697247 0.087601
H5    H     H_    0.858793 0.340203 0.988133 0.099625
H6    H     H_    0.852534 0.436251 0.803271 0.101935
H7    H     H_    0.851579 0.475963 0.926120 0.139011
H8    H     H_    0.870332 0.025473 0.813339 0.115150
C19   C     C_3   0.779791 0.157850 0.250414 -0.100978
C20   C     C_3   0.955530 0.208140 0.293855 -0.149430
H9    H     H_    0.037074 0.174270 0.330240 0.109390
H10   H     H_    0.717019 0.081728 0.250309 0.144363
C21   C     C_3   0.847921 0.310580 0.312464 -0.023660
C22   C     C_3   0.671971 0.261062 0.269830 -0.099625
C23   C     C_3   0.757751 0.290965 0.206426 -0.149270
C24   C     C_3   0.933554 0.341219 0.249841 -0.162112
C25   C     C_3   0.041287 0.237982 0.230430 -0.096107
C26   C     C_3   0.865289 0.188552 0.187796 -0.002140
H11   H     H_    0.519486 0.270631 0.286347 0.113626
H12   H     H_    0.676285 0.324749 0.169985 0.102268
H13   H     H_    0.997100 0.417247 0.250028 0.105782
H14   H     H_    0.193736 0.228177 0.213895 0.137763
C27   C     C_3   0.538823 0.723942 0.730509 -0.186591
C28   C     C_3   0.458779 0.834520 0.750556 -0.161205
H15   H     H_    0.542624 0.905358 0.751260 0.114821
H16   H     H_    0.688954 0.702939 0.714581 0.112296
C29   C     C_3   0.357097 0.810194 0.812847 -0.008221
C30   C     C_3   0.435974 0.700781 0.792861 0.054308
C31   C     C_3   0.254038 0.663810 0.749432 -0.198862
C32   C     C_3   0.174587 0.774533 0.769447 -0.133311
C33   C     C_3   0.276091 0.798288 0.706527 -0.123294
C34   C     C_3   0.355961 0.688605 0.687453 -0.013374
H17   H     H_    0.170377 0.592896 0.748793 0.103862
H18   H     H_    0.024526 0.795512 0.785468 0.115569
H19   H     H_    0.210240 0.838429 0.670234 0.100435
C35   C     C_R   0.371644 0.894875 0.393955 -0.128937
H20   H     H_    0.367807 0.844363 0.486999 0.097841
H21   H     H_    0.380314 0.021899 0.312732 0.142549
H22   H     H_    0.379060 0.974961 0.421092 0.110447
C36   C     C_R   0.355989 0.717449 0.397796 -0.034731
C37   C     C_R   0.345317 0.682219 0.068852 -0.172527
C38   C     C_R   0.337523 0.605671 0.103911 -0.114832
C39   C     C_R   0.341605 0.630323 0.175088 -0.125633
C40   C     C_R   0.353130 0.733612 0.213552 0.016273
C41   C     C_R   0.360038 0.812542 0.177319 -0.049051
C42   C     C_R   0.357668 0.760849 0.286714 0.067969
C43   C     C_R   0.367671 0.865935 0.322093 0.055186
C44   C     C_R   0.373161 0.941667 0.285801 -0.286618
C45   C     C_R   0.369529 0.916275 0.214785 0.534205
C46   C     C_R   0.352388 0.687441 0.326332 -0.188828
C47   C     C_R   0.365478 0.820951 0.431582 -0.174041
C48   C     C_R   0.357038 0.785016 0.104516 -0.093306
H23   H     H_    0.344862 0.606298 0.303675 0.085631
H24   H     H_    0.341895 0.661154 0.013409 0.147032
H25   H     H_    0.334981 0.566284 0.198156 0.097002
H26   H     H_    0.328353 0.526254 0.075647 0.116566
O11   O     O_R   0.203580 0.914920 0.912610 -0.554086
O12   O     O_R   0.535710 0.887810 0.047120 -0.524996
O13   O     O_R   0.710730 0.084950 0.087430 -0.524980
C49   C     C_R   0.366723 0.861360 0.063990 0.855716
O14   O     O_R   0.533010 0.902850 0.910600 -0.531786
O15   O     O_R   0.708010 0.100090 0.949930 -0.547659
C50   C     C_R   0.364164 0.880812 0.883230 0.711393
O16   O     O_R   0.206300 0.899780 0.050100 -0.533381
O17   O     O_3   0.375170 0.064580 0.013100 -0.370615
V3    V     V_3+5 0.648200 0.988020 0.997570 1.514083
O18   O     O_R   0.038030 0.112330 0.952840 -0.547888
C51   C     C_R   0.869601 0.138756 0.936031 0.662075
O19   O     O_R   0.040730 0.097300 0.089360 -0.530870
C52   C     C_R   0.872780 0.118731 0.117024 0.699864
V4    V     V_3+5 0.148780 0.012220 0.002360 1.484323
O20   O     O_3   0.871930 0.935430 0.986900 -0.371038
C53   C     C_2   0.526345 0.641505 0.838495 0.296265
H27   H     H_    0.572752 0.563669 0.816962 0.045948
O21   O     O_2   0.548220 0.679717 0.899509 -0.547072
F1    F     F_    0.374574 0.995011 0.183694 -0.716414

loop_
_geom_bond_atom_site_label_1
_geom_bond_atom_site_label_2
_ccdc_geom_bond_type
C22   H11   S    
C20   C25   S    
O12   V3    S    
V4    O20   S    
V3    O20   S    
C39   C40   A    
O17   V3    S    
C1    O6    A    
C2    C36   S    
O18   C51   A    
O15   C51   A    
C27   C28   S    
C7    H5    S    
C6    C16   A    
C9    H6    S    
C40   C42   A    
C4    C6    S    
C13   C14   A    
C3    C21   S    
O5    C3    A    
C27   H16   S    
C35   H22   S    
V2    O10   S    
C1    C34   S    
O15   V3    S    
C5    H3    S    
C15   H8    S    
C18   C51   S    
C24   C25   S    
C35   C43   A    
C36   C47   A    
O14   V3    S    
O11   V4    S    
O8    V2    S    
C20   C21   S    
C25   C26   S    
O16   V4    S    
C8    C9    A    
O1    V2    S    
O7    V1    S    
C43   C44   A    
C37   C48   A    
C31   C32   S    
C29   C50   S    
O9    C4    A    
C46   H23   S    
C49   O16   A    
C19   H10   S    
H21   C44   S    
C26   C52   S    
C6    C17   A    
C40   C41   A    
O13   C52   A    
C12   C16   A    
C9    C10   A    
C19   C20   S    
O4    C2    A    
C44   C45   A    
C29   C32   S    
C10   C11   A    
C23   C24   S    
C36   C46   A    
C24   H13   S    
C45   F1    S    
C32   C33   S    
O2    C1    A    
C21   C22   S    
C14   C15   A    
O14   C50   A    
C27   C34   S    
C11   C18   A    
O19   C52   A    
C27   C30   S    
C16   H4    S    
C53   O21   D    
C42   C43   A    
C39   H25   S    
C25   H14   S    
O3    C4    A    
C20   H9    S    
O19   V4    S    
O12   C49   A    
C11   C15   A    
O6    V2    S    
O9    V2    S    
H1    C17   S    
O2    V1    S    
C53   H27   S    
C22   C23   S    
C37   H24   S    
C23   C26   S    
C7    C18   A    
C28   H15   S    
C31   C34   S    
O1    C2    A    
C5    C13   A    
C42   C46   A    
C38   C39   A    
O5    V1    S    
C38   H26   S    
O8    C3    A    
C41   C48   A    
H20   C47   S    
C19   C22   S    
C28   C33   S    
C10   C12   A    
C31   H17   S    
C48   C49   S    
C32   H18   S    
O13   V3    S    
C30   C31   S    
O4    V1    S    
O3    V1    S    
C8    H7    S    
C35   C47   A    
C29   C30   S    
C23   H12   S    
O11   C50   A    
O7    V2    S    
C33   C34   S    
C21   C24   S    
C33   H19   S    
C37   C38   A    
C12   C13   A    
C5    C17   A    
C7    C8    A    
V1    O10   S    
C30   C53   S    
C41   C45   A    
O18   V4    S    
O17   V4    S    
C19   C26   S    
C28   C29   S    
H2    C14   S    
