data_mof_unit_55178.cif
_audit_creation_date              2012-12-10T17:01:36-0500
_audit_creation_method            fapswitch 2.2
_symmetry_space_group_name_H-M    P1
_symmetry_Int_Tables_number       1
_space_group_crystal_system       triclinic
_cell_length_a                    12.80387
_cell_length_b                    10.640942
_cell_length_c                    10.090713
_cell_angle_alpha                 88.788065
_cell_angle_beta                  97.678083
_cell_angle_gamma                 90.598031
_cell_volume                      1362.1405726

loop_
_atom_site_label
_atom_site_type_symbol
_atom_type_description
_atom_site_fract_x
_atom_site_fract_y
_atom_site_fract_z
_atom_type_partial_charge
C1    C     C_R   0.493435 0.262642 0.500357 0.962406
C2    C     C_2   0.468421 0.131911 0.501931 -0.370690
C3    C     C_2   0.568373 0.561151 0.935865 0.396138
C4    C     C_R   0.298492 0.500247 0.473266 0.914690
C5    C     C_2   0.552686 0.579374 0.079564 0.398633
C6    C     C_R   0.497446 0.737375 0.498004 0.889904
C7    C     C_R   0.701129 0.501701 0.526719 0.882622
C8    C     C_R   0.812189 0.516946 0.542219 -0.082914
C9    C     C_R   0.185748 0.495959 0.456311 -0.263557
C10   C     C_R   0.027927 0.374300 0.393309 0.351072
C11   C     C_R   0.134364 0.394896 0.387291 0.307378
C12   C     C_R   0.022127 0.568429 0.522493 0.026423
C13   C     C_R   0.131450 0.583104 0.524482 0.079859
C14   C     C_3   0.954079 0.859698 0.700852 -0.690990
C15   C     C_3   0.203910 0.664586 0.742450 -0.627046
C16   C     C_3   0.278034 0.943472 0.215963 -0.644696
C17   C     C_R   0.972857 0.457906 0.464537 -0.062594
C18   C     C_R   0.868422 0.433414 0.477593 -0.148882
C19   C     C_R   0.856074 0.628930 0.592028 -0.166425
C20   C     C_R   0.960547 0.658984 0.578923 0.239469
C21   C     C_2   0.430511 0.933133 0.395113 0.242592
C22   C     C_2   0.493485 0.870461 0.491784 -0.354056
C23   C     C_2   0.444797 0.069173 0.388714 -0.099019
Cl1   Cl    Cl    0.678203 0.634267 0.878397 -0.517230
Cl2   Cl    Cl    0.611310 0.713086 0.159014 -0.497967
Cl3   Cl    Cl    0.481114 0.348156 0.092694 -0.527132
Cl4   Cl    Cl    0.965598 0.241606 0.312216 -0.520570
Cl5   Cl    Cl    0.205185 0.285442 0.304175 -0.538655
H1    H     H_    0.827962 0.350794 0.434958 0.199927
H2    H     H_    0.877593 0.898075 0.652861 0.242931
H3    H     H_    0.252637 0.717627 0.559587 0.211378
H4    H     H_    0.239851 0.751018 0.789304 0.226295
H5    H     H_    0.128289 0.646111 0.781953 0.250915
H6    H     H_    0.257132 0.584592 0.772440 0.240753
H7    H     H_    0.325167 0.786895 0.334259 0.213342
H8    H     H_    0.225126 0.880383 0.150648 0.229615
H9    H     H_    0.316553 0.008851 0.149993 0.263912
H10   H     H_    0.229684 0.996581 0.278953 0.275097
H11   H     H_    0.464912 0.087197 0.599138 0.169770
H12   H     H_    0.429242 0.481057 0.882801 0.171080
H13   H     H_    0.805567 0.696171 0.630757 0.180094
H14   H     H_    0.549760 0.917385 0.564901 0.150028
H15   H     H_    0.439865 0.116563 0.291789 0.231292
H16   H     H_    0.024609 0.831291 0.527325 0.259689
H17   H     H_    0.007755 0.939750 0.730773 0.254602
H18   H     H_    0.942965 0.804023 0.792402 0.262258
N1    N     N_2   0.501130 0.501330 0.852280 -0.213306
N2    N     N_2   0.501160 0.501360 0.147950 -0.007543
N3    N     N_2   0.000584 0.782942 0.607768 -0.297908
N4    N     N_2   0.187502 0.682142 0.598129 -0.292088
N5    N     N_2   0.356066 0.869233 0.299536 -0.281446
O1    O     O_R   0.499980 0.319060 0.613040 -0.603611
O2    O     O_R   0.500020 0.319100 0.386900 -0.547194
O3    O     O_R   0.346340 0.499960 0.594380 -0.631682
O4    O     O_R   0.346380 0.500000 0.368250 -0.571880
O5    O     O_R   0.499980 0.680900 0.613100 -0.596931
O6    O     O_R   0.500020 0.680940 0.386960 -0.565329
O7    O     O_R   0.653620 0.500000 0.631750 -0.559518
O8    O     O_R   0.653660 0.500040 0.405620 -0.575005
Zn1   Zn    Zn3+2 0.499980 0.499970 0.650990 1.023964
Zn2   Zn    Zn3+2 0.500020 0.500030 0.349010 1.107735

loop_
_geom_bond_atom_site_label_1
_geom_bond_atom_site_label_2
_ccdc_geom_bond_type
H16   N3    S    
C10   Cl4   S    
H12   N1    S    
O6    Zn2   S    
C20   N3    S    
O1    Zn1   S    
C7    O7    A    
C19   C20   A    
C16   N5    S    
Cl3   N2    S    
C16   H9    S    
C12   C20   A    
N1    Zn1   S    
C17   C18   A    
N2    Zn2   S    
C15   H4    S    
C14   H18   S    
C18   H1    S    
O3    Zn1   S    
C21   C22   D    
C16   H8    S    
C12   C17   A    
C6    O5    A    
H3    N4    S    
C9    C11   A    
C6    O6    A    
C3    Cl1   S    
C22   H14   S    
C11   Cl5   S    
C14   H2    S    
C5    Cl2   S    
O4    Zn2   S    
C7    O8    A    
C5    N2    D    
C14   H17   S    
C21   C23   S    
C4    O4    A    
H7    N5    S    
C1    O1    A    
O8    Zn2   S    
C8    C19   A    
C7    C8    S    
C10   C11   A    
C10   C17   A    
O7    Zn1   S    
C13   N4    S    
C14   N3    S    
O5    Zn1   S    
C21   N5    S    
C23   H15   S    
C12   C13   A    
C1    C2    S    
C15   N4    S    
C3    N1    D    
C2    C23   D    
C9    C13   A    
C1    O2    A    
C15   H6    S    
C4    O3    A    
C4    C9    S    
O2    Zn2   S    
C2    H11   S    
C15   H5    S    
C8    C18   A    
C19   H13   S    
C16   H10   S    
C3    C5    S    
C6    C22   S    
