data_mof_unit_34402.cif
_audit_creation_date              2012-12-10T16:46:21-0500
_audit_creation_method            fapswitch 2.2
_symmetry_space_group_name_H-M    P1
_symmetry_Int_Tables_number       1
_space_group_crystal_system       triclinic
_cell_length_a                    27.664735
_cell_length_b                    27.546703
_cell_length_c                    27.635359
_cell_angle_alpha                 89.975564
_cell_angle_beta                  89.665501
_cell_angle_gamma                 89.898331
_cell_volume                      21059.7460184

loop_
_atom_site_label
_atom_site_type_symbol
_atom_type_description
_atom_site_fract_x
_atom_site_fract_y
_atom_site_fract_z
_atom_type_partial_charge
C1    C     C_R   0.929044 0.702221 0.297744 0.774695
C2    C     C_R   0.070924 0.297672 0.702405 0.769790
C3    C     C_R   0.297359 0.702758 0.071106 0.772021
C4    C     C_R   0.702449 0.297530 0.929012 0.771090
C5    C     C_R   0.070349 0.701702 0.701897 0.770948
C6    C     C_R   0.928808 0.297369 0.297384 0.777664
C7    C     C_R   0.702877 0.703010 0.928422 0.767031
C8    C     C_R   0.297600 0.297669 0.070742 0.771952
C9    C     C_R   0.929404 0.297774 0.702196 0.766978
C10   C     C_R   0.070752 0.702279 0.297950 0.764526
C11   C     C_R   0.297812 0.297781 0.929340 0.775826
C12   C     C_R   0.702938 0.702661 0.071348 0.766869
C13   C     C_R   0.071326 0.297124 0.297050 0.770771
C14   C     C_R   0.929785 0.701846 0.701782 0.764032
C15   C     C_R   0.702768 0.297130 0.071222 0.766693
C16   C     C_R   0.297500 0.702323 0.929267 0.769818
C17   C     C_R   0.297240 0.071116 0.702858 0.769061
C18   C     C_R   0.702376 0.929155 0.297651 0.769010
C19   C     C_R   0.297441 0.928987 0.297424 0.776563
C20   C     C_R   0.702424 0.071036 0.702368 0.777249
C21   C     C_R   0.702672 0.928898 0.702672 0.775753
C22   C     C_R   0.297180 0.071442 0.297203 0.777453
C23   C     C_R   0.702571 0.071037 0.297329 0.768168
C24   C     C_R   0.298024 0.929499 0.701951 0.767906
C25   C     C_R   0.429607 0.202062 0.298084 0.770496
C26   C     C_R   0.571046 0.797504 0.702693 0.776392
C27   C     C_R   0.298255 0.201869 0.570517 0.765154
C28   C     C_R   0.702542 0.797535 0.429028 0.772205
C29   C     C_R   0.570730 0.202371 0.702223 0.773979
C30   C     C_R   0.429532 0.797970 0.297892 0.773174
C31   C     C_R   0.701684 0.201773 0.429686 0.769702
C32   C     C_R   0.297770 0.797730 0.570645 0.763629
C33   C     C_R   0.429436 0.797800 0.702121 0.771361
C34   C     C_R   0.570576 0.202155 0.297738 0.771142
C35   C     C_R   0.298445 0.798362 0.429872 0.766387
C36   C     C_R   0.702633 0.202662 0.570970 0.769145
C37   C     C_R   0.570702 0.797717 0.297771 0.769876
C38   C     C_R   0.428855 0.202512 0.702942 0.776798
C39   C     C_R   0.701776 0.798106 0.570376 0.770285
C40   C     C_R   0.297434 0.202521 0.429055 0.775133
C41   C     C_R   0.797238 0.297247 0.571296 0.778928
C42   C     C_R   0.202860 0.702622 0.428863 0.778640
C43   C     C_R   0.797748 0.570662 0.702485 0.767726
C44   C     C_R   0.201463 0.430211 0.298480 0.764005
C45   C     C_R   0.797887 0.702010 0.429700 0.767054
C46   C     C_R   0.202313 0.297721 0.570751 0.773806
C47   C     C_R   0.797084 0.428591 0.297110 0.773138
C48   C     C_R   0.201765 0.570049 0.701492 0.780164
C49   C     C_R   0.201752 0.701849 0.570091 0.777798
C50   C     C_R   0.797095 0.297113 0.428661 0.775170
C51   C     C_R   0.202549 0.429051 0.702576 0.769312
C52   C     C_R   0.797124 0.571211 0.297262 0.770202
C53   C     C_R   0.201759 0.298289 0.429618 0.778184
C54   C     C_R   0.797419 0.702446 0.571192 0.775760
C55   C     C_R   0.203043 0.571489 0.297035 0.765818
C56   C     C_R   0.798388 0.429889 0.701620 0.774876
C57   C     C_R   0.702920 0.571216 0.202971 0.773752
C58   C     C_R   0.298431 0.430157 0.798500 0.770349
C59   C     C_R   0.428853 0.702607 0.202571 0.775771
C60   C     C_R   0.570622 0.297940 0.797724 0.768493
C61   C     C_R   0.297147 0.428633 0.202831 0.774951
C62   C     C_R   0.702217 0.570686 0.797569 0.769117
C63   C     C_R   0.571096 0.297329 0.202575 0.775736
C64   C     C_R   0.429543 0.701729 0.798084 0.767138
C65   C     C_R   0.297857 0.570461 0.798046 0.781535
C66   C     C_R   0.702253 0.429162 0.202316 0.772049
C67   C     C_R   0.571038 0.702615 0.797377 0.772818
C68   C     C_R   0.428824 0.297382 0.202619 0.770435
C69   C     C_R   0.702213 0.429333 0.797840 0.784037
C70   C     C_R   0.298145 0.570214 0.201706 0.767976
C71   C     C_R   0.428697 0.297259 0.797273 0.774053
C72   C     C_R   0.570940 0.702246 0.202412 0.773312
C73   C     C_R   0.928489 0.203063 0.796733 0.772072
C74   C     C_R   0.071530 0.797180 0.202868 0.774208
C75   C     C_R   0.797309 0.202493 0.071049 0.771291
C76   C     C_R   0.203035 0.796978 0.928554 0.769011
C77   C     C_R   0.070949 0.202659 0.202836 0.769494
C78   C     C_R   0.928917 0.797546 0.797608 0.777275
C79   C     C_R   0.202635 0.202457 0.928974 0.775236
C80   C     C_R   0.797100 0.796993 0.071400 0.773300
C81   C     C_R   0.929167 0.797507 0.202347 0.769907
C82   C     C_R   0.070941 0.202270 0.797733 0.768735
C83   C     C_R   0.797163 0.797340 0.928839 0.776117
C84   C     C_R   0.202164 0.202291 0.071000 0.770701
C85   C     C_R   0.071085 0.797511 0.797524 0.777507
C86   C     C_R   0.929059 0.202311 0.202256 0.765786
C87   C     C_R   0.203093 0.797043 0.071476 0.773252
C88   C     C_R   0.797430 0.202644 0.928616 0.767609
C89   C     C_R   0.797119 0.071111 0.202730 0.763376
C90   C     C_R   0.202313 0.929260 0.797793 0.772869
C91   C     C_R   0.796816 0.928518 0.797034 0.766632
C92   C     C_R   0.202432 0.071028 0.202819 0.768509
C93   C     C_R   0.203230 0.928508 0.202999 0.766720
C94   C     C_R   0.797564 0.070942 0.797214 0.769232
C95   C     C_R   0.202881 0.071083 0.797265 0.763682
C96   C     C_R   0.797927 0.929332 0.202042 0.771070
C97   C     C_R   0.821733 0.884907 0.177964 -0.141423
C98   C     C_R   0.180172 0.115516 0.820655 -0.142060
C99   C     C_R   0.181175 0.883506 0.180151 -0.146146
C100  C     C_R   0.821546 0.115114 0.819609 -0.144057
C101  C     C_R   0.179002 0.884702 0.821498 -0.140601
C102  C     C_R   0.819878 0.115581 0.179360 -0.142756
C103  C     C_R   0.819062 0.883661 0.820129 -0.145828
C104  C     C_R   0.178258 0.115179 0.180280 -0.144484
C105  C     C_R   0.115121 0.179161 0.180316 -0.139700
C106  C     C_R   0.883938 0.820663 0.820853 -0.143450
C107  C     C_R   0.115375 0.178510 0.821545 -0.145298
C108  C     C_R   0.885088 0.820404 0.178274 -0.146235
C109  C     C_R   0.115946 0.820364 0.820913 -0.143240
C110  C     C_R   0.884633 0.178673 0.178463 -0.145905
C111  C     C_R   0.117091 0.819926 0.180340 -0.145915
C112  C     C_R   0.883422 0.180081 0.818477 -0.139178
C113  C     C_R   0.820912 0.179452 0.883526 -0.143957
C114  C     C_R   0.181351 0.819653 0.117044 -0.138095
C115  C     C_R   0.819564 0.820609 0.883995 -0.139929
C116  C     C_R   0.177989 0.178861 0.115658 -0.143173
C117  C     C_R   0.180314 0.819511 0.883551 -0.145214
C118  C     C_R   0.820163 0.178994 0.115673 -0.139518
C119  C     C_R   0.179902 0.179006 0.884297 -0.139973
C120  C     C_R   0.820224 0.819186 0.116397 -0.141346
C121  C     C_R   0.320207 0.383730 0.179453 -0.142093
C122  C     C_R   0.678402 0.615021 0.820634 -0.145646
C123  C     C_R   0.178890 0.385102 0.679018 -0.143268
C124  C     C_R   0.819999 0.615492 0.320814 -0.143140
C125  C     C_R   0.678153 0.385162 0.821730 -0.137883
C126  C     C_R   0.322166 0.614041 0.177403 -0.143770
C127  C     C_R   0.819642 0.383462 0.319872 -0.143603
C128  C     C_R   0.177217 0.613015 0.676295 -0.141792
C129  C     C_R   0.321954 0.613654 0.823099 -0.138389
C130  C     C_R   0.678642 0.384735 0.178856 -0.145841
C131  C     C_R   0.180479 0.616598 0.320127 -0.141081
C132  C     C_R   0.823002 0.386304 0.676976 -0.137607
C133  C     C_R   0.680337 0.615869 0.180260 -0.139880
C134  C     C_R   0.322960 0.387047 0.822965 -0.146775
C135  C     C_R   0.821784 0.614664 0.679300 -0.142217
C136  C     C_R   0.175882 0.387500 0.323008 -0.144333
C137  C     C_R   0.614780 0.179072 0.678206 -0.143150
C138  C     C_R   0.386034 0.822383 0.321764 -0.142499
C139  C     C_R   0.615305 0.679318 0.820903 -0.137734
C140  C     C_R   0.384203 0.320503 0.179174 -0.144881
C141  C     C_R   0.614698 0.821203 0.321617 -0.146092
C142  C     C_R   0.384746 0.178408 0.680003 -0.143952
C143  C     C_R   0.615856 0.320134 0.179293 -0.138598
C144  C     C_R   0.385632 0.677300 0.822226 -0.148139
C145  C     C_R   0.385920 0.821513 0.677631 -0.144570
C146  C     C_R   0.614250 0.178142 0.321454 -0.142957
C147  C     C_R   0.384200 0.320731 0.820777 -0.138317
C148  C     C_R   0.615603 0.678303 0.179421 -0.141813
C149  C     C_R   0.385669 0.178458 0.322039 -0.143920
C150  C     C_R   0.615122 0.821525 0.679430 -0.144050
C151  C     C_R   0.384153 0.679749 0.179028 -0.140704
C152  C     C_R   0.614780 0.321559 0.821203 -0.147777
C153  C     C_R   0.821531 0.677552 0.386397 -0.146716
C154  C     C_R   0.178853 0.321521 0.614954 -0.143211
C155  C     C_R   0.323153 0.823115 0.386530 -0.143236
C156  C     C_R   0.678929 0.179298 0.614829 -0.143197
C157  C     C_R   0.176705 0.322528 0.385932 -0.137775
C158  C     C_R   0.821224 0.678743 0.615740 -0.141631
C159  C     C_R   0.677142 0.177586 0.385968 -0.144481
C160  C     C_R   0.322490 0.821770 0.613819 -0.141955
C161  C     C_R   0.177145 0.677340 0.613050 -0.142873
C162  C     C_R   0.819477 0.319656 0.383472 -0.142702
C163  C     C_R   0.677573 0.822316 0.614256 -0.145014
C164  C     C_R   0.321132 0.178841 0.385072 -0.143551
C165  C     C_R   0.820599 0.320024 0.616105 -0.140768
C166  C     C_R   0.179857 0.679305 0.384386 -0.139917
C167  C     C_R   0.322454 0.177869 0.614777 -0.147796
C168  C     C_R   0.678745 0.821071 0.384885 -0.143143
C169  C     C_R   0.322608 0.885976 0.677110 -0.142198
C170  C     C_R   0.679015 0.115670 0.320195 -0.139057
C171  C     C_R   0.679483 0.884221 0.679972 -0.139651
C172  C     C_R   0.319981 0.116582 0.320320 -0.143163
C173  C     C_R   0.678554 0.885010 0.321629 -0.141620
C174  C     C_R   0.320443 0.115936 0.680525 -0.138361
C175  C     C_R   0.320922 0.884556 0.320446 -0.139934
C176  C     C_R   0.679087 0.115627 0.678502 -0.143046
C177  C     C_R   0.113401 0.676815 0.676876 -0.144215
C178  C     C_R   0.883767 0.320295 0.320381 -0.143475
C179  C     C_R   0.115277 0.679134 0.321767 -0.148139
C180  C     C_R   0.885675 0.321203 0.678103 -0.146209
C181  C     C_R   0.115606 0.320461 0.320041 -0.144690
C182  C     C_R   0.886610 0.677222 0.677426 -0.145973
C183  C     C_R   0.114998 0.321874 0.678784 -0.142435
C184  C     C_R   0.884938 0.677771 0.321873 -0.139525
C185  C     C_R   0.320576 0.678451 0.885239 -0.142605
C186  C     C_R   0.679574 0.319851 0.115866 -0.142772
C187  C     C_R   0.321971 0.321685 0.885610 -0.142820
C188  C     C_R   0.680444 0.679091 0.116113 -0.146521
C189  C     C_R   0.678987 0.320558 0.884355 -0.143285
C190  C     C_R   0.321178 0.679536 0.115215 -0.143941
C191  C     C_R   0.679441 0.680341 0.883479 -0.147613
C192  C     C_R   0.320915 0.320924 0.114979 -0.145562
C193  C     C_R   0.800914 0.862361 0.137115 -0.091796
C194  C     C_R   0.202191 0.138326 0.861185 -0.074392
C195  C     C_R   0.138958 0.861788 0.200410 -0.085987
C196  C     C_R   0.861809 0.138175 0.796560 -0.068385
C197  C     C_R   0.199898 0.862270 0.862520 -0.087080
C198  C     C_R   0.797940 0.138338 0.138774 -0.075632
C199  C     C_R   0.861435 0.861989 0.800113 -0.087657
C200  C     C_R   0.137702 0.138035 0.202992 -0.068954
C201  C     C_R   0.802812 0.135798 0.863226 -0.084686
C202  C     C_R   0.203291 0.860742 0.139470 -0.071866
C203  C     C_R   0.137427 0.136632 0.801262 -0.086440
C204  C     C_R   0.865785 0.865243 0.195180 -0.077281
C205  C     C_R   0.197108 0.136015 0.136858 -0.087709
C206  C     C_R   0.796978 0.860982 0.860823 -0.072609
C207  C     C_R   0.862547 0.136781 0.198794 -0.084251
C208  C     C_R   0.135316 0.864831 0.803647 -0.077479
C209  C     C_R   0.136244 0.197733 0.864234 -0.082152
C210  C     C_R   0.861005 0.796933 0.139186 -0.069426
C211  C     C_R   0.138816 0.799861 0.138435 -0.089726
C212  C     C_R   0.860721 0.201502 0.859841 -0.093278
C213  C     C_R   0.863293 0.801848 0.863978 -0.086115
C214  C     C_R   0.136237 0.199592 0.137634 -0.086099
C215  C     C_R   0.863781 0.197881 0.135711 -0.081646
C216  C     C_R   0.139598 0.797962 0.860897 -0.082404
C217  C     C_R   0.300334 0.362622 0.136881 -0.079932
C218  C     C_R   0.699296 0.637955 0.861354 -0.084742
C219  C     C_R   0.137014 0.363507 0.699868 -0.086135
C220  C     C_R   0.861678 0.637464 0.299633 -0.074809
C221  C     C_R   0.697385 0.364007 0.864209 -0.085902
C222  C     C_R   0.303417 0.634761 0.134311 -0.068202
C223  C     C_R   0.862370 0.362515 0.300308 -0.086040
C224  C     C_R   0.133537 0.632969 0.695151 -0.065636
C225  C     C_R   0.300608 0.635604 0.864831 -0.085560
C226  C     C_R   0.698933 0.362847 0.136873 -0.083386
C227  C     C_R   0.138266 0.638240 0.300407 -0.087342
C228  C     C_R   0.867355 0.366801 0.694366 -0.075462
C229  C     C_R   0.703134 0.639214 0.139754 -0.068055
C230  C     C_R   0.305008 0.367046 0.867077 -0.063288
C231  C     C_R   0.865463 0.634423 0.697863 -0.080889
C232  C     C_R   0.136908 0.363377 0.299645 -0.081719
C233  C     C_R   0.636002 0.136346 0.697611 -0.087652
C234  C     C_R   0.361667 0.861389 0.298241 -0.076460
C235  C     C_R   0.638358 0.701835 0.861410 -0.073006
C236  C     C_R   0.363619 0.301318 0.136089 -0.079803
C237  C     C_R   0.636015 0.863887 0.302119 -0.084082
C238  C     C_R   0.360830 0.138986 0.702979 -0.078805
C239  C     C_R   0.639034 0.297737 0.138740 -0.076843
C240  C     C_R   0.362620 0.698695 0.863089 -0.087103
C241  C     C_R   0.365090 0.864769 0.696550 -0.083603
C242  C     C_R   0.638332 0.138707 0.298235 -0.078225
C243  C     C_R   0.361087 0.298450 0.861387 -0.082718
C244  C     C_R   0.636828 0.697560 0.136577 -0.088765
C245  C     C_R   0.362999 0.137349 0.301007 -0.087911
C246  C     C_R   0.639012 0.860936 0.702476 -0.077074
C247  C     C_R   0.360903 0.702302 0.138734 -0.075650
C248  C     C_R   0.637554 0.299867 0.862106 -0.084277
C249  C     C_R   0.865879 0.695229 0.366826 -0.074854
C250  C     C_R   0.136066 0.302345 0.635892 -0.083082
C251  C     C_R   0.302188 0.864594 0.364208 -0.086388
C252  C     C_R   0.700457 0.138172 0.637262 -0.074315
C253  C     C_R   0.138216 0.298792 0.361160 -0.071431
C254  C     C_R   0.865502 0.696650 0.634545 -0.056727
C255  C     C_R   0.697778 0.135871 0.363572 -0.088720
C256  C     C_R   0.302473 0.864255 0.635201 -0.088033
C257  C     C_R   0.134427 0.697176 0.634058 -0.079345
C258  C     C_R   0.862317 0.300228 0.362698 -0.084889
C259  C     C_R   0.698159 0.864175 0.636196 -0.086447
C260  C     C_R   0.298311 0.139435 0.361238 -0.076957
C261  C     C_R   0.860741 0.297389 0.639622 -0.068029
C262  C     C_R   0.135446 0.697292 0.365506 -0.055098
C263  C     C_R   0.301735 0.136262 0.637119 -0.089358
C264  C     C_R   0.699384 0.862745 0.362912 -0.091493
C265  C     C_R   0.802532 0.364320 0.635483 -0.087238
C266  C     C_R   0.201938 0.639145 0.361029 -0.094499
C267  C     C_R   0.635932 0.363859 0.198241 -0.083883
C268  C     C_R   0.366303 0.632798 0.805129 -0.061716
C269  C     C_R   0.191405 0.368942 0.368509 -0.076278
C270  C     C_R   0.800246 0.637889 0.638890 -0.094740
C271  C     C_R   0.364468 0.365005 0.802005 -0.081662
C272  C     C_R   0.637552 0.636715 0.200630 -0.082468
C273  C     C_R   0.798562 0.637717 0.362812 -0.079831
C274  C     C_R   0.199491 0.363149 0.636910 -0.087133
C275  C     C_R   0.635213 0.635196 0.801909 -0.080794
C276  C     C_R   0.361029 0.360979 0.200600 -0.091936
C277  C     C_R   0.196689 0.633886 0.633355 -0.077209
C278  C     C_R   0.797983 0.360526 0.360669 -0.087041
C279  C     C_R   0.364298 0.635611 0.197228 -0.085815
C280  C     C_R   0.634504 0.365716 0.803393 -0.063747
C281  C     C_R   0.633028 0.195577 0.366475 -0.069961
C282  C     C_R   0.364170 0.800453 0.635939 -0.081336
C283  C     C_R   0.633945 0.804182 0.634439 -0.068613
C284  C     C_R   0.365993 0.196566 0.365969 -0.075044
C285  C     C_R   0.367514 0.805655 0.367201 -0.075896
C286  C     C_R   0.636544 0.200015 0.636444 -0.086921
C287  C     C_R   0.366365 0.195436 0.634957 -0.055416
C288  C     C_R   0.636237 0.800848 0.363581 -0.075532
Cu1   Cu    Cu3+1 0.000000 0.784800 0.284800 0.952771
Cu2   Cu    Cu3+1 0.000000 0.215200 0.715200 0.964133
Cu3   Cu    Cu3+1 0.284800 0.784800 0.000000 0.959517
Cu4   Cu    Cu3+1 0.715200 0.215200 0.000000 0.958897
Cu5   Cu    Cu3+1 0.000000 0.784800 0.715200 0.955786
Cu6   Cu    Cu3+1 0.000000 0.215200 0.284800 0.963422
Cu7   Cu    Cu3+1 0.715200 0.784800 0.000000 0.959080
Cu8   Cu    Cu3+1 0.284800 0.215200 0.000000 0.958561
Cu9   Cu    Cu3+1 0.215200 0.284800 0.000000 0.968624
Cu10  Cu    Cu3+1 0.784800 0.715200 0.000000 0.959464
Cu11  Cu    Cu3+1 0.215200 1.000000 0.715200 0.978219
Cu12  Cu    Cu3+1 0.784800 0.000000 0.284800 0.978874
Cu13  Cu    Cu3+1 0.215200 0.715200 0.000000 0.975140
Cu14  Cu    Cu3+1 0.784800 0.284800 0.000000 0.983549
Cu15  Cu    Cu3+1 0.215200 0.000000 0.284800 0.953321
Cu16  Cu    Cu3+1 0.784800 1.000000 0.715200 0.953956
Cu17  Cu    Cu3+1 0.715200 0.000000 0.784800 0.957628
Cu18  Cu    Cu3+1 0.284800 0.000000 0.215200 0.958634
Cu19  Cu    Cu3+1 0.000000 0.715200 0.784800 0.956993
Cu20  Cu    Cu3+1 0.000000 0.284800 0.215200 0.954008
Cu21  Cu    Cu3+1 0.284800 0.000000 0.784800 0.957271
Cu22  Cu    Cu3+1 0.715200 0.000000 0.215200 0.958027
Cu23  Cu    Cu3+1 0.000000 0.284800 0.784800 0.972225
Cu24  Cu    Cu3+1 0.000000 0.715200 0.215200 0.961539
Cu25  Cu    Cu3+1 0.500000 0.284800 0.284800 0.975146
Cu26  Cu    Cu3+1 0.500000 0.715200 0.715200 0.962766
Cu27  Cu    Cu3+1 0.284800 0.284800 0.500000 0.958336
Cu28  Cu    Cu3+1 0.715200 0.715200 0.500000 0.956990
Cu29  Cu    Cu3+1 0.500000 0.284800 0.715200 0.963308
Cu30  Cu    Cu3+1 0.500000 0.715200 0.284800 0.964397
Cu31  Cu    Cu3+1 0.715200 0.284800 0.500000 0.972796
Cu32  Cu    Cu3+1 0.284800 0.715200 0.500000 0.980732
Cu33  Cu    Cu3+1 0.715200 0.500000 0.715200 0.970216
Cu34  Cu    Cu3+1 0.284800 0.500000 0.284800 0.975282
Cu35  Cu    Cu3+1 0.715200 0.500000 0.284800 0.949858
Cu36  Cu    Cu3+1 0.284800 0.500000 0.715200 0.960859
Cu37  Cu    Cu3+1 0.500000 0.784800 0.784800 0.957750
Cu38  Cu    Cu3+1 0.500000 0.215200 0.215200 0.959870
Cu39  Cu    Cu3+1 0.784800 0.784800 0.500000 0.980320
Cu40  Cu    Cu3+1 0.215200 0.215200 0.500000 0.956504
Cu41  Cu    Cu3+1 0.500000 0.784800 0.215200 0.958098
Cu42  Cu    Cu3+1 0.500000 0.215200 0.784800 0.958604
Cu43  Cu    Cu3+1 0.215200 0.784800 0.500000 0.979406
Cu44  Cu    Cu3+1 0.784800 0.215200 0.500000 0.955618
Cu45  Cu    Cu3+1 0.215200 0.500000 0.215200 0.954299
Cu46  Cu    Cu3+1 0.784800 0.500000 0.784800 0.966713
Cu47  Cu    Cu3+1 0.215200 0.500000 0.784800 0.965817
Cu48  Cu    Cu3+1 0.784800 0.500000 0.215200 0.952971
O1    O     O_R   0.947350 0.816370 0.242430 -0.584181
O2    O     O_R   0.052650 0.183630 0.757570 -0.575058
O3    O     O_R   0.242430 0.816370 0.052650 -0.573833
O4    O     O_R   0.757570 0.183630 0.947350 -0.576809
O5    O     O_R   0.052650 0.816370 0.757570 -0.587016
O6    O     O_R   0.947350 0.183630 0.242430 -0.573550
O7    O     O_R   0.757570 0.816370 0.947350 -0.574142
O8    O     O_R   0.242430 0.183630 0.052650 -0.577470
O9    O     O_R   0.947350 0.183630 0.757570 -0.577663
O10   O     O_R   0.052650 0.816370 0.242430 -0.578302
O11   O     O_R   0.242430 0.183630 0.947350 -0.573220
O12   O     O_R   0.757570 0.816370 0.052650 -0.578070
O13   O     O_R   0.052650 0.183630 0.242430 -0.575250
O14   O     O_R   0.947350 0.816370 0.757570 -0.577528
O15   O     O_R   0.757570 0.183630 0.052650 -0.574450
O16   O     O_R   0.242430 0.816370 0.947350 -0.576050
O17   O     O_R   0.183630 0.242430 0.052650 -0.574506
O18   O     O_R   0.816370 0.757570 0.947350 -0.577669
O19   O     O_R   0.183630 0.052650 0.757570 -0.581364
O20   O     O_R   0.816370 0.947350 0.242430 -0.574098
O21   O     O_R   0.183630 0.757570 0.947350 -0.587467
O22   O     O_R   0.816370 0.242430 0.052650 -0.576712
O23   O     O_R   0.183630 0.947350 0.242430 -0.582107
O24   O     O_R   0.816370 0.052650 0.757570 -0.602614
O25   O     O_R   0.816370 0.757570 0.052650 -0.574338
O26   O     O_R   0.183630 0.242430 0.947350 -0.581734
O27   O     O_R   0.816370 0.947350 0.757570 -0.582402
O28   O     O_R   0.183630 0.052650 0.242430 -0.604065
O29   O     O_R   0.816370 0.242430 0.947350 -0.579384
O30   O     O_R   0.183630 0.757570 0.052650 -0.582692
O31   O     O_R   0.816370 0.052650 0.242430 -0.581106
O32   O     O_R   0.183630 0.947350 0.757570 -0.574059
O33   O     O_R   0.757570 0.052650 0.816370 -0.585799
O34   O     O_R   0.242430 0.947350 0.183630 -0.604239
O35   O     O_R   0.947350 0.757570 0.816370 -0.583844
O36   O     O_R   0.052650 0.242430 0.183630 -0.602747
O37   O     O_R   0.242430 0.947350 0.816370 -0.589017
O38   O     O_R   0.757570 0.052650 0.183630 -0.604436
O39   O     O_R   0.052650 0.242430 0.816370 -0.581006
O40   O     O_R   0.947350 0.757570 0.183630 -0.605997
O41   O     O_R   0.242430 0.052650 0.183630 -0.584786
O42   O     O_R   0.757570 0.947350 0.816370 -0.604431
O43   O     O_R   0.052650 0.757570 0.183630 -0.583261
O44   O     O_R   0.947350 0.242430 0.816370 -0.579462
O45   O     O_R   0.757570 0.947350 0.183630 -0.588297
O46   O     O_R   0.242430 0.052650 0.816370 -0.605249
O47   O     O_R   0.947350 0.242430 0.183630 -0.592165
O48   O     O_R   0.052650 0.757570 0.816370 -0.570713
O49   O     O_R   0.447350 0.316370 0.242430 -0.581794
O50   O     O_R   0.552650 0.683630 0.757570 -0.574534
O51   O     O_R   0.242430 0.316370 0.552650 -0.579690
O52   O     O_R   0.757570 0.683630 0.447350 -0.590634
O53   O     O_R   0.552650 0.316370 0.757570 -0.603883
O54   O     O_R   0.447350 0.683630 0.242430 -0.580622
O55   O     O_R   0.757570 0.316370 0.447350 -0.578566
O56   O     O_R   0.242430 0.683630 0.552650 -0.564940
O57   O     O_R   0.447350 0.683630 0.757570 -0.603525
O58   O     O_R   0.552650 0.316370 0.242430 -0.576644
O59   O     O_R   0.242430 0.683630 0.447350 -0.582951
O60   O     O_R   0.757570 0.316370 0.552650 -0.575564
O61   O     O_R   0.552650 0.683630 0.242430 -0.575205
O62   O     O_R   0.447350 0.316370 0.757570 -0.574521
O63   O     O_R   0.757570 0.683630 0.552650 -0.583702
O64   O     O_R   0.242430 0.316370 0.447350 -0.576000
O65   O     O_R   0.683630 0.242430 0.552650 -0.577687
O66   O     O_R   0.316370 0.757570 0.447350 -0.595329
O67   O     O_R   0.683630 0.552650 0.757570 -0.588405
O68   O     O_R   0.316370 0.447350 0.242430 -0.576807
O69   O     O_R   0.683630 0.757570 0.447350 -0.565674
O70   O     O_R   0.316370 0.242430 0.552650 -0.604541
O71   O     O_R   0.683630 0.447350 0.242430 -0.589315
O72   O     O_R   0.316370 0.552650 0.757570 -0.572530
O73   O     O_R   0.316370 0.757570 0.552650 -0.577641
O74   O     O_R   0.683630 0.242430 0.447350 -0.595698
O75   O     O_R   0.316370 0.447350 0.757570 -0.584495
O76   O     O_R   0.683630 0.552650 0.242430 -0.611692
O77   O     O_R   0.316370 0.242430 0.447350 -0.571562
O78   O     O_R   0.683630 0.757570 0.552650 -0.595964
O79   O     O_R   0.316370 0.552650 0.242430 -0.580456
O80   O     O_R   0.683630 0.447350 0.757570 -0.570426
O81   O     O_R   0.757570 0.552650 0.316370 -0.578701
O82   O     O_R   0.242430 0.447350 0.683630 -0.582619
O83   O     O_R   0.447350 0.757570 0.316370 -0.578885
O84   O     O_R   0.552650 0.242430 0.683630 -0.580642
O85   O     O_R   0.242430 0.447350 0.316370 -0.587955
O86   O     O_R   0.757570 0.552650 0.683630 -0.582398
O87   O     O_R   0.552650 0.242430 0.316370 -0.574476
O88   O     O_R   0.447350 0.757570 0.683630 -0.580811
O89   O     O_R   0.242430 0.552650 0.683630 -0.604288
O90   O     O_R   0.757570 0.447350 0.316370 -0.580061
O91   O     O_R   0.552650 0.757570 0.683630 -0.561523
O92   O     O_R   0.447350 0.242430 0.316370 -0.591970
O93   O     O_R   0.757570 0.447350 0.683630 -0.591288
O94   O     O_R   0.242430 0.552650 0.316370 -0.579957
O95   O     O_R   0.447350 0.242430 0.683630 -0.560501
O96   O     O_R   0.552650 0.757570 0.316370 -0.590320
O97   O     O_R   0.447350 0.816370 0.742430 -0.587469
O98   O     O_R   0.552650 0.183630 0.257570 -0.605973
O99   O     O_R   0.742430 0.816370 0.552650 -0.572796
O100  O     O_R   0.257570 0.183630 0.447350 -0.598561
O101  O     O_R   0.552650 0.816370 0.257570 -0.587374
O102  O     O_R   0.447350 0.183630 0.742430 -0.609375
O103  O     O_R   0.257570 0.816370 0.447350 -0.575251
O104  O     O_R   0.742430 0.183630 0.552650 -0.598825
O105  O     O_R   0.447350 0.183630 0.257570 -0.586962
O106  O     O_R   0.552650 0.816370 0.742430 -0.607872
O107  O     O_R   0.742430 0.183630 0.447350 -0.577484
O108  O     O_R   0.257570 0.816370 0.552650 -0.584789
O109  O     O_R   0.552650 0.183630 0.742430 -0.587563
O110  O     O_R   0.447350 0.816370 0.257570 -0.605579
O111  O     O_R   0.257570 0.183630 0.552650 -0.572487
O112  O     O_R   0.742430 0.816370 0.447350 -0.585139
O113  O     O_R   0.183630 0.742430 0.552650 -0.595482
O114  O     O_R   0.816370 0.257570 0.447350 -0.586870
O115  O     O_R   0.183630 0.552650 0.257570 -0.586643
O116  O     O_R   0.816370 0.447350 0.742430 -0.576428
O117  O     O_R   0.183630 0.257570 0.447350 -0.569058
O118  O     O_R   0.816370 0.742430 0.552650 -0.564539
O119  O     O_R   0.183630 0.447350 0.742430 -0.579642
O120  O     O_R   0.816370 0.552650 0.257570 -0.609743
O121  O     O_R   0.816370 0.257570 0.552650 -0.570128
O122  O     O_R   0.183630 0.742430 0.447350 -0.566470
O123  O     O_R   0.816370 0.447350 0.257570 -0.585546
O124  O     O_R   0.183630 0.552650 0.742430 -0.563097
O125  O     O_R   0.816370 0.742430 0.447350 -0.591199
O126  O     O_R   0.183630 0.257570 0.552650 -0.586040
O127  O     O_R   0.816370 0.552650 0.742430 -0.589794
O128  O     O_R   0.183630 0.447350 0.257570 -0.587371
O129  O     O_R   0.257570 0.552650 0.816370 -0.578872
O130  O     O_R   0.742430 0.447350 0.183630 -0.578562
O131  O     O_R   0.447350 0.257570 0.816370 -0.574456
O132  O     O_R   0.552650 0.742430 0.183630 -0.578047
O133  O     O_R   0.742430 0.447350 0.816370 -0.585365
O134  O     O_R   0.257570 0.552650 0.183630 -0.596400
O135  O     O_R   0.552650 0.742430 0.816370 -0.575010
O136  O     O_R   0.447350 0.257570 0.183630 -0.577253
O137  O     O_R   0.742430 0.552650 0.183630 -0.569388
O138  O     O_R   0.257570 0.447350 0.816370 -0.603587
O139  O     O_R   0.552650 0.257570 0.183630 -0.574457
O140  O     O_R   0.447350 0.742430 0.816370 -0.574183
O141  O     O_R   0.257570 0.447350 0.183630 -0.565370
O142  O     O_R   0.742430 0.552650 0.816370 -0.585482
O143  O     O_R   0.447350 0.742430 0.183630 -0.572809
O144  O     O_R   0.552650 0.257570 0.816370 -0.574064
O145  O     O_R   0.947350 0.316370 0.742430 -0.589981
O146  O     O_R   0.052650 0.683630 0.257570 -0.571340
O147  O     O_R   0.742430 0.316370 0.052650 -0.579549
O148  O     O_R   0.257570 0.683630 0.947350 -0.588635
O149  O     O_R   0.052650 0.316370 0.257570 -0.575328
O150  O     O_R   0.947350 0.683630 0.742430 -0.573687
O151  O     O_R   0.257570 0.316370 0.947350 -0.571770
O152  O     O_R   0.742430 0.683630 0.052650 -0.603791
O153  O     O_R   0.947350 0.683630 0.257570 -0.573457
O154  O     O_R   0.052650 0.316370 0.742430 -0.580518
O155  O     O_R   0.742430 0.683630 0.947350 -0.568615
O156  O     O_R   0.257570 0.316370 0.052650 -0.588226
O157  O     O_R   0.052650 0.683630 0.742430 -0.603799
O158  O     O_R   0.947350 0.316370 0.257570 -0.579624
O159  O     O_R   0.257570 0.683630 0.052650 -0.565376
O160  O     O_R   0.742430 0.316370 0.947350 -0.582128
O161  O     O_R   0.683630 0.742430 0.052650 -0.584262
O162  O     O_R   0.316370 0.257570 0.947350 -0.606126
O163  O     O_R   0.683630 0.052650 0.257570 -0.573007
O164  O     O_R   0.316370 0.947350 0.742430 -0.577526
O165  O     O_R   0.683630 0.257570 0.947350 -0.588782
O166  O     O_R   0.316370 0.742430 0.052650 -0.608003
O167  O     O_R   0.683630 0.947350 0.742430 -0.572490
O168  O     O_R   0.316370 0.052650 0.257570 -0.578968
O169  O     O_R   0.316370 0.257570 0.052650 -0.588978
O170  O     O_R   0.683630 0.742430 0.947350 -0.604445
O171  O     O_R   0.316370 0.947350 0.257570 -0.572399
O172  O     O_R   0.683630 0.052650 0.742430 -0.578637
O173  O     O_R   0.316370 0.742430 0.947350 -0.586702
O174  O     O_R   0.683630 0.257570 0.052650 -0.605102
O175  O     O_R   0.316370 0.052650 0.742430 -0.573552
O176  O     O_R   0.683630 0.947350 0.257570 -0.577944
O177  O     O_R   0.257570 0.052650 0.316370 -0.568367
O178  O     O_R   0.742430 0.947350 0.683630 -0.588141
O179  O     O_R   0.947350 0.257570 0.316370 -0.575999
O180  O     O_R   0.052650 0.742430 0.683630 -0.570839
O181  O     O_R   0.742430 0.947350 0.316370 -0.574677
O182  O     O_R   0.257570 0.052650 0.683630 -0.590523
O183  O     O_R   0.052650 0.742430 0.316370 -0.606045
O184  O     O_R   0.947350 0.257570 0.683630 -0.605163
O185  O     O_R   0.742430 0.052650 0.683630 -0.568775
O186  O     O_R   0.257570 0.947350 0.316370 -0.587694
O187  O     O_R   0.052650 0.257570 0.683630 -0.576184
O188  O     O_R   0.947350 0.742430 0.316370 -0.573476
O189  O     O_R   0.257570 0.947350 0.683630 -0.573362
O190  O     O_R   0.742430 0.052650 0.316370 -0.589852
O191  O     O_R   0.947350 0.742430 0.683630 -0.605303
O192  O     O_R   0.052650 0.257570 0.316370 -0.605707
C289  C     C_R   0.765505 0.889675 0.109608 0.189098
C290  C     C_R   0.715837 0.886071 0.119460 -0.029547
C291  C     C_R   0.683587 0.912955 0.091749 -0.135698
C292  C     C_R   0.700258 0.939868 0.052691 -0.127648
C293  C     C_R   0.749871 0.942294 0.042700 -0.126048
C294  C     C_R   0.782452 0.918237 0.071608 -0.126095
H1    H     H_    0.702881 0.864215 0.149330 0.080269
H2    H     H_    0.645907 0.913931 0.100354 0.090764
H3    H     H_    0.674445 0.959757 0.031178 0.092505
H4    H     H_    0.764153 0.962754 0.013050 0.101840
H5    H     H_    0.820792 0.920675 0.063660 0.099193
C295  C     C_R   0.247652 0.118734 0.881602 0.163126
C296  C     C_R   0.246308 0.076607 0.910133 -0.057659
C297  C     C_R   0.286831 0.063339 0.936627 -0.165757
C298  C     C_R   0.325240 0.095140 0.942029 -0.178974
C299  C     C_R   0.325118 0.138274 0.916446 -0.059533
C300  C     C_R   0.289752 0.147270 0.881272 -0.149816
H6    H     H_    0.214272 0.054061 0.911356 0.108745
H7    H     H_    0.287166 0.030142 0.955857 0.126822
H8    H     H_    0.354516 0.087032 0.966527 0.113332
H9    H     H_    0.350427 0.165541 0.926615 0.170380
H10   H     H_    0.289584 0.181552 0.862151 0.110481
C301  C     C_R   0.113762 0.886881 0.239193 0.194025
C302  C     C_R   0.119513 0.872933 0.287591 -0.054136
C303  C     C_R   0.093066 0.896831 0.323433 -0.137956
C304  C     C_R   0.064462 0.936640 0.311451 -0.129036
C305  C     C_R   0.061043 0.951245 0.263046 -0.112347
C306  C     C_R   0.084126 0.925678 0.226929 -0.100901
H11   H     H_    0.142519 0.842525 0.296654 0.078388
H12   H     H_    0.094078 0.884325 0.360121 0.089650
H13   H     H_    0.044945 0.955705 0.339658 0.092865
H14   H     H_    0.040315 0.982004 0.252103 0.092475
H15   H     H_    0.080147 0.936905 0.189557 0.092163
C307  C     C_R   0.880727 0.120638 0.748397 0.167100
C308  C     C_R   0.908017 0.077414 0.744349 -0.062305
C309  C     C_R   0.932418 0.066814 0.700824 -0.210071
C310  C     C_R   0.939021 0.102272 0.666195 -0.185666
C311  C     C_R   0.915411 0.145895 0.671635 -0.041276
C312  C     C_R   0.880430 0.152429 0.708399 -0.157077
H16   H     H_    0.909535 0.052014 0.774207 0.110525
H17   H     H_    0.950073 0.033124 0.694091 0.119911
H18   H     H_    0.962613 0.096220 0.635403 0.113740
H19   H     H_    0.926931 0.174779 0.648435 0.170483
H20   H     H_    0.862272 0.187107 0.711839 0.109188
C313  C     C_R   0.235032 0.889658 0.890220 0.189287
C314  C     C_R   0.284720 0.886911 0.880115 -0.030231
C315  C     C_R   0.316543 0.914424 0.907593 -0.137919
C316  C     C_R   0.299594 0.940587 0.947051 -0.128800
C317  C     C_R   0.249983 0.942212 0.957260 -0.124314
C318  C     C_R   0.217730 0.917844 0.928368 -0.125253
H21   H     H_    0.297914 0.865685 0.849887 0.081673
H22   H     H_    0.354060 0.916634 0.898398 0.091658
H23   H     H_    0.325178 0.960578 0.968642 0.092804
H24   H     H_    0.235393 0.962278 0.987032 0.101719
H25   H     H_    0.179377 0.919738 0.936443 0.098510
C319  C     C_R   0.752480 0.118804 0.118465 0.165040
C320  C     C_R   0.753745 0.076479 0.090234 -0.056833
C321  C     C_R   0.712993 0.062974 0.064295 -0.166626
C322  C     C_R   0.674642 0.094929 0.058641 -0.180653
C323  C     C_R   0.674982 0.138330 0.083717 -0.060384
C324  C     C_R   0.710311 0.147365 0.118867 -0.150402
H26   H     H_    0.785804 0.053850 0.089027 0.107788
H27   H     H_    0.712512 0.029544 0.045480 0.127288
H28   H     H_    0.645278 0.086750 0.034310 0.113980
H29   H     H_    0.649921 0.165750 0.073141 0.171395
H30   H     H_    0.710453 0.181731 0.137819 0.110497
C325  C     C_R   0.886511 0.887086 0.761267 0.193307
C326  C     C_R   0.880815 0.873158 0.712869 -0.053016
C327  C     C_R   0.907625 0.896693 0.677105 -0.136544
C328  C     C_R   0.936467 0.936199 0.689108 -0.128339
C329  C     C_R   0.939762 0.950897 0.737485 -0.113565
C330  C     C_R   0.916280 0.925671 0.773551 -0.101591
H31   H     H_    0.857801 0.842850 0.703789 0.077999
H32   H     H_    0.906821 0.884056 0.640477 0.089309
H33   H     H_    0.956259 0.954955 0.660919 0.092824
H34   H     H_    0.960663 0.981489 0.748421 0.093291
H35   H     H_    0.920201 0.936897 0.810916 0.093511
C331  C     C_R   0.119120 0.120700 0.251348 0.166791
C332  C     C_R   0.091660 0.077683 0.255571 -0.064360
C333  C     C_R   0.067186 0.067400 0.299141 -0.211359
C334  C     C_R   0.060812 0.102960 0.333680 -0.182891
C335  C     C_R   0.084646 0.146361 0.328112 -0.039726
C336  C     C_R   0.119591 0.152607 0.291257 -0.158347
H36   H     H_    0.090055 0.052223 0.225799 0.110745
H37   H     H_    0.049468 0.033839 0.306107 0.119353
H38   H     H_    0.037141 0.097182 0.364458 0.113529
H39   H     H_    0.073128 0.175387 0.351144 0.171285
H40   H     H_    0.137754 0.187206 0.287639 0.106896
C337  C     C_R   0.767609 0.108619 0.891379 0.185452
C338  C     C_R   0.717896 0.112604 0.882204 -0.023793
C339  C     C_R   0.685590 0.085783 0.910095 -0.135372
C340  C     C_R   0.702232 0.058664 0.948842 -0.125435
C341  C     C_R   0.751876 0.055766 0.958173 -0.126420
C342  C     C_R   0.784526 0.079938 0.929100 -0.133281
H41   H     H_    0.704952 0.134497 0.852451 0.080590
H42   H     H_    0.647917 0.084919 0.901732 0.089124
H43   H     H_    0.676288 0.039040 0.970626 0.091945
H44   H     H_    0.766129 0.034976 0.987494 0.102317
H45   H     H_    0.822864 0.077263 0.936552 0.100972
C343  C     C_R   0.248813 0.880311 0.118743 0.161549
C344  C     C_R   0.247653 0.922547 0.090341 -0.057461
C345  C     C_R   0.288308 0.935677 0.063535 -0.168401
C346  C     C_R   0.326584 0.903642 0.057586 -0.179049
C347  C     C_R   0.326208 0.860357 0.082894 -0.058408
C348  C     C_R   0.290762 0.851404 0.118381 -0.150892
H46   H     H_    0.215660 0.945264 0.089433 0.108819
H47   H     H_    0.288822 0.968866 0.044291 0.126340
H48   H     H_    0.355845 0.911640 0.032715 0.114117
H49   H     H_    0.351443 0.832984 0.072303 0.170976
H50   H     H_    0.290402 0.817021 0.137311 0.111422
C349  C     C_R   0.112190 0.112341 0.762109 0.187911
C350  C     C_R   0.127319 0.118133 0.714009 -0.044384
C351  C     C_R   0.101454 0.095607 0.677357 -0.144224
C352  C     C_R   0.057342 0.073747 0.687658 -0.125203
C353  C     C_R   0.041273 0.070959 0.735590 -0.084820
C354  C     C_R   0.069864 0.087246 0.772967 -0.112651
H51   H     H_    0.160130 0.137792 0.705896 0.083858
H52   H     H_    0.115498 0.094678 0.641296 0.098720
H53   H     H_    0.036510 0.057902 0.658733 0.093399
H54   H     H_    0.007978 0.053961 0.745116 0.105256
H55   H     H_    0.057450 0.083480 0.810052 0.092021
C355  C     C_R   0.896006 0.896538 0.224273 0.167060
C356  C     C_R   0.922797 0.932643 0.201409 -0.157338
C357  C     C_R   0.950256 0.963763 0.229019 -0.119908
C358  C     C_R   0.950932 0.958843 0.279587 -0.086007
C359  C     C_R   0.924857 0.922278 0.302231 -0.134868
C360  C     C_R   0.896560 0.891425 0.274411 -0.008235
H56   H     H_    0.922275 0.936612 0.162397 0.107378
H57   H     H_    0.971428 0.990744 0.210298 0.101201
H58   H     H_    0.972840 0.982043 0.301659 0.098042
H59   H     H_    0.927556 0.917860 0.340964 0.089773
H60   H     H_    0.876788 0.861588 0.290107 0.095968
C361  C     C_R   0.232806 0.109033 0.109127 0.186577
C362  C     C_R   0.282454 0.113897 0.118091 -0.025344
C363  C     C_R   0.315165 0.087317 0.090322 -0.132813
C364  C     C_R   0.298826 0.058916 0.052402 -0.125483
C365  C     C_R   0.249201 0.055149 0.043390 -0.127637
C366  C     C_R   0.216269 0.079453 0.072027 -0.130240
H61   H     H_    0.295106 0.136695 0.147235 0.078914
H62   H     H_    0.352951 0.087789 0.098042 0.089075
H63   H     H_    0.324958 0.039166 0.030865 0.091765
H64   H     H_    0.235149 0.033511 0.014682 0.100682
H65   H     H_    0.177953 0.076056 0.064788 0.101578
C367  C     C_R   0.751199 0.880389 0.881266 0.161595
C368  C     C_R   0.752125 0.922564 0.909705 -0.057629
C369  C     C_R   0.711413 0.935614 0.936470 -0.169157
C370  C     C_R   0.673234 0.903557 0.942320 -0.179033
C371  C     C_R   0.673795 0.860315 0.916959 -0.057780
C372  C     C_R   0.709363 0.851424 0.881529 -0.150970
H66   H     H_    0.784026 0.945298 0.910700 0.109439
H67   H     H_    0.710841 0.968780 0.955710 0.126996
H68   H     H_    0.643880 0.911517 0.967118 0.113704
H69   H     H_    0.648589 0.832941 0.927483 0.170603
H70   H     H_    0.709875 0.817057 0.862589 0.110858
C373  C     C_R   0.887754 0.112420 0.237954 0.187432
C374  C     C_R   0.872494 0.117994 0.286045 -0.045808
C375  C     C_R   0.898303 0.095182 0.322634 -0.143231
C376  C     C_R   0.942457 0.073251 0.312325 -0.125507
C377  C     C_R   0.958563 0.070587 0.264396 -0.084611
C378  C     C_R   0.930061 0.087186 0.227058 -0.111083
H71   H     H_    0.839589 0.137612 0.294219 0.084285
H72   H     H_    0.884153 0.094078 0.358643 0.098913
H73   H     H_    0.963299 0.057266 0.341228 0.093325
H74   H     H_    0.991848 0.053518 0.254813 0.104812
H75   H     H_    0.942516 0.083503 0.189977 0.092269
C379  C     C_R   0.104785 0.896166 0.774724 0.168226
C380  C     C_R   0.078722 0.932791 0.797769 -0.153668
C381  C     C_R   0.051149 0.964151 0.770425 -0.118919
C382  C     C_R   0.049627 0.959008 0.719926 -0.086325
C383  C     C_R   0.074631 0.921718 0.697143 -0.136615
C384  C     C_R   0.103129 0.890624 0.724653 -0.013150
H76   H     H_    0.079942 0.937003 0.836733 0.106870
H77   H     H_    0.030465 0.991435 0.789322 0.101401
H78   H     H_    0.027668 0.982474 0.698085 0.097875
H79   H     H_    0.070936 0.916902 0.658545 0.089723
H80   H     H_    0.121891 0.860138 0.708738 0.096919
C385  C     C_R   0.107658 0.231403 0.893130 0.179843
C386  C     C_R   0.113868 0.281790 0.888841 -0.015390
C387  C     C_R   0.088774 0.312491 0.920213 -0.128962
C388  C     C_R   0.057795 0.293156 0.954543 -0.113749
C389  C     C_R   0.051976 0.242911 0.958865 -0.131750
C390  C     C_R   0.076645 0.212051 0.928055 -0.138594
H81   H     H_    0.138990 0.296487 0.862542 0.090292
H82   H     H_    0.092790 0.351215 0.919117 0.089802
H83   H     H_    0.037071 0.317827 0.976633 0.092535
H84   H     H_    0.028479 0.227339 0.985773 0.104490
H85   H     H_    0.072331 0.173136 0.931858 0.104233
C391  C     C_R   0.879637 0.750408 0.119514 0.158124
C392  C     C_R   0.922556 0.749784 0.092242 -0.060315
C393  C     C_R   0.935899 0.707729 0.067663 -0.186339
C394  C     C_R   0.903058 0.670427 0.061022 -0.183504
C395  C     C_R   0.859058 0.672650 0.084867 -0.047925
C396  C     C_R   0.849933 0.709081 0.119366 -0.149164
H86   H     H_    0.946104 0.781162 0.091348 0.110150
H87   H     H_    0.970247 0.705206 0.050938 0.129510
H88   H     H_    0.911364 0.640316 0.037218 0.112280
H89   H     H_    0.831707 0.647602 0.074419 0.166990
H90   H     H_    0.815211 0.710784 0.137485 0.111682
C397  C     C_R   0.111047 0.764882 0.110989 0.190304
C398  C     C_R   0.120259 0.714766 0.113385 -0.031789
C399  C     C_R   0.095884 0.683845 0.081977 -0.118045
C400  C     C_R   0.061352 0.702451 0.050700 -0.125030
C401  C     C_R   0.050216 0.752106 0.051683 -0.153220
C402  C     C_R   0.075509 0.783258 0.080800 -0.120282
H91   H     H_    0.147973 0.700623 0.137006 0.080539
H92   H     H_    0.103811 0.645793 0.080895 0.088237
H93   H     H_    0.042899 0.678013 0.026426 0.098418
H94   H     H_    0.022081 0.767800 0.030509 0.093213
H95   H     H_    0.067507 0.821798 0.079868 0.099510
C403  C     C_R   0.879467 0.247427 0.878818 0.193835
C404  C     C_R   0.918570 0.246391 0.910415 -0.055527
C405  C     C_R   0.940063 0.289725 0.924161 -0.112567
C406  C     C_R   0.922090 0.334060 0.909112 -0.135177
C407  C     C_R   0.882516 0.335057 0.878805 -0.139612
C408  C     C_R   0.861180 0.292042 0.862763 -0.101310
H96   H     H_    0.933763 0.212059 0.921987 0.086221
H97   H     H_    0.970182 0.289066 0.947191 0.110810
H98   H     H_    0.938867 0.367513 0.920789 0.097183
H99   H     H_    0.869381 0.369569 0.867552 0.093908
H100  H     H_    0.831195 0.293317 0.837774 0.088569
C409  C     C_R   0.891864 0.768723 0.893476 0.178193
C410  C     C_R   0.893843 0.718739 0.883582 -0.024531
C411  C     C_R   0.922982 0.689216 0.912016 -0.153656
C412  C     C_R   0.942112 0.707172 0.954419 -0.124479
C413  C     C_R   0.937275 0.756452 0.965938 -0.106714
C414  C     C_R   0.914296 0.787570 0.934420 -0.130103
H101  H     H_    0.876102 0.703887 0.852060 0.099522
H102  H     H_    0.930596 0.652189 0.902233 0.095440
H103  H     H_    0.962942 0.682754 0.976504 0.093460
H104  H     H_    0.952359 0.771614 0.998174 0.104556
H105  H     H_    0.911892 0.825900 0.942976 0.100782
C415  C     C_R   0.114588 0.243124 0.115186 0.176312
C416  C     C_R   0.071633 0.239374 0.089000 -0.063303
C417  C     C_R   0.053245 0.280421 0.066406 -0.138321
C418  C     C_R   0.081082 0.322170 0.061603 -0.192913
C419  C     C_R   0.126117 0.323786 0.082900 -0.102022
C420  C     C_R   0.139506 0.287430 0.115775 -0.120867
H106  H     H_    0.051562 0.205650 0.088164 0.100390
H107  H     H_    0.019112 0.278678 0.049524 0.134744
H108  H     H_    0.068294 0.353138 0.041283 0.109482
H109  H     H_    0.149363 0.353343 0.073825 0.140495
H110  H     H_    0.173864 0.288854 0.133900 0.101870
C421  C     C_R   0.891545 0.232436 0.106852 0.183681
C422  C     C_R   0.889907 0.282452 0.116495 -0.028508
C423  C     C_R   0.913450 0.314379 0.085279 -0.148864
C424  C     C_R   0.932779 0.297537 0.042010 -0.127157
C425  C     C_R   0.934074 0.247582 0.032632 -0.132255
C426  C     C_R   0.915096 0.215047 0.065623 -0.138836
H111  H     H_    0.872015 0.295984 0.148677 0.088889
H112  H     H_    0.917736 0.351905 0.094403 0.092371
H113  H     H_    0.949781 0.323210 0.017815 0.100161
H114  H     H_    0.951103 0.233012 0.001018 0.102251
H115  H     H_    0.916252 0.176508 0.057788 0.101827
C427  C     C_R   0.116365 0.756178 0.883681 0.188470
C428  C     C_R   0.083360 0.765020 0.920976 -0.080172
C429  C     C_R   0.052821 0.728223 0.935845 -0.105515
C430  C     C_R   0.053351 0.683189 0.913545 -0.131816
C431  C     C_R   0.085454 0.674911 0.875942 -0.122615
C432  C     C_R   0.119517 0.709946 0.862733 -0.096544
H116  H     H_    0.079907 0.800816 0.936906 0.097524
H117  H     H_    0.027094 0.735602 0.962930 0.120274
H118  H     H_    0.027969 0.655263 0.924126 0.096459
H119  H     H_    0.082047 0.641864 0.856480 0.101355
H120  H     H_    0.143222 0.703835 0.832057 0.086408
C433  C     C_R   0.261765 0.389240 0.112446 0.203041
C434  C     C_R   0.275836 0.430979 0.087908 -0.140694
C435  C     C_R   0.243729 0.469459 0.084374 -0.125106
C436  C     C_R   0.195873 0.465268 0.099352 -0.100650
C437  C     C_R   0.180909 0.422718 0.121437 -0.147141
C438  C     C_R   0.213906 0.384790 0.129000 -0.091580
H121  H     H_    0.313520 0.436674 0.078532 0.098990
H122  H     H_    0.257445 0.502889 0.072612 0.154122
H123  H     H_    0.171143 0.495488 0.096190 0.105215
H124  H     H_    0.144884 0.421028 0.135550 0.142007
H125  H     H_    0.204739 0.356337 0.154031 0.095002
C439  C     C_R   0.737900 0.613456 0.886533 0.199834
C440  C     C_R   0.724354 0.584778 0.925525 -0.114506
C441  C     C_R   0.757722 0.574918 0.960899 -0.120963
C442  C     C_R   0.805706 0.589737 0.956110 -0.111582
C443  C     C_R   0.819529 0.616112 0.915707 -0.127004
C444  C     C_R   0.785950 0.628218 0.880354 -0.071763
H126  H     H_    0.686889 0.574561 0.931071 0.093961
H127  H     H_    0.744895 0.555699 0.991555 0.087091
H128  H     H_    0.832162 0.582201 0.983696 0.092938
H129  H     H_    0.855087 0.630189 0.914412 0.104732
H130  H     H_    0.795397 0.653884 0.852300 0.078379
C445  C     C_R   0.115790 0.384107 0.744347 0.190960
C446  C     C_R   0.070236 0.406274 0.742780 -0.084013
C447  C     C_R   0.044151 0.411511 0.785720 -0.115700
C448  C     C_R   0.066718 0.405936 0.830160 -0.161132
C449  C     C_R   0.114585 0.390791 0.831324 -0.144682
C450  C     C_R   0.137812 0.375718 0.789149 -0.067475
H131  H     H_    0.051968 0.410730 0.708482 0.095243
H132  H     H_    0.006783 0.420110 0.784624 0.146269
H133  H     H_    0.047246 0.413494 0.863406 0.102941
H134  H     H_    0.132803 0.388925 0.865030 0.098159
H135  H     H_    0.173288 0.359138 0.790979 0.091162
C451  C     C_R   0.882026 0.618744 0.253669 0.156007
C452  C     C_R   0.911180 0.576898 0.253781 -0.067427
C453  C     C_R   0.938094 0.565084 0.212606 -0.171906
C454  C     C_R   0.942675 0.597741 0.174745 -0.171924
C455  C     C_R   0.916245 0.640353 0.176062 -0.051267
C456  C     C_R   0.881165 0.648311 0.212125 -0.156512
H136  H     H_    0.912703 0.553622 0.285341 0.111485
H137  H     H_    0.958025 0.532295 0.210811 0.124496
H138  H     H_    0.967487 0.590792 0.145141 0.114191
H139  H     H_    0.926082 0.668457 0.151638 0.175632
H140  H     H_    0.861603 0.682388 0.213006 0.111749
C457  C     C_R   0.725823 0.395386 0.894904 0.174790
C458  C     C_R   0.776104 0.394134 0.892850 -0.013288
C459  C     C_R   0.802833 0.428820 0.917712 -0.142140
C460  C     C_R   0.778694 0.464863 0.943499 -0.087855
C461  C     C_R   0.727959 0.465638 0.945294 -0.118482
C462  C     C_R   0.701672 0.430634 0.921677 -0.157327
H141  H     H_    0.792869 0.367294 0.870149 0.092433
H142  H     H_    0.841872 0.428796 0.916510 0.092699
H143  H     H_    0.799822 0.491458 0.962361 0.106610
H144  H     H_    0.707734 0.492658 0.964797 0.101034
H145  H     H_    0.662509 0.432019 0.922616 0.105262
C463  C     C_R   0.273344 0.605293 0.102261 0.176173
C464  C     C_R   0.295435 0.587497 0.060186 -0.198577
C465  C     C_R   0.267286 0.572242 0.021807 -0.127917
C466  C     C_R   0.216826 0.572237 0.025887 -0.099319
C467  C     C_R   0.194670 0.588192 0.068386 -0.182829
C468  C     C_R   0.222659 0.605737 0.106365 -0.027083
H146  H     H_    0.334450 0.587584 0.056338 0.112973
H147  H     H_    0.285527 0.556051 0.991727 0.127299
H148  H     H_    0.194727 0.557206 0.997860 0.135180
H149  H     H_    0.155939 0.586171 0.071739 0.089018
H150  H     H_    0.205226 0.621164 0.137909 0.096093
C469  C     C_R   0.890106 0.389981 0.264799 0.189776
C470  C     C_R   0.881425 0.385395 0.215039 -0.030436
C471  C     C_R   0.909013 0.412432 0.182521 -0.137805
C472  C     C_R   0.946124 0.441703 0.199275 -0.126441
C473  C     C_R   0.954623 0.445628 0.249037 -0.124760
C474  C     C_R   0.926450 0.420350 0.281703 -0.125021
H151  H     H_    0.852735 0.362252 0.202135 0.078840
H152  H     H_    0.901733 0.411572 0.144531 0.090474
H153  H     H_    0.967530 0.461868 0.173381 0.092356
H154  H     H_    0.982449 0.468355 0.263330 0.097386
H155  H     H_    0.933283 0.423834 0.320127 0.097953
C475  C     C_R   0.104045 0.600788 0.725495 0.161922
C476  C     C_R   0.082211 0.560629 0.703400 -0.200441
C477  C     C_R   0.064720 0.522654 0.731693 -0.140107
C478  C     C_R   0.068469 0.524885 0.782142 -0.106288
C479  C     C_R   0.091227 0.563846 0.804038 -0.166621
C480  C     C_R   0.108726 0.602185 0.775909 -0.035554
H156  H     H_    0.080113 0.558189 0.664339 0.115657
H157  H     H_    0.046426 0.493125 0.714286 0.119478
H158  H     H_    0.051734 0.498450 0.805136 0.125369
H159  H     H_    0.095218 0.563564 0.842805 0.097399
H160  H     H_    0.130054 0.630459 0.792276 0.099728
C481  C     C_R   0.260879 0.609315 0.889657 0.189174
C482  C     C_R   0.212746 0.625254 0.885665 -0.034906
C483  C     C_R   0.174958 0.594174 0.898573 -0.171533
C484  C     C_R   0.184075 0.545391 0.906846 -0.158642
C485  C     C_R   0.231603 0.529542 0.909223 -0.089021
C486  C     C_R   0.269943 0.562099 0.906139 -0.156585
H161  H     H_    0.205076 0.661413 0.872695 0.104848
H162  H     H_    0.138462 0.606479 0.899958 0.117332
H163  H     H_    0.154567 0.519939 0.911012 0.107062
H164  H     H_    0.238972 0.491923 0.907302 0.176631
H165  H     H_    0.306590 0.548069 0.906516 0.100472
C487  C     C_R   0.735218 0.390166 0.110057 0.184067
C488  C     C_R   0.719459 0.428611 0.081498 -0.120559
C489  C     C_R   0.752847 0.455610 0.055983 -0.089960
C490  C     C_R   0.801808 0.442972 0.056320 -0.117156
C491  C     C_R   0.817400 0.404520 0.084625 -0.138049
C492  C     C_R   0.784618 0.378959 0.113268 -0.035144
H166  H     H_    0.681484 0.438210 0.079904 0.097518
H167  H     H_    0.739855 0.486366 0.036433 0.099194
H168  H     H_    0.828103 0.462880 0.035212 0.094072
H169  H     H_    0.854690 0.394757 0.083464 0.095662
H170  H     H_    0.796835 0.349025 0.135448 0.083316
C493  C     C_R   0.112374 0.612445 0.262888 0.193675
C494  C     C_R   0.123337 0.618868 0.213673 -0.039858
C495  C     C_R   0.097229 0.593052 0.179237 -0.133536
C496  C     C_R   0.058976 0.563538 0.193811 -0.124685
C497  C     C_R   0.048055 0.558603 0.243142 -0.120376
C498  C     C_R   0.075114 0.581976 0.277501 -0.118013
H171  H     H_    0.152526 0.642567 0.202707 0.076131
H172  H     H_    0.106762 0.595260 0.141590 0.088383
H173  H     H_    0.038514 0.543923 0.166951 0.093247
H174  H     H_    0.019549 0.536019 0.256189 0.095270
H175  H     H_    0.066475 0.577198 0.315525 0.095070
C499  C     C_R   0.897624 0.398623 0.723950 0.170764
C500  C     C_R   0.923556 0.436010 0.701546 -0.178438
C501  C     C_R   0.943195 0.472925 0.729488 -0.143575
C502  C     C_R   0.936396 0.472970 0.779692 -0.117817
C503  C     C_R   0.911923 0.435000 0.802198 -0.165454
C504  C     C_R   0.893017 0.397417 0.774261 -0.011951
H176  H     H_    0.926897 0.437471 0.662496 0.111724
H177  H     H_    0.963572 0.501181 0.711902 0.127992
H178  H     H_    0.953125 0.499960 0.801925 0.134110
H179  H     H_    0.907700 0.435357 0.841069 0.096518
H180  H     H_    0.871112 0.369302 0.790111 0.100269
C505  C     C_R   0.750613 0.620336 0.122340 0.157816
C506  C     C_R   0.790777 0.621023 0.153418 -0.166212
C507  C     C_R   0.826395 0.584730 0.147938 -0.039292
C508  C     C_R   0.829042 0.556594 0.106985 -0.165178
C509  C     C_R   0.792950 0.560554 0.073251 -0.187731
C510  C     C_R   0.751850 0.589163 0.082248 -0.060124
H181  H     H_    0.788282 0.640986 0.187068 0.107277
H182  H     H_    0.849011 0.573880 0.176883 0.179646
H183  H     H_    0.857911 0.530363 0.102369 0.112593
H184  H     H_    0.797151 0.538770 0.041855 0.110361
H185  H     H_    0.720368 0.586551 0.059445 0.103733
C511  C     C_R   0.275184 0.397137 0.899266 0.168206
C512  C     C_R   0.224793 0.392146 0.899458 -0.037063
C513  C     C_R   0.197602 0.410037 0.938404 -0.168186
C514  C     C_R   0.220538 0.434665 0.975812 -0.109350
C515  C     C_R   0.270776 0.441619 0.974328 -0.148400
C516  C     C_R   0.298069 0.422325 0.936573 -0.197966
H186  H     H_    0.208225 0.369846 0.872141 0.093384
H187  H     H_    0.158975 0.404775 0.940199 0.093585
H188  H     H_    0.198643 0.450509 0.003997 0.129456
H189  H     H_    0.288826 0.463896 0.000520 0.122253
H190  H     H_    0.337034 0.426204 0.936792 0.116996
C517  C     C_R   0.892308 0.608709 0.736226 0.192115
C518  C     C_R   0.877170 0.612233 0.784708 -0.036711
C519  C     C_R   0.908217 0.598249 0.821709 -0.173588
C520  C     C_R   0.956839 0.590689 0.811604 -0.147720
C521  C     C_R   0.971986 0.588680 0.763574 -0.092965
C522  C     C_R   0.938994 0.591872 0.725852 -0.146394
H191  H     H_    0.841387 0.625334 0.793151 0.100542
H192  H     H_    0.895530 0.595396 0.858178 0.105765
H193  H     H_    0.982528 0.585911 0.840629 0.100534
H194  H     H_    0.009292 0.589614 0.755287 0.170651
H195  H     H_    0.952245 0.591387 0.688867 0.096853
C523  C     C_R   0.117089 0.383509 0.254045 0.188665
C524  C     C_R   0.088863 0.426010 0.254897 -0.056127
C525  C     C_R   0.063613 0.439633 0.213520 -0.135757
C526  C     C_R   0.058846 0.407661 0.175267 -0.180715
C527  C     C_R   0.084272 0.364530 0.176213 -0.100366
C528  C     C_R   0.119661 0.356210 0.211236 -0.123846
H196  H     H_    0.086765 0.448309 0.287121 0.098435
H197  H     H_    0.043741 0.472487 0.212332 0.116455
H198  H     H_    0.034145 0.415161 0.145991 0.112775
H199  H     H_    0.072299 0.336004 0.153234 0.178026
H200  H     H_    0.139340 0.322196 0.211047 0.100562
C529  C     C_R   0.609072 0.108599 0.733356 0.186814
C530  C     C_R   0.613409 0.118047 0.783052 -0.025579
C531  C     C_R   0.587192 0.090022 0.815802 -0.135345
C532  C     C_R   0.559825 0.051291 0.799485 -0.127443
C533  C     C_R   0.556851 0.041568 0.749862 -0.127890
C534  C     C_R   0.580551 0.070602 0.716852 -0.130647
H201  H     H_    0.635610 0.147666 0.795720 0.080799
H202  H     H_    0.587266 0.098043 0.853626 0.090412
H203  H     H_    0.540187 0.029690 0.825608 0.092646
H204  H     H_    0.536463 0.011862 0.735918 0.103609
H205  H     H_    0.577759 0.062810 0.678524 0.101373
C535  C     C_R   0.380768 0.881296 0.252038 0.163641
C536  C     C_R   0.352036 0.880771 0.210202 -0.152048
C537  C     C_R   0.360634 0.916025 0.174407 -0.058728
C538  C     C_R   0.403526 0.941707 0.173490 -0.177658
C539  C     C_R   0.435616 0.936213 0.211453 -0.169658
C540  C     C_R   0.422716 0.909904 0.252490 -0.056409
H206  H     H_    0.317933 0.861584 0.210875 0.110007
H207  H     H_    0.333246 0.926251 0.149382 0.170977
H208  H     H_    0.411275 0.966333 0.143956 0.114274
H209  H     H_    0.468736 0.955333 0.210413 0.126911
H210  H     H_    0.445434 0.911315 0.284264 0.109264
C541  C     C_R   0.617951 0.747462 0.881172 0.162163
C542  C     C_R   0.618309 0.789760 0.852730 -0.149092
C543  C     C_R   0.582971 0.825345 0.861635 -0.061206
C544  C     C_R   0.557005 0.825442 0.904522 -0.177466
C545  C     C_R   0.562341 0.786829 0.936257 -0.163844
C546  C     C_R   0.589348 0.746163 0.923241 -0.061261
H211  H     H_    0.637589 0.789554 0.818554 0.111451
H212  H     H_    0.572832 0.850654 0.834325 0.171091
H213  H     H_    0.532098 0.854737 0.912417 0.113671
H214  H     H_    0.542566 0.787148 0.969113 0.125473
H215  H     H_    0.588162 0.713955 0.945727 0.108730
C547  C     C_R   0.391835 0.266290 0.108586 0.188220
C548  C     C_R   0.429746 0.283829 0.080307 -0.130955
C549  C     C_R   0.459044 0.251544 0.055804 -0.128273
C550  C     C_R   0.449757 0.201627 0.057931 -0.126690
C551  C     C_R   0.410881 0.184344 0.084640 -0.138303
C552  C     C_R   0.382654 0.216296 0.111720 -0.027814
H216  H     H_    0.437193 0.322399 0.078231 0.101042
H217  H     H_    0.488546 0.266256 0.035399 0.103027
H218  H     H_    0.471685 0.175978 0.037978 0.092523
H219  H     H_    0.402844 0.146409 0.083308 0.089675
H220  H     H_    0.352860 0.202844 0.133357 0.081358
C553  C     C_R   0.609019 0.891651 0.266695 0.187651
C554  C     C_R   0.612821 0.881868 0.216983 -0.025936
C555  C     C_R   0.585748 0.909361 0.184712 -0.136145
C556  C     C_R   0.558503 0.948252 0.201368 -0.127205
C557  C     C_R   0.555736 0.958085 0.251020 -0.127242
C558  C     C_R   0.580187 0.929473 0.283628 -0.130184
H221  H     H_    0.634784 0.852008 0.204044 0.080150
H222  H     H_    0.584786 0.900626 0.147052 0.089858
H223  H     H_    0.538805 0.969843 0.175457 0.092255
H224  H     H_    0.534939 0.987508 0.265354 0.102447
H225  H     H_    0.577556 0.937340 0.321987 0.100995
C559  C     C_R   0.380220 0.118680 0.748654 0.161625
C560  C     C_R   0.351396 0.118349 0.790695 -0.149719
C561  C     C_R   0.360554 0.082869 0.826031 -0.055925
C562  C     C_R   0.404215 0.058405 0.826701 -0.182605
C563  C     C_R   0.436351 0.064845 0.788536 -0.171769
C564  C     C_R   0.422721 0.090731 0.747576 -0.055398
H226  H     H_    0.316892 0.136884 0.790265 0.111709
H227  H     H_    0.333159 0.071706 0.850973 0.170607
H228  H     H_    0.412516 0.034006 0.856196 0.114382
H229  H     H_    0.470125 0.046721 0.789335 0.128952
H230  H     H_    0.445512 0.089891 0.715565 0.108653
C565  C     C_R   0.618628 0.252139 0.119158 0.163314
C566  C     C_R   0.618649 0.209783 0.147535 -0.149401
C567  C     C_R   0.583510 0.174272 0.138376 -0.060978
C568  C     C_R   0.558770 0.173979 0.095036 -0.180922
C569  C     C_R   0.564793 0.212561 0.063293 -0.166250
C570  C     C_R   0.590633 0.253506 0.076996 -0.056117
H231  H     H_    0.637352 0.209950 0.181805 0.111344
H232  H     H_    0.572845 0.148961 0.165604 0.170842
H233  H     H_    0.534462 0.144467 0.086706 0.114451
H234  H     H_    0.546433 0.212142 0.029808 0.128314
H235  H     H_    0.589673 0.285749 0.054548 0.107927
C571  C     C_R   0.389964 0.734614 0.889881 0.190857
C572  C     C_R   0.426934 0.717667 0.919353 -0.125861
C573  C     C_R   0.455030 0.750365 0.944081 -0.126421
C574  C     C_R   0.445557 0.800201 0.941092 -0.127484
C575  C     C_R   0.407622 0.816943 0.913018 -0.135382
C576  C     C_R   0.380506 0.784492 0.885761 -0.029346
H236  H     H_    0.434467 0.679149 0.922374 0.098477
H237  H     H_    0.483572 0.735904 0.965566 0.099196
H238  H     H_    0.466759 0.826132 0.961162 0.092429
H239  H     H_    0.399358 0.854827 0.913474 0.091254
H240  H     H_    0.351357 0.797439 0.863262 0.079439
C577  C     C_R   0.391820 0.892432 0.732193 0.185112
C578  C     C_R   0.387770 0.882410 0.781861 -0.022433
C579  C     C_R   0.414339 0.909902 0.814418 -0.137326
C580  C     C_R   0.441037 0.949239 0.798137 -0.127068
C581  C     C_R   0.443737 0.959592 0.748580 -0.126905
C582  C     C_R   0.420035 0.930805 0.715645 -0.134292
H241  H     H_    0.366066 0.852311 0.794541 0.081526
H242  H     H_    0.415286 0.900832 0.852012 0.090325
H243  H     H_    0.460472 0.970718 0.824252 0.092703
H244  H     H_    0.463880 0.989589 0.734602 0.104281
H245  H     H_    0.422633 0.939043 0.677358 0.101601
C583  C     C_R   0.619047 0.118445 0.252509 0.165058
C584  C     C_R   0.576859 0.090179 0.253600 -0.056355
C585  C     C_R   0.563544 0.064165 0.212665 -0.167158
C586  C     C_R   0.595645 0.058207 0.174386 -0.180664
C587  C     C_R   0.638840 0.083366 0.174830 -0.059912
C588  C     C_R   0.647613 0.118771 0.210272 -0.149035
H246  H     H_    0.554148 0.089066 0.285655 0.107311
H247  H     H_    0.530076 0.045597 0.211918 0.127418
H248  H     H_    0.587649 0.033706 0.144933 0.114464
H249  H     H_    0.666282 0.072690 0.149728 0.171369
H250  H     H_    0.681822 0.137748 0.210503 0.110416
C589  C     C_R   0.381110 0.252415 0.880566 0.164817
C590  C     C_R   0.380720 0.210257 0.851943 -0.152067
C591  C     C_R   0.415943 0.174548 0.860553 -0.060080
C592  C     C_R   0.441430 0.173977 0.903440 -0.178345
C593  C     C_R   0.435844 0.212345 0.935442 -0.167151
C594  C     C_R   0.409549 0.253339 0.922462 -0.056444
H251  H     H_    0.361698 0.210683 0.817839 0.109912
H252  H     H_    0.426398 0.149523 0.833042 0.172711
H253  H     H_    0.466079 0.144484 0.911162 0.114429
H254  H     H_    0.454922 0.211722 0.968480 0.127935
H255  H     H_    0.410823 0.285433 0.945071 0.107997
C595  C     C_R   0.609130 0.732949 0.109347 0.187050
C596  C     C_R   0.571985 0.715835 0.080339 -0.129082
C597  C     C_R   0.543439 0.748497 0.055822 -0.126034
C598  C     C_R   0.552696 0.798391 0.058674 -0.125555
C599  C     C_R   0.590694 0.815283 0.086415 -0.134420
C600  C     C_R   0.618208 0.782910 0.113403 -0.025537
H256  H     H_    0.564609 0.677301 0.077598 0.100921
H257  H     H_    0.514604 0.734021 0.034763 0.100119
H258  H     H_    0.531263 0.824352 0.038805 0.092018
H259  H     H_    0.598636 0.853240 0.086018 0.089486
H260  H     H_    0.647370 0.796016 0.135753 0.079155
C601  C     C_R   0.389913 0.109565 0.265240 0.189239
C602  C     C_R   0.418635 0.071684 0.281945 -0.125086
C603  C     C_R   0.442910 0.042872 0.249155 -0.127259
C604  C     C_R   0.440402 0.052697 0.199525 -0.128607
C605  C     C_R   0.413057 0.091510 0.183040 -0.135007
C606  C     C_R   0.386132 0.119259 0.215556 -0.030556
H261  H     H_    0.421213 0.063858 0.320295 0.100780
H262  H     H_    0.463543 0.013390 0.263336 0.101995
H263  H     H_    0.460401 0.031134 0.173582 0.092705
H264  H     H_    0.413719 0.099922 0.145302 0.090916
H265  H     H_    0.364085 0.149024 0.202768 0.080316
C607  C     C_R   0.619672 0.881008 0.748463 0.162420
C608  C     C_R   0.577491 0.909404 0.747801 -0.054732
C609  C     C_R   0.564121 0.935496 0.788822 -0.170756
C610  C     C_R   0.596110 0.941320 0.826824 -0.179941
C611  C     C_R   0.639378 0.916142 0.825909 -0.057585
C612  C     C_R   0.648370 0.880835 0.790286 -0.151811
H266  H     H_    0.554842 0.910627 0.715964 0.109078
H267  H     H_    0.530690 0.954199 0.789772 0.127985
H268  H     H_    0.587994 0.965766 0.856407 0.113977
H269  H     H_    0.666678 0.926718 0.850845 0.170802
H270  H     H_    0.682671 0.861898 0.789646 0.110648
C613  C     C_R   0.381403 0.747956 0.119173 0.160712
C614  C     C_R   0.409954 0.746580 0.077037 -0.058217
C615  C     C_R   0.436924 0.787125 0.063896 -0.166105
C616  C     C_R   0.442543 0.825611 0.095683 -0.178188
C617  C     C_R   0.416892 0.825498 0.138756 -0.058399
C618  C     C_R   0.381485 0.790096 0.147801 -0.150436
H271  H     H_    0.410992 0.714425 0.054484 0.108503
H272  H     H_    0.456405 0.787408 0.030838 0.125300
H273  H     H_    0.467403 0.854835 0.087678 0.113468
H274  H     H_    0.427344 0.850673 0.166049 0.170679
H275  H     H_    0.362468 0.789807 0.182114 0.111450
C619  C     C_R   0.609836 0.264429 0.889578 0.191812
C620  C     C_R   0.571913 0.281848 0.918071 -0.125075
C621  C     C_R   0.542686 0.249532 0.942427 -0.127720
C622  C     C_R   0.552159 0.199660 0.940307 -0.129270
C623  C     C_R   0.591242 0.182504 0.913671 -0.137229
C624  C     C_R   0.619390 0.214508 0.886567 -0.033044
H276  H     H_    0.564283 0.320407 0.920253 0.097840
H277  H     H_    0.513182 0.264230 0.962850 0.102209
H278  H     H_    0.530245 0.174057 0.960294 0.092668
H279  H     H_    0.599478 0.144628 0.915081 0.090949
H280  H     H_    0.649275 0.201169 0.864956 0.080693
C625  C     C_R   0.896466 0.728620 0.394740 0.183364
C626  C     C_R   0.887461 0.778951 0.394394 -0.024133
C627  C     C_R   0.924326 0.811560 0.405887 -0.199148
C628  C     C_R   0.971215 0.794789 0.409556 -0.102873
C629  C     C_R   0.979911 0.745066 0.408934 -0.081229
C630  C     C_R   0.942491 0.711830 0.406520 -0.212153
H281  H     H_    0.852635 0.792225 0.383333 0.116081
H282  H     H_    0.918349 0.849991 0.409366 0.103512
H283  H     H_    0.000325 0.820639 0.411376 0.113300
H284  H     H_    0.015043 0.731795 0.403468 0.169602
H285  H     H_    0.951134 0.673503 0.403928 0.109494
C631  C     C_R   0.107460 0.268255 0.607968 0.186658
C632  C     C_R   0.070558 0.287557 0.579939 -0.133114
C633  C     C_R   0.037116 0.256954 0.559567 -0.143401
C634  C     C_R   0.040879 0.206541 0.565769 -0.129623
C635  C     C_R   0.078717 0.187138 0.592215 -0.136436
C636  C     C_R   0.112292 0.217797 0.613848 -0.017936
H286  H     H_    0.066634 0.326475 0.575543 0.102205
H287  H     H_    0.009397 0.273490 0.538222 0.096896
H288  H     H_    0.015908 0.181823 0.548872 0.101171
H289  H     H_    0.080866 0.148462 0.595982 0.090703
H290  H     H_    0.140509 0.202922 0.636375 0.082018
C637  C     C_R   0.266982 0.892247 0.392748 0.186323
C638  C     C_R   0.216978 0.886454 0.386116 -0.021521
C639  C     C_R   0.184865 0.906927 0.419500 -0.139076
C640  C     C_R   0.202366 0.931239 0.459827 -0.123323
C641  C     C_R   0.252223 0.936854 0.465904 -0.132753
C642  C     C_R   0.284326 0.918595 0.432040 -0.135744
H291  H     H_    0.203419 0.865237 0.356219 0.086542
H292  H     H_    0.146529 0.903748 0.414988 0.090454
H293  H     H_    0.177048 0.947006 0.485265 0.105255
H294  H     H_    0.266724 0.956992 0.495561 0.102131
H295  H     H_    0.322834 0.922829 0.437652 0.101396
C643  C     C_R   0.744804 0.116391 0.617111 0.176257
C644  C     C_R   0.740075 0.081150 0.581055 -0.079935
C645  C     C_R   0.776957 0.047440 0.573784 -0.143854
C646  C     C_R   0.818283 0.047852 0.601666 -0.145120
C647  C     C_R   0.822842 0.082569 0.637450 -0.087756
C648  C     C_R   0.787809 0.118951 0.643766 -0.149871
H296  H     H_    0.706401 0.077379 0.561635 0.102865
H297  H     H_    0.772856 0.019284 0.548178 0.129019
H298  H     H_    0.845233 0.019577 0.597565 0.112026
H299  H     H_    0.850120 0.077228 0.663488 0.175704
H300  H     H_    0.789354 0.142030 0.675365 0.107946
C649  C     C_R   0.119238 0.253322 0.382353 0.152991
C650  C     C_R   0.147632 0.210706 0.381705 -0.148808
C651  C     C_R   0.140448 0.175332 0.418152 -0.064517
C652  C     C_R   0.102429 0.179298 0.450516 -0.155270
C653  C     C_R   0.073265 0.220001 0.449045 -0.146682
C654  C     C_R   0.081467 0.257236 0.415951 -0.075510
H301  H     H_    0.180089 0.210085 0.359831 0.107694
H302  H     H_    0.166430 0.147624 0.425738 0.159953
H303  H     H_    0.097328 0.152299 0.478571 0.106171
H304  H     H_    0.046085 0.223558 0.475753 0.127991
H305  H     H_    0.060928 0.290624 0.418691 0.106761
C655  C     C_R   0.894053 0.727236 0.601947 0.154182
C656  C     C_R   0.912991 0.705184 0.560147 -0.208250
C657  C     C_R   0.932143 0.733730 0.523352 -0.121457
C658  C     C_R   0.930602 0.784321 0.526774 -0.098849
C659  C     C_R   0.910028 0.806420 0.567249 -0.175665
C660  C     C_R   0.892134 0.778138 0.605267 -0.032328
H306  H     H_    0.913580 0.666006 0.556596 0.115916
H307  H     H_    0.951459 0.716021 0.494820 0.140555
H308  H     H_    0.947515 0.806773 0.499754 0.127669
H309  H     H_    0.909211 0.845436 0.569064 0.090434
H310  H     H_    0.874684 0.795373 0.635814 0.097507
C661  C     C_R   0.732140 0.107648 0.391966 0.192802
C662  C     C_R   0.713345 0.076323 0.426825 -0.136341
C663  C     C_R   0.743592 0.056726 0.461241 -0.156066
C664  C     C_R   0.792991 0.068129 0.461159 -0.127304
C665  C     C_R   0.811942 0.098524 0.425779 -0.128634
C666  C     C_R   0.781932 0.117264 0.389916 -0.030168
H311  H     H_    0.674920 0.068829 0.428553 0.102403
H312  H     H_    0.727700 0.032820 0.487499 0.100648
H313  H     H_    0.817262 0.052917 0.487588 0.105629
H314  H     H_    0.849358 0.108808 0.427870 0.085671
H315  H     H_    0.795946 0.143045 0.364050 0.075278
C667  C     C_R   0.257612 0.884475 0.616219 0.196788
C668  C     C_R   0.258340 0.925584 0.586466 -0.079822
C669  C     C_R   0.214988 0.949452 0.576310 -0.116991
C670  C     C_R   0.171430 0.932184 0.594207 -0.130037
C671  C     C_R   0.171385 0.891206 0.623234 -0.133541
C672  C     C_R   0.213891 0.867233 0.634653 -0.087112
H316  H     H_    0.292370 0.940391 0.573802 0.088200
H317  H     H_    0.214507 0.980954 0.554149 0.121156
H318  H     H_    0.137916 0.950672 0.585928 0.097680
H319  H     H_    0.138542 0.878293 0.637513 0.097011
H320  H     H_    0.213115 0.836567 0.659218 0.085570
C673  C     C_R   0.104682 0.732097 0.606558 0.190601
C674  C     C_R   0.114591 0.782212 0.607322 -0.029284
C675  C     C_R   0.078429 0.815635 0.595114 -0.195910
C676  C     C_R   0.031262 0.799948 0.590501 -0.114879
C677  C     C_R   0.021772 0.750473 0.590451 -0.083229
C678  C     C_R   0.058650 0.716472 0.593252 -0.199437
H321  H     H_    0.149602 0.794663 0.618608 0.112441
H322  H     H_    0.085122 0.853861 0.591376 0.105147
H323  H     H_    0.002459 0.826253 0.587545 0.110562
H324  H     H_    0.986174 0.738030 0.594691 0.171420
H325  H     H_    0.049318 0.678288 0.594968 0.103887
C679  C     C_R   0.891283 0.266534 0.390965 0.189052
C680  C     C_R   0.927845 0.286307 0.419067 -0.128422
C681  C     C_R   0.961566 0.256102 0.439806 -0.140546
C682  C     C_R   0.958300 0.205628 0.434101 -0.130486
C683  C     C_R   0.920758 0.185758 0.407678 -0.138089
C684  C     C_R   0.887050 0.216021 0.385478 -0.021556
H326  H     H_    0.931331 0.325284 0.423162 0.100168
H327  H     H_    0.989103 0.272948 0.461060 0.096308
H328  H     H_    0.983458 0.181242 0.451348 0.100967
H329  H     H_    0.918925 0.147023 0.404427 0.091232
H330  H     H_    0.859113 0.200798 0.362941 0.081256
C685  C     C_R   0.733294 0.891750 0.607565 0.185681
C686  C     C_R   0.783270 0.886187 0.614664 -0.022733
C687  C     C_R   0.815524 0.906143 0.581179 -0.140206
C688  C     C_R   0.798236 0.929273 0.540038 -0.123738
C689  C     C_R   0.748404 0.934464 0.533325 -0.130547
C690  C     C_R   0.716117 0.917216 0.567538 -0.135192
H331  H     H_    0.796715 0.865638 0.645115 0.086986
H332  H     H_    0.853819 0.903421 0.586227 0.090734
H333  H     H_    0.823700 0.944450 0.514445 0.104702
H334  H     H_    0.734074 0.953521 0.502859 0.101935
H335  H     H_    0.677635 0.921148 0.561476 0.101627
C691  C     C_R   0.253868 0.117916 0.381299 0.173378
C692  C     C_R   0.258633 0.083096 0.417845 -0.074313
C693  C     C_R   0.222026 0.049253 0.425325 -0.147606
C694  C     C_R   0.181022 0.048965 0.397041 -0.146579
C695  C     C_R   0.176536 0.083094 0.360672 -0.082463
C696  C     C_R   0.211154 0.119763 0.354187 -0.155266
H336  H     H_    0.292225 0.079762 0.437502 0.102141
H337  H     H_    0.226103 0.021481 0.451399 0.128292
H338  H     H_    0.154384 0.020493 0.401212 0.112373
H339  H     H_    0.149942 0.076737 0.334228 0.177303
H340  H     H_    0.209752 0.142483 0.322311 0.108238
C697  C     C_R   0.880045 0.252079 0.618197 0.152487
C698  C     C_R   0.851664 0.209556 0.618024 -0.149770
C699  C     C_R   0.859100 0.174645 0.581189 -0.065243
C700  C     C_R   0.897163 0.179036 0.548980 -0.154469
C701  C     C_R   0.926111 0.219741 0.550984 -0.146831
C702  C     C_R   0.917882 0.256413 0.584704 -0.075599
H341  H     H_    0.819014 0.208896 0.639563 0.107684
H342  H     H_    0.833136 0.147192 0.572976 0.160055
H343  H     H_    0.902326 0.152496 0.520508 0.106601
H344  H     H_    0.953056 0.223798 0.524125 0.127792
H345  H     H_    0.938277 0.289848 0.582377 0.106357
C703  C     C_R   0.106515 0.727363 0.398161 0.151794
C704  C     C_R   0.107955 0.778266 0.394957 -0.033055
C705  C     C_R   0.090410 0.806289 0.433304 -0.176842
C706  C     C_R   0.069870 0.783904 0.473617 -0.095171
C707  C     C_R   0.068610 0.733300 0.476838 -0.118094
C708  C     C_R   0.088349 0.705023 0.440159 -0.207003
H346  H     H_    0.125092 0.795688 0.364374 0.097551
H347  H     H_    0.091093 0.845329 0.431664 0.089877
H348  H     H_    0.052806 0.806192 0.500650 0.128763
H349  H     H_    0.049312 0.715303 0.505217 0.136029
H350  H     H_    0.088288 0.665834 0.443660 0.114946
C709  C     C_R   0.267441 0.108289 0.608594 0.194483
C710  C     C_R   0.217660 0.118105 0.610734 -0.032454
C711  C     C_R   0.187744 0.100460 0.574324 -0.128030
C712  C     C_R   0.206839 0.071271 0.538006 -0.125679
C713  C     C_R   0.256287 0.059847 0.537628 -0.155689
C714  C     C_R   0.286351 0.077949 0.572908 -0.137079
H351  H     H_    0.203631 0.143462 0.637020 0.074974
H352  H     H_    0.150335 0.110896 0.572426 0.085529
H353  H     H_    0.182604 0.057050 0.511092 0.105353
H354  H     H_    0.272337 0.036820 0.510668 0.100137
H355  H     H_    0.324793 0.070442 0.571024 0.101883
C715  C     C_R   0.744487 0.882491 0.381797 0.198122
C716  C     C_R   0.743952 0.923290 0.411979 -0.070132
C717  C     C_R   0.787442 0.946338 0.422915 -0.117907
C718  C     C_R   0.831038 0.928207 0.405808 -0.131547
C719  C     C_R   0.830969 0.887349 0.376603 -0.138315
C720  C     C_R   0.788218 0.864531 0.363959 -0.095120
H356  H     H_    0.709951 0.938583 0.424270 0.087115
H357  H     H_    0.787934 0.977818 0.445149 0.119327
H358  H     H_    0.864696 0.945874 0.414935 0.097573
H359  H     H_    0.864010 0.873517 0.363302 0.097335
H360  H     H_    0.788957 0.833825 0.339468 0.086149
C721  C     C_R   0.770778 0.393654 0.605166 0.174809
C722  C     C_R   0.720496 0.394237 0.612146 -0.012847
C723  C     C_R   0.691785 0.422919 0.582164 -0.131848
C724  C     C_R   0.712733 0.447619 0.543645 -0.100397
C725  C     C_R   0.762830 0.445215 0.535762 -0.125735
C726  C     C_R   0.791790 0.419217 0.566967 -0.142169
H361  H     H_    0.704589 0.374409 0.642028 0.093414
H362  H     H_    0.653485 0.426911 0.588514 0.090220
H363  H     H_    0.689802 0.469652 0.521033 0.097548
H364  H     H_    0.780297 0.464483 0.506563 0.099666
H365  H     H_    0.830538 0.418264 0.560981 0.104577
C727  C     C_R   0.246387 0.618566 0.381237 0.192108
C728  C     C_R   0.291139 0.640624 0.372511 -0.081415
C729  C     C_R   0.332895 0.618667 0.390030 -0.135752
C730  C     C_R   0.331326 0.572677 0.410295 -0.154215
C731  C     C_R   0.286931 0.550404 0.417061 -0.122133
C732  C     C_R   0.244219 0.574767 0.406710 -0.068069
H366  H     H_    0.293281 0.675027 0.353637 0.089236
H367  H     H_    0.366809 0.636085 0.386559 0.097926
H368  H     H_    0.364301 0.554472 0.420965 0.099100
H369  H     H_    0.285667 0.514786 0.431158 0.134654
H370  H     H_    0.209820 0.556898 0.412655 0.092733
C733  C     C_R   0.607222 0.391644 0.233184 0.184424
C734  C     C_R   0.614008 0.385866 0.283216 -0.024644
C735  C     C_R   0.580257 0.405557 0.315395 -0.138664
C736  C     C_R   0.539410 0.428821 0.297993 -0.126724
C737  C     C_R   0.533258 0.434916 0.248117 -0.139766
C738  C     C_R   0.567528 0.417516 0.215860 -0.142855
H371  H     H_    0.644239 0.365042 0.296681 0.091928
H372  H     H_    0.584552 0.402591 0.353792 0.094204
H373  H     H_    0.513902 0.443681 0.323707 0.101533
H374  H     H_    0.502691 0.453765 0.233748 0.103452
H375  H     H_    0.561724 0.421591 0.177319 0.102449
C739  C     C_R   0.396345 0.599978 0.776253 0.156799
C740  C     C_R   0.394393 0.601873 0.725761 -0.033706
C741  C     C_R   0.413000 0.563599 0.698153 -0.178270
C742  C     C_R   0.434611 0.524203 0.721166 -0.098714
C743  C     C_R   0.437108 0.522609 0.771792 -0.136641
C744  C     C_R   0.417318 0.559948 0.799323 -0.208729
H376  H     H_    0.375233 0.631492 0.709246 0.098379
H377  H     H_    0.411279 0.564201 0.659114 0.095129
H378  H     H_    0.451811 0.496939 0.699323 0.133269
H379  H     H_    0.457176 0.494901 0.790153 0.132237
H380  H     H_    0.418233 0.557777 0.838457 0.116575
C745  C     C_R   0.221033 0.398929 0.400248 0.156934
C746  C     C_R   0.199744 0.423856 0.438978 -0.172068
C747  C     C_R   0.228998 0.443907 0.474547 -0.143643
C748  C     C_R   0.279242 0.438259 0.471729 -0.117140
C749  C     C_R   0.300346 0.414424 0.432745 -0.150632
C750  C     C_R   0.271051 0.394906 0.396868 -0.002966
H381  H     H_    0.160791 0.426446 0.442254 0.112645
H382  H     H_    0.212576 0.463960 0.503848 0.117994
H383  H     H_    0.302721 0.456268 0.496680 0.118747
H384  H     H_    0.339224 0.411462 0.431001 0.093509
H385  H     H_    0.285386 0.373496 0.367636 0.103122
C751  C     C_R   0.760498 0.613985 0.614631 0.195643
C752  C     C_R   0.771848 0.578537 0.580539 -0.097032
C753  C     C_R   0.735665 0.559628 0.552223 -0.116869
C754  C     C_R   0.687880 0.575251 0.557710 -0.130055
C755  C     C_R   0.677184 0.611965 0.590437 -0.129612
C756  C     C_R   0.712871 0.630182 0.620708 -0.068718
H386  H     H_    0.808924 0.567042 0.574702 0.095145
H387  H     H_    0.746139 0.534965 0.524432 0.100151
H388  H     H_    0.659330 0.560771 0.535439 0.094343
H389  H     H_    0.642095 0.627996 0.589872 0.090192
H390  H     H_    0.704853 0.659709 0.645291 0.078065
C757  C     C_R   0.393109 0.391721 0.765629 0.190764
C758  C     C_R   0.438765 0.407376 0.780041 -0.177015
C759  C     C_R   0.475473 0.409759 0.745701 -0.092244
C760  C     C_R   0.465795 0.406332 0.696578 -0.119379
C761  C     C_R   0.418646 0.398984 0.681775 -0.170728
C762  C     C_R   0.382724 0.388021 0.715889 -0.029460
H391  H     H_    0.448267 0.407742 0.818056 0.102500
H392  H     H_    0.511376 0.407852 0.757887 0.173111
H393  H     H_    0.494589 0.408960 0.670084 0.108106
H394  H     H_    0.411705 0.399202 0.643874 0.104245
H395  H     H_    0.347886 0.375022 0.704014 0.112169
C763  C     C_R   0.615212 0.615256 0.244599 0.166638
C764  C     C_R   0.589928 0.571289 0.241879 -0.062309
C765  C     C_R   0.567954 0.552838 0.283381 -0.155354
C766  C     C_R   0.562076 0.581716 0.324312 -0.198359
C767  C     C_R   0.581889 0.627761 0.324799 -0.087292
C768  C     C_R   0.614610 0.641454 0.288264 -0.127220
H396  H     H_    0.589774 0.550312 0.208728 0.103941
H397  H     H_    0.552485 0.517626 0.282847 0.139118
H398  H     H_    0.541896 0.568909 0.355422 0.110627
H399  H     H_    0.571766 0.651694 0.353575 0.142183
H400  H     H_    0.631836 0.676555 0.289185 0.106677
C769  C     C_R   0.751050 0.619422 0.380866 0.188987
C770  C     C_R   0.747960 0.591454 0.423495 -0.046300
C771  C     C_R   0.704839 0.567340 0.434383 -0.180555
C772  C     C_R   0.670333 0.560839 0.399290 -0.189537
C773  C     C_R   0.675131 0.585933 0.356475 -0.070926
C774  C     C_R   0.710417 0.621954 0.350758 -0.146750
H401  H     H_    0.778187 0.589170 0.448130 0.103129
H402  H     H_    0.699124 0.548938 0.467423 0.109673
H403  H     H_    0.640942 0.535457 0.404622 0.118206
H404  H     H_    0.655413 0.572729 0.326277 0.188797
H405  H     H_    0.712971 0.641202 0.316646 0.101704
C775  C     C_R   0.242347 0.385296 0.614964 0.192579
C776  C     C_R   0.238188 0.430556 0.592646 -0.082428
C777  C     C_R   0.279945 0.457097 0.584415 -0.116283
C778  C     C_R   0.325133 0.434966 0.586182 -0.164250
C779  C     C_R   0.328137 0.386812 0.600676 -0.144765
C780  C     C_R   0.287959 0.363892 0.620552 -0.071136
H406  H     H_    0.203234 0.448074 0.589495 0.093367
H407  H     H_    0.276756 0.494196 0.575804 0.149075
H408  H     H_    0.357240 0.454610 0.575235 0.102063
H409  H     H_    0.361388 0.367717 0.597051 0.098846
H410  H     H_    0.291352 0.328292 0.636814 0.091676
C781  C     C_R   0.607414 0.608720 0.765002 0.190855
C782  C     C_R   0.620015 0.612263 0.715692 -0.030498
C783  C     C_R   0.586114 0.600544 0.680377 -0.170258
C784  C     C_R   0.538198 0.593328 0.693387 -0.128643
C785  C     C_R   0.526070 0.590433 0.742166 -0.090584
C786  C     C_R   0.561119 0.593028 0.777881 -0.172797
H411  H     H_    0.655387 0.625074 0.705090 0.104182
H412  H     H_    0.595657 0.599476 0.642972 0.104293
H413  H     H_    0.510685 0.590131 0.665905 0.106573
H414  H     H_    0.489517 0.592647 0.752860 0.175684
H415  H     H_    0.549833 0.592952 0.815522 0.101891
C787  C     C_R   0.379197 0.379841 0.246085 0.198060
C788  C     C_R   0.360258 0.362487 0.289571 -0.109763
C789  C     C_R   0.373694 0.384546 0.332579 -0.148470
C790  C     C_R   0.404669 0.423973 0.332908 -0.132263
C791  C     C_R   0.422773 0.441133 0.289328 -0.111218
C792  C     C_R   0.411172 0.418926 0.245813 -0.056871
H416  H     H_    0.334716 0.332709 0.289993 0.089668
H417  H     H_    0.360037 0.370831 0.365646 0.100984
H418  H     H_    0.414562 0.441106 0.366669 0.095119
H419  H     H_    0.446347 0.471108 0.289377 0.110396
H420  H     H_    0.424634 0.433502 0.211931 0.085812
C793  C     C_R   0.229408 0.604847 0.602668 0.174156
C794  C     C_R   0.279657 0.605983 0.609301 -0.013544
C795  C     C_R   0.310139 0.585569 0.574339 -0.166657
C796  C     C_R   0.291136 0.567707 0.531496 -0.122815
C797  C     C_R   0.241020 0.565037 0.525660 -0.135252
C798  C     C_R   0.210229 0.582862 0.561338 -0.167968
H421  H     H_    0.294610 0.622552 0.641382 0.100737
H422  H     H_    0.348373 0.582002 0.580312 0.098738
H423  H     H_    0.315452 0.551075 0.505841 0.113929
H424  H     H_    0.225560 0.547533 0.494728 0.118694
H425  H     H_    0.171508 0.581719 0.555773 0.107882
C799  C     C_R   0.755572 0.383060 0.383019 0.190991
C800  C     C_R   0.709246 0.363669 0.376724 -0.077184
C801  C     C_R   0.670180 0.385103 0.400663 -0.137588
C802  C     C_R   0.676061 0.428380 0.425773 -0.139087
C803  C     C_R   0.722057 0.448266 0.429696 -0.098409
C804  C     C_R   0.762069 0.424505 0.411129 -0.076562
H426  H     H_    0.704281 0.330722 0.356011 0.086608
H427  H     H_    0.635604 0.368152 0.400458 0.097731
H428  H     H_    0.645363 0.445866 0.442898 0.096076
H429  H     H_    0.727842 0.480929 0.448947 0.103362
H430  H     H_    0.797770 0.439748 0.416230 0.088312
C805  C     C_R   0.393527 0.607035 0.230507 0.179463
C806  C     C_R   0.429932 0.577620 0.211120 -0.142761
C807  C     C_R   0.461402 0.553911 0.241864 -0.128366
C808  C     C_R   0.455940 0.558745 0.291954 -0.112345
C809  C     C_R   0.419970 0.587813 0.311329 -0.135285
C810  C     C_R   0.388478 0.612483 0.280764 -0.014229
H431  H     H_    0.434535 0.574097 0.172311 0.104366
H432  H     H_    0.489732 0.531930 0.226451 0.107549
H433  H     H_    0.478119 0.538299 0.316491 0.095764
H434  H     H_    0.417656 0.590618 0.350013 0.092112
H435  H     H_    0.361155 0.636486 0.295429 0.091843
C811  C     C_R   0.604627 0.398924 0.775115 0.157678
C812  C     C_R   0.584887 0.439477 0.798705 -0.206341
C813  C     C_R   0.565581 0.477269 0.771660 -0.132570
C814  C     C_R   0.567093 0.475461 0.721009 -0.097563
C815  C     C_R   0.587790 0.435780 0.697477 -0.179859
C816  C     C_R   0.606162 0.397199 0.724559 -0.033585
H436  H     H_    0.584582 0.441683 0.837856 0.115288
H437  H     H_    0.546529 0.505482 0.790518 0.130559
H438  H     H_    0.549974 0.502918 0.699577 0.133822
H439  H     H_    0.588856 0.435141 0.658411 0.094577
H440  H     H_    0.624516 0.367354 0.707366 0.097579
C817  C     C_R   0.601271 0.225495 0.397221 0.179913
C818  C     C_R   0.566084 0.202280 0.425501 -0.179198
C819  C     C_R   0.528917 0.229238 0.446462 -0.145610
C820  C     C_R   0.526324 0.279303 0.438643 -0.117246
C821  C     C_R   0.561947 0.302741 0.411721 -0.164758
C822  C     C_R   0.600201 0.276098 0.391834 -0.024669
H441  H     H_    0.566497 0.163184 0.429762 0.112105
H442  H     H_    0.502417 0.211077 0.468659 0.134879
H443  H     H_    0.499093 0.300901 0.456167 0.132592
H444  H     H_    0.559167 0.341406 0.406205 0.094264
H445  H     H_    0.626066 0.293548 0.368164 0.089798
C823  C     C_R   0.383794 0.754875 0.615760 0.190675
C824  C     C_R   0.405371 0.754903 0.569739 -0.097492
C825  C     C_R   0.409772 0.711272 0.544605 -0.121574
C826  C     C_R   0.401993 0.667360 0.567792 -0.157932
C827  C     C_R   0.385048 0.667215 0.615173 -0.142068
C828  C     C_R   0.373174 0.710546 0.638361 -0.066972
H446  H     H_    0.410048 0.788799 0.550367 0.099835
H447  H     H_    0.418194 0.711173 0.507128 0.150352
H448  H     H_    0.408196 0.633668 0.548611 0.103177
H449  H     H_    0.378407 0.633313 0.632469 0.094996
H450  H     H_    0.355709 0.709816 0.673531 0.090282
C829  C     C_R   0.601871 0.774318 0.604873 0.173212
C830  C     C_R   0.605168 0.723473 0.606475 -0.023001
C831  C     C_R   0.566264 0.695374 0.591159 -0.171879
C832  C     C_R   0.524062 0.717662 0.575776 -0.101620
C833  C     C_R   0.520591 0.768362 0.574579 -0.130084
C834  C     C_R   0.559905 0.796577 0.587480 -0.194945
H451  H     H_    0.636206 0.706300 0.622709 0.098428
H452  H     H_    0.567633 0.656351 0.591880 0.089952
H453  H     H_    0.495521 0.694902 0.563131 0.128664
H454  H     H_    0.489401 0.786537 0.560716 0.115939
H455  H     H_    0.556482 0.835778 0.587243 0.113076
C835  C     C_R   0.394731 0.229237 0.396528 0.183581
C836  C     C_R   0.394398 0.279494 0.388051 -0.026675
C837  C     C_R   0.405721 0.311793 0.425308 -0.191474
C838  C     C_R   0.409677 0.294410 0.471998 -0.101552
C839  C     C_R   0.410811 0.244512 0.479788 -0.085337
C840  C     C_R   0.408305 0.211858 0.441817 -0.186984
H456  H     H_    0.383325 0.292659 0.353250 0.119908
H457  H     H_    0.408716 0.350345 0.419740 0.103151
H458  H     H_    0.411627 0.319834 0.501533 0.110576
H459  H     H_    0.407588 0.230481 0.514867 0.165429
H460  H     H_    0.406642 0.173355 0.449783 0.104887
C841  C     C_R   0.398755 0.775595 0.397843 0.177513
C842  C     C_R   0.432300 0.798128 0.428011 -0.171989
C843  C     C_R   0.468795 0.770698 0.449106 -0.154860
C844  C     C_R   0.472739 0.720993 0.438940 -0.127224
C845  C     C_R   0.438236 0.698245 0.410472 -0.155635
C846  C     C_R   0.400251 0.725352 0.391118 -0.019165
H461  H     H_    0.431129 0.837009 0.433776 0.110411
H462  H     H_    0.493785 0.788388 0.473059 0.117755
H463  H     H_    0.500105 0.698935 0.455678 0.127323
H464  H     H_    0.441887 0.659936 0.402925 0.092542
H465  H     H_    0.375682 0.709451 0.365464 0.089069
C847  C     C_R   0.616207 0.244998 0.615731 0.194218
C848  C     C_R   0.594387 0.243902 0.570105 -0.091297
C849  C     C_R   0.590889 0.286873 0.543628 -0.120182
C850  C     C_R   0.599390 0.331428 0.565403 -0.149548
C851  C     C_R   0.615631 0.332661 0.612810 -0.145816
C852  C     C_R   0.626900 0.289822 0.637113 -0.071079
H466  H     H_    0.589642 0.209525 0.551741 0.096652
H467  H     H_    0.582658 0.285717 0.506154 0.147762
H468  H     H_    0.594426 0.364760 0.545263 0.103765
H469  H     H_    0.622034 0.366888 0.629429 0.095211
H470  H     H_    0.644288 0.291251 0.672087 0.089580
C853  C     C_R   0.399742 0.223819 0.605540 0.143627
C854  C     C_R   0.397397 0.274608 0.606609 -0.033760
C855  C     C_R   0.436439 0.301849 0.589714 -0.168749
C856  C     C_R   0.476679 0.278656 0.570323 -0.095276
C857  C     C_R   0.479802 0.227956 0.570394 -0.124233
C858  C     C_R   0.441884 0.200491 0.588848 -0.203774
H471  H     H_    0.367195 0.292143 0.624177 0.099700
H472  H     H_    0.435871 0.340932 0.590363 0.087878
H473  H     H_    0.503875 0.300781 0.553738 0.123234
H474  H     H_    0.509913 0.209306 0.554301 0.113661
H475  H     H_    0.445045 0.161290 0.589998 0.115632
C859  C     C_R   0.611875 0.761652 0.389784 0.196743
C860  C     C_R   0.629305 0.713959 0.385455 -0.097358
C861  C     C_R   0.621442 0.680595 0.423002 -0.138932
C862  C     C_R   0.597375 0.694837 0.464780 -0.107431
C863  C     C_R   0.580857 0.742374 0.468646 -0.126605
C864  C     C_R   0.585429 0.774989 0.430691 -0.127003
H476  H     H_    0.655031 0.705290 0.357397 0.099065
H477  H     H_    0.636564 0.644890 0.421434 0.147647
H478  H     H_    0.593257 0.669759 0.494642 0.103169
H479  H     H_    0.565654 0.754910 0.501252 0.149220
H480  H     H_    0.574299 0.812372 0.435978 0.101232

loop_
_geom_bond_atom_site_label_1
_geom_bond_atom_site_label_2
_ccdc_geom_bond_type
Cu29  O84   S    
Cu31  O60   S    
C249  C625  S    
C770  H401  S    
C609  H267  S    
C742  C743  A    
C434  C435  A    
C438  H125  S    
C789  C790  A    
C369  C370  A    
C746  H381  S    
Cu10  O18   S    
C297  C298  A    
C34   O98   A    
C606  H265  S    
C99   C195  A    
C540  H210  S    
C340  C341  A    
C290  C291  A    
C88   O4    A    
Cu39  O99   S    
C383  H79   S    
C278  C799  S    
C86   O47   A    
C585  C586  A    
C829  C830  A    
C395  C396  A    
C376  H73   S    
C653  H304  S    
C761  H394  S    
C113  C201  A    
C509  H184  S    
C123  C274  A    
C202  C343  S    
C325  C330  A    
C81   C108  S    
C227  C493  S    
C416  H106  S    
C329  H34   S    
C57   C133  S    
C493  C498  A    
C524  C525  A    
C14   C182  S    
C779  H409  S    
C552  H220  S    
Cu1   O188  S    
C219  C445  S    
C665  C666  A    
C326  C327  A    
C842  H461  S    
Cu3   O3    S    
C332  H36   S    
Cu28  Cu39  S    
Cu19  O35   S    
C3    O159  A    
C453  C454  A    
C83   O7    A    
Cu36  O72   S    
C318  H25   S    
C497  C498  A    
C778  H408  S    
C166  C266  A    
C598  H258  S    
C146  C281  A    
C107  C209  A    
C250  C631  S    
C854  H471  S    
C294  H5    S    
Cu22  O38   S    
C773  C774  A    
C289  C294  A    
C547  C548  A    
C629  H284  S    
C771  C772  A    
C640  C641  A    
C817  C822  A    
C410  C411  A    
Cu3   O166  S    
C183  C219  A    
C541  C546  A    
Cu35  Cu48  S    
C91   C103  S    
C327  H32   S    
C531  H202  S    
C577  C582  A    
C299  C300  A    
C352  C353  A    
C423  H112  S    
C542  H211  S    
C29   O84   A    
C441  C442  A    
C681  H327  S    
C583  C588  A    
C60   O144  A    
C110  C215  A    
C127  C278  A    
C472  C473  A    
C355  C356  A    
C28   C168  S    
C787  C792  A    
C661  C662  A    
C130  C226  A    
C544  C545  A    
C476  C477  A    
C571  C572  A    
Cu21  O175  S    
C422  H111  S    
C646  H298  S    
C483  C484  A    
C724  H363  S    
C553  C558  A    
C523  C524  A    
C50   C162  S    
Cu41  O132  S    
C500  C501  A    
Cu5   O180  S    
Cu7   O7    S    
C800  H426  S    
Cu23  O39   S    
C533  C534  A    
C693  C694  A    
Cu36  O82   S    
C557  C558  A    
C296  C297  A    
C51   O119  A    
C725  H364  S    
Cu28  O78   S    
C578  C579  A    
C267  C733  S    
C537  H207  S    
C220  C451  S    
C209  C385  S    
C778  C779  A    
C731  C732  A    
C144  C240  A    
C626  H281  S    
C379  C380  A    
C811  C816  A    
C298  C299  A    
C275  C781  S    
C303  H12   S    
Cu33  O67   S    
C67   C139  S    
C623  H279  S    
C56   O93   A    
C527  C528  A    
C610  H268  S    
C791  H419  S    
C92   O41   A    
C37   O96   A    
C192  C217  A    
C823  C824  A    
C289  C290  A    
C338  H41   S    
C68   O49   A    
C58   O75   A    
C849  H467  S    
C83   C115  S    
C539  C540  A    
C633  H287  S    
C415  C420  A    
C847  C848  A    
C574  C575  A    
C585  H247  S    
Cu13  O148  S    
C758  H391  S    
C855  C856  A    
C497  H174  S    
C175  C251  A    
C176  C233  A    
C90   O32   A    
C721  C726  A    
C185  C225  A    
C333  C334  A    
C848  C849  A    
C384  H80   S    
C475  C480  A    
C572  H236  S    
C405  H97   S    
C685  C690  A    
C523  C528  A    
C645  H297  S    
C656  C657  A    
Cu14  O160  S    
C178  C223  A    
C62   C122  S    
C10   O183  A    
C70   O79   A    
C615  H272  S    
C315  H22   S    
Cu32  O66   S    
C54   O63   A    
C169  C241  A    
C806  C807  A    
C536  H206  S    
C65   O129  A    
C120  C193  A    
C52   O81   A    
C739  C744  A    
Cu38  O136  S    
C806  H431  S    
C348  H50   S    
C122  C275  A    
C180  C261  A    
C20   C176  S    
C375  H72   S    
C505  C510  A    
C280  C811  S    
C402  H95   S    
C545  H214  S    
C722  H361  S    
C454  C455  A    
C396  H90   S    
C284  C835  S    
C518  H191  S    
C32   O108  A    
Cu2   Cu23  S    
C566  C567  A    
C218  C439  S    
C853  C854  A    
C381  H77   S    
C388  H83   S    
C694  C695  A    
C111  C195  A    
C374  H71   S    
C44   C136  S    
C211  C397  S    
C589  C590  A    
Cu32  O56   S    
C489  C490  A    
C512  C513  A    
C281  C817  S    
Cu29  O95   S    
C683  C684  A    
C425  C426  A    
C677  C678  A    
Cu16  O178  S    
C471  C472  A    
C37   C141  S    
Cu6   O6    S    
C49   O56   A    
C199  C325  S    
C16   C185  S    
C744  H380  S    
Cu48  O123  S    
C851  H469  S    
C692  C693  A    
C98   C194  A    
C195  C301  S    
C760  C761  A    
C16   O148  A    
C147  C271  A    
C167  C287  A    
C782  H411  S    
C473  C474  A    
C429  C430  A    
C20   O185  A    
Cu30  Cu41  S    
C408  H100  S    
C401  H94   S    
C93   C99   S    
C657  H307  S    
C648  H300  S    
C24   O189  A    
C200  C331  S    
C6    C178  S    
C189  C248  A    
C226  C487  S    
C580  H243  S    
Cu18  O41   S    
C359  H59   S    
C192  C236  A    
Cu15  Cu18  S    
C654  H305  S    
C302  H11   S    
C449  C450  A    
Cu2   O187  S    
C187  C243  A    
C207  C373  S    
Cu48  O137  S    
C772  H403  S    
C375  C376  A    
C726  H365  S    
C812  C813  A    
Cu35  O76   S    
Cu18  O34   S    
C15   O174  A    
C255  C661  S    
C723  C724  A    
C406  C407  A    
C101  C208  A    
C48   C128  S    
Cu36  O89   S    
C675  C676  A    
C706  C707  A    
C448  C449  A    
C452  H136  S    
C363  H62   S    
C6    O158  A    
C443  C444  A    
C61   O68   A    
C436  H123  S    
C125  C221  A    
C830  H451  S    
C688  C689  A    
C17   C174  S    
C36   C156  S    
Cu39  O118  S    
C261  C697  S    
C433  C438  A    
C729  C730  A    
C328  C329  A    
C795  H422  S    
Cu29  Cu42  S    
C469  C470  A    
C29   C137  S    
C720  H360  S    
C354  H55   S    
C459  C460  A    
C380  H76   S    
C839  H459  S    
Cu15  O177  S    
C94   O33   A    
C628  H283  S    
C486  H165  S    
C457  C458  A    
C658  C659  A    
C425  H114  S    
C66   O71   A    
C641  C642  A    
C491  H169  S    
Cu47  O124  S    
C42   C166  S    
C6    O179  A    
C730  C731  A    
C813  H437  S    
C670  C671  A    
C361  C366  A    
C37   O101  A    
C861  H477  S    
C229  C505  S    
C591  H252  S    
C614  H271  S    
C11   C187  S    
C472  H153  S    
C678  H325  S    
Cu28  O63   S    
C29   O109  A    
C710  H351  S    
C833  C834  A    
C831  C832  A    
C152  C280  A    
C488  H166  S    
C466  C467  A    
C339  C340  A    
C12   O152  A    
C411  H102  S    
Cu25  Cu38  S    
Cu26  O88   S    
C53   O64   A    
C74   O10   A    
C754  H388  S    
C747  H382  S    
C19   O171  A    
C314  H21   S    
C534  H205  S    
C477  C478  A    
C470  H151  S    
C513  H187  S    
C796  H423  S    
Cu15  O23   S    
C321  C322  A    
C431  H119  S    
C825  H447  S    
C335  H39   S    
C197  C313  S    
C631  C632  A    
C134  C271  A    
C805  C806  A    
C117  C216  A    
Cu13  O159  S    
C319  C324  A    
C54   C158  S    
Cu42  O109  S    
C753  H387  S    
C736  H373  S    
Cu39  O125  S    
C512  H186  S    
C175  C234  A    
C814  C815  A    
Cu46  O116  S    
C316  H23   S    
C860  H476  S    
C446  C447  A    
C462  H145  S    
C164  C260  A    
C394  H88   S    
C467  H149  S    
C128  C277  A    
C106  C213  A    
C551  C552  A    
C568  C569  A    
C460  C461  A    
C594  H255  S    
C461  H144  S    
C223  C469  S    
C445  C450  A    
C119  C194  A    
C367  C368  A    
C140  C276  A    
C370  H68   S    
C801  C802  A    
Cu2   O9    S    
C625  C630  A    
C485  C486  A    
Cu12  O20   S    
C668  H316  S    
C331  C336  A    
C80   O25   A    
C206  C367  S    
C679  C684  A    
C379  C384  A    
C681  C682  A    
C57   O76   A    
C705  C706  A    
C369  H67   S    
C391  C392  A    
C797  C798  A    
C435  C436  A    
C777  C778  A    
C214  C415  S    
Cu2   O2    S    
C365  C366  A    
C751  C756  A    
C349  C350  A    
C106  C199  A    
C32   C160  S    
C35   O66   A    
C694  H338  S    
C426  H115  S    
C51   C123  S    
C320  C321  A    
C368  C369  A    
C732  H370  S    
C725  C726  A    
C58   C134  S    
C505  C506  A    
C409  C414  A    
C160  C282  A    
Cu5   O5    S    
C26   O91   A    
C528  H200  S    
C328  H33   S    
C185  C240  A    
Cu6   Cu20  S    
C656  H306  S    
Cu48  O120  S    
C399  H92   S    
C31   O74   A    
C590  C591  A    
C529  C530  A    
C97   C193  A    
C608  H266  S    
C619  C620  A    
C178  C258  A    
Cu37  O97   S    
C456  H140  S    
C743  H379  S    
C444  H130  S    
C155  C285  A    
C48   O124  A    
C141  C288  A    
C244  C595  S    
C109  C216  A    
C668  C669  A    
C312  H20   S    
Cu24  O40   S    
C169  C256  A    
C843  H462  S    
C216  C427  S    
C554  H221  S    
C100  C196  A    
C120  C210  A    
C569  H234  S    
C68   O136  A    
C737  C738  A    
C818  H441  S    
C473  H154  S    
C562  H228  S    
C746  C747  A    
C388  C389  A    
Cu47  O138  S    
C631  C636  A    
Cu31  O55   S    
C340  H43   S    
C845  H464  S    
C635  H289  S    
C272  C763  S    
C100  C201  A    
C67   O135  A    
C764  C765  A    
C276  C787  S    
C751  C752  A    
C104  C205  A    
C182  C254  A    
C643  C644  A    
Cu44  O107  S    
C5    O157  A    
C652  C653  A    
C203  C349  S    
C99   C202  A    
C647  C648  A    
C68   C140  S    
C642  H295  S    
C31   O107  A    
C353  C354  A    
C44   O128  A    
C556  C557  A    
C17   O182  A    
C74   C111  S    
C854  C855  A    
Cu33  O93   S    
C430  H118  S    
C113  C212  A    
C463  C464  A    
C310  H18   S    
C465  C466  A    
C842  C843  A    
C36   O104  A    
C77   O36   A    
C514  H188  S    
C85   C109  S    
C300  H10   S    
C597  H257  S    
C766  H398  S    
C759  C760  A    
C34   C146  S    
C841  C842  A    
C584  H246  S    
Cu26  O50   S    
C28   O112  A    
C827  C828  A    
C820  H443  S    
C432  H120  S    
C763  C768  A    
C166  C262  A    
C825  C826  A    
Cu10  O25   S    
C7    O155  A    
C8    O169  A    
C309  H17   S    
C499  C504  A    
Cu16  O27   S    
C184  C220  A    
C676  C677  A    
C447  C448  A    
C857  H474  S    
C767  C768  A    
C683  H329  S    
Cu18  O171  S    
C815  H439  S    
C238  C559  S    
C478  H158  S    
C570  H235  S    
C268  C739  S    
C350  C351  A    
C482  C483  A    
C793  C794  A    
C210  C391  S    
C463  C468  A    
C856  H473  S    
C82   O39   A    
C482  H161  S    
C60   C152  S    
C603  H262  S    
Cu31  Cu44  S    
C163  C259  A    
C406  H98   S    
C343  C344  A    
C115  C213  A    
C25   C149  S    
C596  H256  S    
C749  H384  S    
C349  C354  A    
C17   O175  A    
C42   O59   A    
C386  H81   S    
Cu25  O58   S    
C808  C809  A    
C740  H376  S    
Cu40  O111  S    
C150  C283  A    
C819  H442  S    
C73   O9    A    
C553  C554  A    
C139  C275  A    
C72   O61   A    
C611  H269  S    
C311  H19   S    
Cu22  O45   S    
C807  H432  S    
C286  C847  S    
C501  C502  A    
Cu45  O128  S    
C10   O146  A    
C11   O162  A    
C537  C538  A    
C620  C621  A    
C858  H475  S    
C55   O115  A    
C344  H46   S    
C23   O190  A    
C494  H171  S    
C124  C273  A    
C857  C858  A    
C94   C100  S    
C689  C690  A    
C718  C719  A    
Cu19  O157  S    
C851  C852  A    
C274  C775  S    
C168  C264  A    
C81   O40   A    
C826  H448  S    
C506  H181  S    
C511  C512  A    
Cu27  O64   S    
C671  H319  S    
C791  C792  A    
C824  C825  A    
C118  C198  A    
C808  H433  S    
C69   O80   A    
C73   C112  S    
C481  C482  A    
C835  C840  A    
C150  C246  A    
C699  H342  S    
C861  C862  A    
C105  C214  A    
C14   O191  A    
Cu22  O176  S    
C334  H38   S    
C779  C780  A    
C741  H377  S    
C519  H192  S    
C633  C634  A    
C711  C712  A    
C832  H453  S    
Cu42  O131  S    
Cu8   O8    S    
C171  C259  A    
C783  C784  A    
C121  C276  A    
C161  C277  A    
Cu1   O10   S    
C258  C679  S    
C836  H456  S    
C137  C286  A    
C760  H393  S    
C613  C618  A    
C641  H294  S    
Cu28  O69   S    
C134  C230  A    
C475  C476  A    
Cu21  O46   S    
C315  C316  A    
Cu29  O62   S    
C748  C749  A    
C129  C225  A    
C148  C244  A    
C716  H356  S    
C561  H227  S    
C563  H229  S    
C700  H343  S    
Cu1   O1    S    
C615  C616  A    
C579  C580  A    
C159  C255  A    
C73   O44   A    
C464  C465  A    
Cu29  O53   S    
C418  C419  A    
C144  C268  A    
C536  C537  A    
C727  C728  A    
C652  H303  S    
C1    O188  A    
C575  C576  A    
C790  C791  A    
C25   O105  A    
C647  H299  S    
C371  C372  A    
C499  C500  A    
C132  C228  A    
C151  C247  A    
C63   O58   A    
C33   O88   A    
C292  H3    S    
C181  C232  A    
C735  H372  S    
C719  C720  A    
C251  C637  S    
C573  H237  S    
C112  C196  A    
C174  C263  A    
Cu17  O172  S    
C602  H261  S    
C332  C333  A    
C79   C119  S    
C566  H231  S    
C96   O45   A    
Cu14  O147  S    
C86   O6    A    
C24   O164  A    
C458  C459  A    
C780  H410  S    
C53   O117  A    
C336  H40   S    
C135  C231  A    
C589  C594  A    
C439  C444  A    
C72   O132  A    
C75   C118  S    
C78   O14   A    
C191  C218  A    
Cu34  O79   S    
C93   O34   A    
C655  C660  A    
C119  C209  A    
C413  H104  S    
C627  C628  A    
C775  C776  A    
C45   O52   A    
C343  C348  A    
C401  C402  A    
C753  C754  A    
C417  C418  A    
Cu32  O73   S    
C701  H344  S    
C687  H332  S    
C698  C699  A    
C565  C570  A    
C716  C717  A    
C691  C692  A    
C21   O167  A    
C734  H371  S    
C802  H428  S    
C377  H74   S    
C181  C253  A    
C646  C647  A    
C769  C774  A    
C170  C255  A    
C587  C588  A    
C530  H201  S    
C412  H103  S    
Cu9   O17   S    
C188  C244  A    
C45   C153  S    
C863  C864  A    
C651  C652  A    
C583  C584  A    
C63   O139  A    
C649  C654  A    
C346  H48   S    
C198  C319  S    
C576  H240  S    
C40   O100  A    
C91   O42   A    
C346  C347  A    
C543  H212  S    
C264  C715  S    
C525  C526  A    
C291  H2    S    
C784  H413  S    
C502  C503  A    
C717  C718  A    
C609  C610  A    
Cu16  O185  S    
Cu6   O13   S    
C686  C687  A    
C78   C106  S    
C101  C197  A    
C331  C332  A    
C111  C211  A    
C7    O170  A    
C387  C388  A    
C441  H127  S    
C532  C533  A    
C335  C336  A    
C259  C685  S    
C785  C786  A    
C427  C428  A    
C383  C384  A    
C487  C488  A    
C373  C374  A    
C847  C852  A    
Cu34  O68   S    
C721  C722  A    
C702  H345  S    
C322  C323  A    
C156  C286  A    
C509  C510  A    
C843  C844  A    
C392  C393  A    
C164  C284  A    
C416  C417  A    
C88   O29   A    
C793  C798  A    
C322  H28   S    
C645  C646  A    
C27   O70   A    
C102  C198  A    
C459  H142  S    
C179  C262  A    
C236  C547  S    
Cu20  O149  S    
C23   O163  A    
C588  H250  S    
C653  C654  A    
C824  H446  S    
C682  C683  A    
C151  C279  A    
C376  C377  A    
C404  C405  A    
C669  C670  A    
C529  C534  A    
Cu4   Cu14  S    
C172  C260  A    
C102  C207  A    
C752  H386  S    
Cu20  O158  S    
Cu25  O92   S    
C466  H148  S    
C730  H368  S    
Cu4   O165  S    
C38   C142  S    
C95   O46   A    
C393  H87   S    
C621  C622  A    
C1    C184  S    
Cu7   Cu10  S    
C44   O85   A    
C14   O150  A    
C273  C769  S    
C398  C399  A    
C771  H402  S    
C301  C302  A    
Cu44  O121  S    
C9    O145  A    
C64   C144  S    
C399  C400  A    
C666  H315  S    
C410  H101  S    
Cu4   O174  S    
C517  C518  A    
C90   C101  S    
C764  H396  S    
C356  H56   S    
C507  C508  A    
C577  C578  A    
C103  C199  A    
C299  H9    S    
Cu44  O114  S    
Cu46  O142  S    
C84   O17   A    
Cu15  O186  S    
Cu16  Cu17  S    
C163  C283  A    
C317  C318  A    
C362  H61   S    
C799  C804  A    
C572  C573  A    
C421  C422  A    
Cu7   O12   S    
C685  C686  A    
C117  C197  A    
C347  C348  A    
C787  C788  A    
C305  H14   S    
C161  C257  A    
C592  H253  S    
Cu23  O44   S    
C41   O60   A    
C422  C423  A    
C555  C556  A    
C792  H420  S    
C45   O125  A    
C586  C587  A    
C500  H176  S    
C232  C523  S    
C366  H65   S    
C507  H182  S    
C358  C359  A    
C194  C295  S    
C800  C801  A    
Cu26  O91   S    
C533  H204  S    
C675  H322  S    
C143  C267  A    
C304  H13   S    
C313  C314  A    
C659  H309  S    
C492  H170  S    
C18   C173  S    
C364  C365  A    
C501  H177  S    
Cu21  O37   S    
C731  H369  S    
Cu5   O191  S    
C626  C627  A    
C612  H270  S    
C31   C159  S    
C495  H172  S    
C30   C138  S    
C428  C429  A    
C303  C304  A    
C148  C272  A    
C850  C851  A    
C623  C624  A    
C237  C553  S    
Cu14  O22   S    
C703  C708  A    
C19   O186  A    
C25   O92   A    
C436  C437  A    
C622  C623  A    
C856  C857  A    
Cu5   Cu19  S    
C256  C667  S    
C338  C339  A    
C637  C638  A    
Cu16  O24   S    
C484  C485  A    
C849  C850  A    
C548  H216  S    
C581  H244  S    
C46   O126  A    
C539  H209  S    
Cu11  Cu21  S    
Cu6   O179  S    
C391  C396  A    
C39   O99   A    
C118  C215  A    
C85   O5    A    
C201  C337  S    
C605  H264  S    
C38   O102  A    
Cu27  Cu40  S    
C593  C594  A    
C333  H37   S    
C637  C642  A    
C2    O187  A    
C77   O13   A    
C405  C406  A    
C639  C640  A    
C479  H159  S    
C30   O110  A    
Cu35  O90   S    
C423  C424  A    
C560  H226  S    
C382  H78   S    
C693  H337  S    
C155  C251  A    
Cu13  O30   S    
C451  C452  A    
C696  H340  S    
C13   O149  A    
C60   O53   A    
C290  H1    S    
C109  C208  A    
C704  H346  S    
C314  C315  A    
Cu35  O81   S    
C147  C243  A    
C838  C839  A    
C745  C750  A    
C307  C308  A    
C741  C742  A    
C546  H215  S    
Cu13  O21   S    
C776  H406  S    
C715  C720  A    
C295  C300  A    
C139  C235  A    
C506  C507  A    
C722  C723  A    
C97   C204  A    
C188  C229  A    
C518  C519  A    
Cu25  O49   S    
C554  C555  A    
C853  C858  A    
C673  C678  A    
C638  C639  A    
C498  H175  S    
C176  C252  A    
C108  C210  A    
Cu9   O156  S    
C337  C338  A    
C265  C721  S    
C684  H330  S    
C496  H173  S    
C184  C249  A    
C738  H375  S    
C859  C864  A    
C341  C342  A    
C768  H400  S    
C27   O111  A    
C172  C245  A    
C8    C192  S    
Cu17  O42   S    
Cu33  O86   S    
C470  C471  A    
Cu5   O14   S    
C770  C771  A    
C345  H47   S    
C92   C104  S    
C186  C239  A    
C607  C608  A    
C692  H336  S    
C757  C758  A    
C644  C645  A    
C153  C273  A    
C87   O3    A    
Cu37  O106  S    
C385  C390  A    
C352  H53   S    
C690  H335  S    
Cu17  O33   S    
C711  H352  S    
C429  H117  S    
C204  C355  S    
C788  C789  A    
C657  C658  A    
C4    O160  A    
C493  C494  A    
C310  C311  A    
C755  H389  S    
C708  H350  S    
C10   C179  S    
C822  H445  S    
C580  C581  A    
C35   C155  S    
C173  C237  A    
C674  H321  S    
C449  H134  S    
C271  C757  S    
C440  H126  S    
C763  C764  A    
C714  H355  S    
C545  C546  A    
C772  C773  A    
C285  C841  S    
C862  H478  S    
C829  C834  A    
C252  C643  S    
Cu39  O112  S    
C723  H362  S    
C234  C535  S    
C595  C596  A    
C434  H121  S    
Cu8   O11   S    
C104  C200  A    
C789  H417  S    
C57   O137  A    
C663  H312  S    
C679  C680  A    
C695  H339  S    
C443  H129  S    
Cu35  O71   S    
C32   O73   A    
C610  C611  A    
Cu38  O98   S    
Cu40  O126  S    
C433  C434  A    
C508  H183  S    
C257  C673  S    
C437  H124  S    
C795  C796  A    
C733  C734  A    
C114  C211  A    
Cu41  O101  S    
C325  C326  A    
C157  C269  A    
C75   O15   A    
C616  H273  S    
C167  C263  A    
C504  H180  S    
C782  C783  A    
C661  C666  A    
Cu43  O113  S    
Cu26  O57   S    
Cu45  O141  S    
C483  H162  S    
C13   C181  S    
C712  H353  S    
C812  H436  S    
C95   O19   A    
C326  H31   S    
C617  C618  A    
C658  H308  S    
C697  C702  A    
C558  H225  S    
Cu34  Cu45  S    
C123  C219  A    
C311  C312  A    
C715  C716  A    
C359  C360  A    
C742  H378  S    
C126  C279  A    
Cu1   O183  S    
C414  H105  S    
C841  C846  A    
C344  C345  A    
C591  C592  A    
C489  H167  S    
C614  C615  A    
C547  C552  A    
C179  C227  A    
C19   C175  S    
C640  H293  S    
C452  C453  A    
C710  C711  A    
C833  H454  S    
Cu11  O32   S    
C115  C206  A    
C599  H259  S    
C862  C863  A    
C63   C143  S    
C419  C420  A    
C18   O176  A    
C550  C551  A    
Cu6   O192  S    
C228  C499  S    
C837  C838  A    
C293  H4    S    
C339  H42   S    
C411  C412  A    
Cu21  O164  S    
C542  C543  A    
Cu28  O52   S    
C247  C613  S    
C519  C520  A    
Cu27  O51   S    
C395  H89   S    
C355  C360  A    
C680  H326  S    
C477  H157  S    
C513  C514  A    
C88   C113  S    
C544  H213  S    
C451  C456  A    
C47   O90   A    
C799  C800  A    
C431  C432  A    
C461  C462  A    
C783  H412  S    
C524  H196  S    
C173  C264  A    
C11   O151  A    
C804  H430  S    
C761  C762  A    
C597  C598  A    
C837  H457  S    
C224  C475  S    
C62   O142  A    
C736  C737  A    
C557  H224  S    
Cu19  O150  S    
Cu33  O80   S    
C196  C307  S    
C820  C821  A    
Cu20  O47   S    
C446  H131  S    
C46   C154  S    
Cu41  O143  S    
C394  C395  A    
C26   C150  S    
C467  C468  A    
C671  C672  A    
C442  C443  A    
C811  C812  A    
C133  C272  A    
Cu3   O16   S    
C551  H219  S    
C180  C228  A    
C397  C398  A    
C521  C522  A    
C460  H143  S    
C527  H199  S    
C660  H310  S    
C93   O23   A    
C190  C247  A    
C407  H99   S    
C717  H357  S    
C601  C606  A    
C625  C626  A    
C56   C132  S    
C55   C131  S    
C503  H179  S    
C629  C630  A    
C138  C234  A    
Cu19  O48   S    
C490  C491  A    
Cu3   Cu13  S    
C415  C416  A    
Cu12  O190  S    
C517  C522  A    
C672  H320  S    
C363  C364  A    
C574  H238  S    
C142  C238  A    
C733  C738  A    
C149  C245  A    
C435  H122  S    
C777  H407  S    
C307  C312  A    
C775  C780  A    
C65   C129  S    
C468  H150  S    
C156  C252  A    
C651  H302  S    
C52   O120  A    
C235  C541  S    
C848  H466  S    
C508  C509  A    
C160  C256  A    
C174  C238  A    
C74   O43   A    
C382  C383  A    
C762  H395  S    
C324  H30   S    
Cu12  O181  S    
C260  C691  S    
C611  C612  A    
Cu32  Cu43  S    
C663  C664  A    
C76   C117  S    
C133  C229  A    
C152  C248  A    
C496  C497  A    
C33   O97   A    
C510  H185  S    
C90   O37   A    
C91   O27   A    
C182  C231  A    
C707  C708  A    
C385  C386  A    
C667  C672  A    
C140  C236  A    
C590  H251  S    
C608  C609  A    
C776  C777  A    
C619  C624  A    
Cu31  O65   S    
C526  H198  S    
C15   O147  A    
C306  H15   S    
C80   C120  S    
C649  C650  A    
C89   C102  S    
Cu37  O140  S    
C403  C408  A    
Cu43  O108  S    
C538  C539  A    
C162  C278  A    
C239  C565  S    
C131  C266  A    
C745  C746  A    
C127  C223  A    
C136  C232  A    
C437  C438  A    
C550  H218  S    
C112  C212  A    
C308  H16   S    
C846  H465  S    
C42   O122  A    
C569  C570  A    
C12   C188  S    
C381  C382  A    
C291  C292  A    
C737  H374  S    
C706  H348  S    
C87   C114  S    
C794  C795  A    
C187  C230  A    
C454  H138  S    
C844  C845  A    
C532  H203  S    
C781  C782  A    
C617  H274  S    
C845  C846  A    
C543  C544  A    
C488  C489  A    
C650  H301  S    
C165  C265  A    
C559  C564  A    
C559  C560  A    
C22   O168  A    
C26   O106  A    
C145  C282  A    
C360  H60   S    
Cu9   O26   S    
C171  C246  A    
C323  C324  A    
C353  H54   S    
C424  H113  S    
C556  H223  S    
C85   O48   A    
C230  C511  S    
C72   C148  S    
C455  C456  A    
C208  C379  S    
C96   C97   S    
C389  H84   S    
C87   O30   A    
C242  C583  S    
C5    C177  S    
C766  C767  A    
C9    C180  S    
C759  H392  S    
C302  C303  A    
C803  H429  S    
C403  C404  A    
C277  C793  S    
C827  H449  S    
C9    O184  A    
C458  H141  S    
C309  C310  A    
C351  C352  A    
Cu8   Cu9   S    
C474  H155  S    
Cu33  Cu46  S    
C122  C218  A    
C2    O154  A    
Cu34  O94   S    
C798  H425  S    
C82   O2    A    
C83   O18   A    
C126  C222  A    
C301  C306  A    
Cu25  O87   S    
C59   C151  S    
C478  C479  A    
C448  H133  S    
Cu2   O184  S    
C571  C576  A    
C350  H51   S    
Cu4   O15   S    
C23   C170  S    
C516  H190  S    
C757  C762  A    
C830  C831  A    
C688  H333  S    
C603  C604  A    
C535  C536  A    
C624  H280  S    
C269  C745  S    
Cu3   O173  S    
C362  C363  A    
C82   C107  S    
C749  C750  A    
C578  H241  S    
C628  C629  A    
Cu10  O152  S    
C515  H189  S    
C329  C330  A    
C124  C220  A    
C810  H435  S    
C58   O138  A    
C103  C206  A    
C337  C342  A    
Cu36  O75   S    
C128  C224  A    
C531  C532  A    
C555  H222  S    
C844  H463  S    
C59   O143  A    
C567  H232  S    
C8    O156  A    
C86   C110  S    
C840  H460  S    
C39   O78   A    
C67   O50   A    
C372  H70   S    
C826  C827  A    
C215  C421  S    
C665  H314  S    
C420  H110  S    
C709  C710  A    
C813  C814  A    
C670  H318  S    
C70   C126  S    
Cu1   Cu24  S    
C773  H404  S    
C50   O114  A    
C96   O20   A    
Cu46  O133  S    
C419  H109  S    
Cu20  O36   S    
C511  C516  A    
C61   O141  A    
C739  C740  A    
C283  C829  S    
C831  H452  S    
C143  C239  A    
C319  C320  A    
C835  C836  A    
C601  C602  A    
C719  H359  S    
C828  H450  S    
C581  C582  A    
C754  C755  A    
C832  C833  A    
C728  H366  S    
C130  C267  A    
C116  C214  A    
C796  C797  A    
C321  H27   S    
Cu24  O153  S    
Cu30  O61   S    
C819  C820  A    
C724  C725  A    
C805  C810  A    
Cu27  O70   S    
C748  H383  S    
C56   O116  A    
C568  H233  S    
C563  C564  A    
C75   O22   A    
Cu26  Cu37  S    
C586  H248  S    
C814  H438  S    
Cu24  O146  S    
C62   O67   A    
C316  C317  A    
Cu30  O54   S    
C579  H242  S    
C817  C818  A    
C582  H245  S    
C305  C306  A    
C361  C362  A    
Cu8   O169  S    
Cu27  O77   S    
C818  C819  A    
C600  H260  S    
C30   O83   A    
C821  H444  S    
C43   O127  A    
C64   O57   A    
C177  C224  A    
Cu12  O31   S    
C254  C655  S    
C292  C293  A    
C162  C258  A    
C815  C816  A    
C279  C805  S    
C298  H8    S    
C521  H194  S    
C5    O180  A    
Cu8   O162  S    
C34   O87   A    
C248  C619  S    
C71   C147  S    
C636  H290  S    
C55   O94   A    
C664  C665  A    
C52   C124  S    
C480  H160  S    
C370  C371  A    
Cu37  O135  S    
C485  H164  S    
Cu43  O103  S    
C418  H108  S    
C47   O123  A    
C750  H385  S    
C549  C550  A    
C638  H291  S    
C297  H7    S    
C698  H341  S    
C439  C440  A    
C308  C309  A    
C705  H347  S    
C190  C222  A    
C697  C698  A    
C41   O121  A    
C465  H147  S    
C758  C759  A    
C367  C372  A    
C701  C702  A    
Cu10  O155  S    
C365  H64   S    
C345  C346  A    
C469  C474  A    
C520  C521  A    
Cu9   O151  S    
C703  C704  A    
C320  H26   S    
C110  C207  A    
C687  C688  A    
C49   C161  S    
C639  H292  S    
C142  C287  A    
C2    C183  S    
C852  H470  S    
C404  H96   S    
C84   C116  S    
C409  C410  A    
C38   O95   A    
C313  C318  A    
C270  C751  S    
C587  H249  S    
C530  C531  A    
C241  C577  S    
Cu24  O43   S    
C98   C203  A    
C12   O161  A    
C727  C732  A    
C743  C744  A    
C262  C703  S    
C154  C250  A    
C351  H52   S    
C803  C804  A    
C158  C254  A    
C107  C203  A    
C440  C441  A    
Cu30  O83   S    
C146  C242  A    
C673  C674  A    
Cu17  O167  S    
C525  H197  S    
C784  C785  A    
C620  H276  S    
C129  C268  A    
C664  H313  S    
Cu46  O127  S    
C662  H311  S    
C735  C736  A    
C686  H331  S    
C35   O103  A    
C562  C563  A    
C374  C375  A    
Cu48  O130  S    
C387  H82   S    
C695  C696  A    
C816  H440  S    
C785  H414  S    
C522  H195  S    
C121  C217  A    
C427  C432  A    
C1    O153  A    
C635  C636  A    
Cu11  O182  S    
C243  C589  S    
C677  H324  S    
C47   C127  S    
C125  C280  A    
C288  C859  S    
C373  C378  A    
C263  C709  S    
C183  C250  A    
C94   O24   A    
C643  C648  A    
C400  C401  A    
C392  H86   S    
Cu4   O4    S    
C487  C492  A    
C386  C387  A    
C445  C446  A    
C520  H193  S    
C616  C617  A    
Cu11  O189  S    
C20   O172  A    
C64   O140  A    
C70   O134  A    
C809  C810  A    
C222  C463  S    
C526  C527  A    
C46   O51   A    
C712  C713  A    
Cu44  O104  S    
C137  C233  A    
C794  H421  S    
C514  C515  A    
C669  H317  S    
C16   O173  A    
C541  C542  A    
C136  C269  A    
C266  C727  S    
C752  C753  A    
C634  C635  A    
C584  C585  A    
C765  C766  A    
C378  H75   S    
C138  C285  A    
C71   O62   A    
C295  C296  A    
Cu11  O19   S    
C213  C409  S    
C621  H277  S    
C240  C571  S    
C676  H323  S    
C191  C235  A    
C447  H132  S    
C390  H85   S    
C417  H107  S    
C689  H334  S    
C43   O86   A    
C767  H399  S    
C154  C274  A    
C398  H91   S    
Cu38  O105  S    
Cu40  O117  S    
C607  C612  A    
C168  C288  A    
C84   O8    A    
C282  C823  S    
C484  H163  S    
C713  C714  A    
C114  C202  A    
C599  C600  A    
C89   O31   A    
Cu41  O110  S    
C54   O118  A    
C65   O72   A    
C69   C125  S    
C632  H286  S    
C293  C294  A    
C76   O16   A    
C7    C191  S    
C797  H424  S    
C634  H288  S    
C49   O113  A    
Cu18  O168  S    
Cu43  O122  S    
Cu45  O134  S    
C334  C335  A    
C729  H367  S    
C15   C186  S    
C834  H455  S    
C596  C597  A    
C89   O38   A    
C421  C426  A    
C3    C190  S    
C765  H397  S    
C604  C605  A    
C246  C607  S    
C592  C593  A    
C327  C328  A    
C855  H472  S    
C549  H217  S    
C287  C853  S    
C740  C741  A    
C604  H263  S    
C790  H418  S    
C217  C433  S    
C457  C462  A    
C538  H208  S    
C357  C358  A    
C428  H116  S    
C602  C603  A    
C358  H58   S    
C453  H137  S    
C245  C601  S    
C809  H434  S    
C304  C305  A    
Cu40  O100  S    
Cu23  O154  S    
C39   C163  S    
C774  H405  S    
C659  C660  A    
C51   O82   A    
C769  C770  A    
C838  H458  S    
C364  H63   S    
Cu34  O85   S    
C393  C394  A    
C79   O11   A    
C92   O28   A    
Cu38  O139  S    
C494  C495  A    
C357  H57   S    
C253  C649  S    
C40   C164  S    
C442  H128  S    
Cu42  O102  S    
C3    O166  A    
C495  C496  A    
C718  H358  S    
C158  C270  A    
Cu22  O163  S    
Cu23  O145  S    
C77   C105  S    
C850  H468  S    
Cu45  O115  S    
C28   O69   A    
C21   C171  S    
C397  C402  A    
C859  C860  A    
Cu7   O170  S    
C296  H6    S    
C159  C281  A    
C561  C562  A    
C598  C599  A    
C22   O177  A    
C407  C408  A    
C450  H135  S    
C709  C714  A    
C481  C486  A    
C131  C227  A    
C40   O77   A    
C802  C803  A    
Cu15  O28   S    
C535  C540  A    
C13   O192  A    
C503  C504  A    
C177  C257  A    
C342  H45   S    
C317  H24   S    
Cu7   O161  S    
C80   O12   A    
C747  C748  A    
C502  H178  S    
C491  C492  A    
C347  H49   S    
C605  C606  A    
C95   C98   S    
C836  C837  A    
C728  C729  A    
C593  H254  S    
C821  C822  A    
C61   C121  S    
C413  C414  A    
C71   O131  A    
C618  H275  S    
C189  C221  A    
C479  C480  A    
Cu42  O144  S    
C76   O21   A    
C560  C561  A    
C801  H427  S    
C490  H168  S    
C412  C413  A    
C105  C200  A    
C377  C378  A    
C41   C165  S    
C707  H349  S    
C81   O1    A    
C595  C600  A    
C667  C668  A    
C704  C705  A    
C59   O54   A    
C116  C205  A    
C212  C403  S    
Cu36  Cu47  S    
C132  C265  A    
C575  H239  S    
C400  H93   S    
C371  H69   S    
C807  C808  A    
C4    O165  A    
Cu47  O119  S    
C48   O89   A    
C36   O65   A    
C573  C574  A    
C455  H139  S    
C860  C861  A    
C682  H328  S    
C713  H354  S    
C153  C249  A    
C135  C270  A    
C622  H278  S    
C662  C663  A    
C221  C457  S    
C515  C516  A    
C839  C840  A    
C157  C253  A    
C613  C614  A    
C186  C226  A    
C548  C549  A    
Cu30  O96   S    
C700  C701  A    
C430  C431  A    
C823  C828  A    
C145  C241  A    
C781  C786  A    
C43   C135  S    
C24   C169  S    
C476  H156  S    
C33   C145  S    
C341  H44   S    
C655  C656  A    
C786  H415  S    
C231  C517  S    
C50   O55   A    
C650  C651  A    
C165  C261  A    
C21   O178  A    
Cu14  O29   S    
C464  H146  S    
C193  C289  S    
C699  C700  A    
C864  H480  S    
C205  C361  S    
C756  H390  S    
Cu47  O129  S    
C380  C381  A    
C330  H35   S    
C141  C237  A    
C644  H296  S    
C233  C529  S    
C4    C189  S    
C170  C242  A    
C368  H66   S    
Cu31  O74   S    
C323  H29   S    
C565  C566  A    
C424  C425  A    
C356  C357  A    
C66   O130  A    
C53   C157  S    
C691  C696  A    
C734  C735  A    
C788  H416  S    
C564  H230  S    
C108  C204  A    
C627  H282  S    
C632  C633  A    
C630  H285  S    
C755  C756  A    
C149  C284  A    
C863  H479  S    
C389  C390  A    
C680  C681  A    
C225  C481  S    
Cu12  Cu22  S    
C69   O133  A    
C18   O181  A    
C674  C675  A    
C567  C568  A    
C471  H152  S    
C78   O35   A    
C22   C172  S    
C79   O26   A    
C27   C167  S    
C66   C130  S    
Cu32  O59   S    
