data_mof_unit_63755.cif
_audit_creation_date              2012-12-10T20:08:36-0500
_audit_creation_method            fapswitch 2.2
_symmetry_space_group_name_H-M    P1
_symmetry_Int_Tables_number       1
_space_group_crystal_system       triclinic
_cell_length_a                    19.306945
_cell_length_b                    18.458796
_cell_length_c                    14.979414
_cell_angle_alpha                 90.314656
_cell_angle_beta                  90.501013
_cell_angle_gamma                 89.730773
_cell_volume                      5338.06555413

loop_
_atom_site_label
_atom_site_type_symbol
_atom_type_description
_atom_site_fract_x
_atom_site_fract_y
_atom_site_fract_z
_atom_type_partial_charge
C1    C     C_R   0.365655 0.500130 0.499883 1.024488
C2    C     C_R   0.181563 0.557420 0.457814 0.360149
C3    C     C_R   0.182328 0.443318 0.540578 0.350560
C4    C     C_R   0.817675 0.556695 0.459470 0.350478
C5    C     C_R   0.853293 0.499613 0.501072 0.011327
C6    C     C_R   0.146709 0.500397 0.498964 0.011296
C7    C     C_R   0.709605 0.499692 0.500285 -0.391285
C8    C     C_R   0.290396 0.500309 0.499723 -0.391302
C9    C     C_R   0.963979 0.543476 0.562485 0.304316
C10   C     C_R   0.036023 0.456535 0.437553 0.304370
C11   C     C_R   0.036891 0.542757 0.562828 0.308202
C12   C     C_R   0.634346 0.499870 0.500117 1.024464
C13   C     C_R   0.963111 0.457256 0.437209 0.308147
C14   C     C_R   0.071536 0.500769 0.498829 0.089500
C15   C     C_R   0.928465 0.499240 0.501212 0.089515
C16   C     C_R   0.540451 0.725418 0.560511 0.437178
C17   C     C_R   0.459550 0.274582 0.439488 0.437180
C18   C     C_R   0.460124 0.725528 0.439082 0.416536
C19   C     C_R   0.539875 0.274473 0.560919 0.416539
C20   C     C_R   0.538634 0.802655 0.564708 0.197498
C21   C     C_R   0.461368 0.197345 0.435292 0.197502
C22   C     C_R   0.462306 0.802672 0.434975 0.187383
C23   C     C_R   0.411724 0.597108 0.043359 0.370830
C24   C     C_R   0.537694 0.197328 0.565026 0.187381
C25   C     C_R   0.500431 0.841435 0.499954 -0.067752
C26   C     C_R   0.499570 0.158565 0.500046 -0.067749
C27   C     C_R   0.499227 0.499762 0.326884 0.922267
C28   C     C_R   0.500773 0.500237 0.673116 0.922279
C29   C     C_R   0.521491 0.961583 0.424420 -0.117030
C30   C     C_R   0.478510 0.038417 0.575581 -0.117031
C31   C     C_R   0.478883 0.962282 0.575638 -0.111688
C32   C     C_R   0.521118 0.037718 0.424362 -0.111681
C33   C     C_R   0.499633 0.077163 0.499947 0.263887
C34   C     C_R   0.588214 0.402802 0.956636 0.370863
C35   C     C_R   0.500367 0.922836 0.500054 0.263891
C36   C     C_R   0.551721 0.457743 0.814573 0.372431
C37   C     C_R   0.448264 0.542239 0.185429 0.372485
C38   C     C_R   0.503200 0.500933 0.768507 -0.325277
C39   C     C_R   0.496790 0.499060 0.231492 -0.325283
C40   C     C_R   0.455252 0.544152 0.812920 0.647124
C41   C     C_R   0.544720 0.455816 0.187075 0.647112
C42   C     C_R   0.454988 0.545848 0.905504 -0.221072
C43   C     C_R   0.544970 0.454095 0.094491 -0.221083
C44   C     C_R   0.500338 0.499423 0.953246 -0.149510
C45   C     C_R   0.746016 0.442909 0.541699 0.454393
C46   C     C_R   0.499619 0.500518 0.046751 -0.149559
C47   C     C_R   0.546472 0.452081 0.907497 -0.095814
C48   C     C_R   0.453488 0.547863 0.092499 -0.095716
C49   C     C_R   0.410890 0.593741 0.950913 0.683477
C50   C     C_R   0.589051 0.406174 0.049082 0.683509
C51   C     C_R   0.253982 0.557087 0.458296 0.454396
C52   C     C_R   0.254776 0.443509 0.540774 0.460580
C53   C     C_R   0.745227 0.556500 0.459261 0.460573
C54   C     C_R   0.818435 0.442580 0.542193 0.360150
F1    F     F_    0.408922 0.584274 0.764901 -0.574805
F2    F     F_    0.591052 0.415697 0.235090 -0.574827
F3    F     F_    0.368973 0.640623 0.905934 -0.533517
F4    F     F_    0.630951 0.359264 0.094062 -0.533478
F5    F     F_    0.711265 0.389156 0.583362 -0.618005
F6    F     F_    0.288732 0.610831 0.416607 -0.618021
F7    F     F_    0.290384 0.389590 0.582633 -0.623433
F8    F     F_    0.709622 0.610427 0.417419 -0.623445
H1    H     H_    0.538892 0.932809 0.365481 0.176445
H2    H     H_    0.174980 0.648311 0.392017 0.404616
H3    H     H_    0.176937 0.352552 0.606512 0.400866
H4    H     H_    0.823066 0.647449 0.393525 0.400868
H5    H     H_    0.953318 0.630875 0.634075 0.368751
H6    H     H_    0.046660 0.369162 0.365886 0.368763
H7    H     H_    0.048676 0.585325 0.680974 0.367169
H8    H     H_    0.951311 0.414763 0.319024 0.367102
H9    H     H_    0.623883 0.713875 0.632193 0.345845
H10   H     H_    0.376120 0.286124 0.367802 0.345838
H11   H     H_    0.378158 0.714990 0.364287 0.380449
H12   H     H_    0.461108 0.067191 0.634519 0.176445
H13   H     H_    0.621840 0.285011 0.635718 0.380449
H14   H     H_    0.578109 0.811075 0.683878 0.360173
H15   H     H_    0.421895 0.188924 0.316120 0.360179
H16   H     H_    0.424782 0.811217 0.314957 0.356313
H17   H     H_    0.575215 0.188784 0.685046 0.356311
H18   H     H_    0.461705 0.934058 0.634581 0.180428
H19   H     H_    0.538296 0.065942 0.365419 0.180437
H20   H     H_    0.615916 0.449587 0.714462 0.366550
H21   H     H_    0.384094 0.550461 0.285561 0.366633
H22   H     H_    0.402339 0.673922 0.129589 0.373327
H23   H     H_    0.597567 0.326036 0.870309 0.373271
H24   H     H_    0.825014 0.351678 0.607958 0.404613
N1    N     N_R   0.500000 0.689440 0.500000 -0.140835
N2    N     N_R   0.500000 0.310560 0.500000 -0.140834
O1    O     O_R   0.398180 0.560840 0.499980 -0.541454
O2    O     O_3   0.393515 0.575573 0.228759 -0.668965
O3    O     O_3   0.372897 0.651075 0.082862 -0.622472
O4    O     O_3   0.627008 0.348790 0.917138 -0.622397
O5    O     O_3   0.856665 0.388082 0.582533 -0.685499
O6    O     O_3   0.143331 0.611914 0.417460 -0.685524
O7    O     O_3   0.144812 0.388979 0.580733 -0.693630
O8    O     O_3   0.855194 0.611043 0.419341 -0.693677
O9    O     O_3   0.925888 0.587202 0.619156 -0.712104
O10   O     O_3   0.074116 0.412809 0.380884 -0.712091
O11   O     O_3   0.075841 0.580221 0.625525 -0.701215
O12   O     O_R   0.601820 0.439160 0.500020 -0.541432
O13   O     O_3   0.924163 0.419797 0.374506 -0.701208
O14   O     O_3   0.582799 0.684747 0.615487 -0.704702
O15   O     O_3   0.417203 0.315252 0.384510 -0.704705
O16   O     O_3   0.418233 0.685041 0.383319 -0.652745
O17   O     O_3   0.581765 0.314960 0.616684 -0.652741
O18   O     O_3   0.574051 0.841268 0.629642 -0.725200
O19   O     O_3   0.425952 0.158732 0.370356 -0.725202
O20   O     O_3   0.427268 0.841230 0.369872 -0.721394
O21   O     O_3   0.572731 0.158770 0.630130 -0.721384
O22   O     O_R   0.601820 0.560840 0.500020 -0.553823
O23   O     O_R   0.398180 0.439160 0.499980 -0.553839
O24   O     O_R   0.499980 0.560820 0.367840 -0.575698
O25   O     O_R   0.500020 0.439180 0.632160 -0.575685
O26   O     O_R   0.500020 0.560820 0.632160 -0.546073
O27   O     O_R   0.499980 0.439180 0.367840 -0.546059
O28   O     O_3   0.606496 0.424448 0.771255 -0.668989
Zn1   Zn    Zn3+2 0.500000 0.581210 0.500000 1.131914
Zn2   Zn    Zn3+2 0.500000 0.418790 0.500000 1.131927

loop_
_geom_bond_atom_site_label_1
_geom_bond_atom_site_label_2
_ccdc_geom_bond_type
C21   C26   A    
C29   H1    S    
C2    O6    S    
C4    C53   A    
C1    C8    S    
C3    C6    A    
C12   O22   A    
H8    O13   S    
C31   H18   S    
C39   C41   A    
C32   H19   S    
C37   O2    S    
O23   Zn2   S    
C7    C45   A    
H16   O20   S    
C24   C26   A    
N1    Zn1   S    
C29   C32   A    
C52   F7    S    
C30   C31   A    
C30   H12   S    
C11   C14   A    
C23   C49   A    
C20   C25   A    
C17   N2    A    
C49   F3    S    
C36   C47   A    
C11   O11   S    
C10   O10   S    
C54   O5    S    
H14   O18   S    
C4    O8    S    
H11   O16   S    
C27   C39   S    
C22   C25   A    
C16   N1    A    
C1    O1    A    
H22   O3    S    
C8    C52   A    
C44   C47   A    
C40   F1    S    
C40   C42   A    
C41   C43   A    
C2    C6    A    
C42   C44   A    
O22   Zn1   S    
H23   O4    S    
C44   C46   A    
C20   O18   S    
C7    C12   S    
C46   C48   A    
C34   C50   A    
C5    C15   S    
H17   O21   S    
C50   F4    S    
C5    C54   A    
H15   O19   S    
C19   N2    A    
C10   C14   A    
C17   C21   A    
C41   F2    S    
H24   O5    S    
C6    C14   S    
C53   F8    S    
C26   C33   S    
C28   C38   S    
C16   C20   A    
O27   Zn2   S    
C18   O16   S    
C37   C48   A    
C9    C11   A    
C8    C51   A    
C21   O19   S    
C28   O26   A    
C25   C35   S    
H7    O11   S    
C16   O14   S    
H9    O14   S    
O1    Zn1   S    
C27   O24   A    
H13   O17   S    
C13   C15   A    
C23   O3    S    
O12   Zn2   S    
C7    C53   A    
N2    Zn2   S    
C36   O28   S    
C19   O17   S    
H4    O8    S    
H21   O2    S    
C45   F5    S    
C9    O9    S    
C23   C48   A    
C30   C33   A    
C18   C22   A    
C24   O21   S    
C4    C5    A    
C10   C13   A    
C45   C54   A    
C3    C52   A    
C43   C50   A    
C51   F6    S    
H10   O15   S    
H2    O6    S    
C29   C35   A    
C18   N1    A    
C32   C33   A    
C36   C38   A    
C19   C24   A    
C17   O15   S    
H20   O28   S    
C37   C39   A    
C1    O23   A    
C38   C40   A    
O24   Zn1   S    
C22   O20   S    
C31   C35   A    
C9    C15   A    
C43   C46   A    
H6    O10   S    
C12   O12   A    
O26   Zn1   S    
C2    C51   A    
H5    O9    S    
C42   C49   A    
C28   O25   A    
O25   Zn2   S    
H3    O7    S    
C3    O7    S    
C34   C47   A    
C13   O13   S    
C34   O4    S    
C27   O27   A    
