data_mof_unit_42960.cif
_audit_creation_date              2012-10-26T20:21:13-0400
_audit_creation_method            fapswitch 2.2
_symmetry_space_group_name_H-M    P1
_symmetry_Int_Tables_number       1
_space_group_crystal_system       triclinic
_cell_length_a                    9.516274
_cell_length_b                    10.818559
_cell_length_c                    15.449663
_cell_angle_alpha                 89.912916
_cell_angle_beta                  73.950527
_cell_angle_gamma                 90.285033
_cell_volume                      1528.55811238

loop_
_atom_site_label
_atom_site_type_symbol
_atom_type_description
_atom_site_fract_x
_atom_site_fract_y
_atom_site_fract_z
_atom_type_partial_charge
C1    C     C_R   0.999920 0.262169 0.499013 0.575791
C2    C     C_R   0.094410 0.066086 0.538046 -0.175370
C3    C     C_R   0.000948 0.871654 0.501356 -0.016844
C4    C     C_R   0.999058 0.128285 0.498651 -0.016677
C5    C     C_R   0.550072 0.419332 0.553135 0.021712
C6    C     C_R   0.449610 0.581090 0.447327 0.036204
C7    C     C_R   0.401268 0.419288 0.553056 0.011710
C8    C     C_R   0.598593 0.580893 0.447099 0.024354
C9    C     C_R   0.917621 0.499876 0.672474 0.541797
C10   C     C_R   0.082559 0.504843 0.327645 0.543740
C11   C     C_R   0.872461 0.505289 0.771306 -0.012773
C12   C     C_R   0.000077 0.737813 0.500998 0.575580
C13   C     C_R   0.129973 0.530996 0.230466 -0.010881
C14   C     C_R   0.928963 0.494505 0.914295 -0.138480
C15   C     C_R   0.087386 0.622381 0.096902 -0.147482
C16   C     C_R   0.974211 0.489572 0.820729 -0.123401
C17   C     C_R   0.034523 0.583363 0.186192 -0.135275
C18   C     C_R   0.725940 0.528717 0.816457 -0.104544
C19   C     C_R   0.278177 0.518877 0.184626 -0.092870
C20   C     C_R   0.680300 0.545430 0.910285 0.016493
C21   C     C_R   0.335474 0.565967 0.097071 0.020764
C22   C     C_R   0.782914 0.520965 0.959351 -0.010614
C23   C     C_R   0.595705 0.550541 0.099575 0.259697
C24   C     C_R   0.236445 0.611603 0.051522 -0.011548
C25   C     C_R   0.534140 0.578767 0.957167 -0.016941
C26   C     C_R   0.487589 0.563171 0.052357 -0.013889
C27   C     C_3   0.583897 0.703352 0.200939 -0.131250
C28   C     C_3   0.532710 0.798414 0.828769 -0.120032
C29   C     C_3   0.666618 0.101603 0.459786 -0.105420
C30   C     C_3   0.333148 0.897180 0.539917 -0.104599
C31   C     C_R   0.433974 0.632358 0.914105 0.256854
C32   C     C_R   0.739790 0.525257 0.052852 -0.111494
C33   C     C_R   0.287341 0.647298 0.961615 -0.111258
C34   C     C_R   0.901987 0.062495 0.461410 0.252353
C35   C     C_R   0.097962 0.937429 0.538637 0.251643
C36   C     C_R   0.905632 0.933830 0.461940 -0.175642
Cu1   Cu    Cu3+1 0.140660 0.500020 0.500000 0.971912
Cu2   Cu    Cu3+1 0.859340 0.499980 0.500000 0.970197
H1    H     H_    0.818485 0.510566 0.090668 0.129877
H2    H     H_    0.087959 0.470798 0.787274 0.137645
H3    H     H_    0.695745 0.735609 0.163799 0.110696
H4    H     H_    0.569655 0.723638 0.273030 0.110168
H5    H     H_    0.499820 0.756521 0.179034 0.128344
H6    H     H_    0.630599 0.799287 0.854906 0.123754
H7    H     H_    0.447397 0.861365 0.869187 0.117169
H8    H     H_    0.567093 0.834761 0.758845 0.145192
H9    H     H_    0.600083 0.168928 0.434140 0.147569
H10   H     H_    0.640273 0.114396 0.534118 0.096985
H11   H     H_    0.633839 0.007670 0.443572 0.086572
H12   H     H_    0.212792 0.686570 0.927249 0.134137
H13   H     H_    0.358981 0.882467 0.465798 0.095819
H14   H     H_    0.399413 0.830481 0.566346 0.147576
H15   H     H_    0.366697 0.991498 0.554734 0.088180
H16   H     H_    0.836381 0.882266 0.429630 0.125690
H17   H     H_    0.163741 0.117608 0.570319 0.127527
H18   H     H_    0.325689 0.354641 0.595569 0.097988
H19   H     H_    0.674086 0.645733 0.404734 0.096293
H20   H     H_    0.347127 0.469877 0.217890 0.189515
H21   H     H_    0.648068 0.529229 0.777469 0.193852
H22   H     H_    0.008418 0.478028 0.951451 0.116965
H23   H     H_    0.012237 0.662670 0.063533 0.104085
H24   H     H_    0.586653 0.354714 0.595700 0.102937
H25   H     H_    0.412021 0.646309 0.405751 0.112597
H26   H     H_    0.920044 0.596374 0.220979 0.136441
N1    N     N_R   0.352080 0.500030 0.499980 -0.221352
N2    N     N_R   0.647920 0.499970 0.500020 -0.219303
O1    O     O_R   0.118740 0.319660 0.500000 -0.525147
O2    O     O_3   0.477325 0.677582 0.827010 -0.584429
O3    O     O_3   0.815699 0.124628 0.416614 -0.533385
O4    O     O_3   0.184017 0.875357 0.583614 -0.533439
O5    O     O_R   0.881260 0.680340 0.500000 -0.526203
O6    O     O_R   0.881170 0.319630 0.500010 -0.457493
O7    O     O_R   0.118830 0.680370 0.499990 -0.459004
O8    O     O_R   0.055570 0.500030 0.629830 -0.494594
O9    O     O_R   0.944430 0.499970 0.370170 -0.490767
O10   O     O_R   0.818000 0.500000 0.629840 -0.511983
O11   O     O_R   0.182000 0.500000 0.370160 -0.504126
O12   O     O_3   0.566375 0.575039 0.190603 -0.585867

loop_
_geom_bond_atom_site_label_1
_geom_bond_atom_site_label_2
_ccdc_geom_bond_type
C2    C35   A    
C25   C31   A    
C21   C26   A    
C11   C18   A    
C8    N2    A    
C30   H13   S    
C27   O12   S    
Cu1   O8    S    
Cu2   O10   S    
C28   H8    S    
C22   C32   A    
C29   H9    S    
C19   C21   A    
C2    H17   S    
C17   H26   S    
C23   C26   A    
C20   C25   A    
C10   O9    A    
C32   H1    S    
C30   H14   S    
C3    C12   S    
C6    N1    A    
Cu2   N2    S    
C35   O4    S    
Cu1   N1    S    
C31   C33   A    
C9    O10   A    
C18   C20   A    
C23   O12   S    
C12   O7    A    
C7    H18   S    
C30   O4    S    
C10   O11   A    
C29   O3    S    
Cu2   O9    S    
C19   H20   S    
C31   O2    S    
C30   H15   S    
Cu2   O6    S    
C28   H7    S    
C1    O6    A    
C13   C19   A    
C29   H10   S    
C5    C7    A    
C29   H11   S    
C25   C26   A    
Cu1   O11   S    
C28   H6    S    
C6    H25   S    
C2    C4    A    
Cu1   Cu2   S    
C8    H19   S    
C7    N1    A    
C11   C16   A    
C27   H3    S    
C3    C35   A    
C15   H23   S    
C9    C11   S    
C34   O3    S    
C16   H2    S    
C15   C24   A    
C12   O5    A    
C20   C22   A    
C14   C16   A    
C9    O8    A    
C15   C17   A    
Cu1   O7    S    
Cu2   O5    S    
C28   O2    S    
C5    N2    A    
C10   C13   S    
C6    C8    A    
C14   H22   S    
C24   C33   A    
C13   C17   A    
C1    C4    S    
C23   C32   A    
C14   C22   A    
C33   H12   S    
C27   H4    S    
C3    C36   A    
Cu1   O1    S    
C1    O1    A    
C5    H24   S    
C34   C36   A    
C4    C34   A    
C36   H16   S    
C27   H5    S    
C18   H21   S    
C21   C24   A    
