data_mof_unit_45695.cif
_audit_creation_date              2012-12-10T19:46:36-0500
_audit_creation_method            fapswitch 2.2
_symmetry_space_group_name_H-M    P1
_symmetry_Int_Tables_number       1
_space_group_crystal_system       triclinic
_cell_length_a                    12.897511
_cell_length_b                    14.914965
_cell_length_c                    14.150752
_cell_angle_alpha                 90.497838
_cell_angle_beta                  96.236049
_cell_angle_gamma                 89.954335
_cell_volume                      2705.91302553

loop_
_atom_site_label
_atom_site_type_symbol
_atom_type_description
_atom_site_fract_x
_atom_site_fract_y
_atom_site_fract_z
_atom_type_partial_charge
C1    C     C_R   0.500339 0.327587 0.499765 0.862342
C2    C     C_R   0.502615 0.672665 0.500724 0.905027
C3    C     C_R   0.512095 0.231995 0.501108 -0.083502
C4    C     C_R   0.517650 0.768610 0.503682 -0.104570
C5    C     C_R   0.573233 0.190934 0.437635 -0.280867
C6    C     C_R   0.548391 0.811205 0.590811 -0.270247
C7    C     C_R   0.595585 0.100254 0.445013 0.495510
C8    C     C_R   0.567539 0.902606 0.594592 0.491517
C9    C     C_R   0.547778 0.049403 0.512082 -0.009734
C10   C     C_R   0.550293 0.952217 0.509827 -0.011409
C11   C     C_R   0.427283 0.450370 0.097284 -0.282799
C12   C     C_R   0.505012 0.579306 0.896834 -0.281286
C13   C     C_R   0.428128 0.450935 0.196576 -0.016304
C14   C     C_R   0.505068 0.578628 0.797604 0.006464
C15   C     C_R   0.572367 0.549590 0.212872 -0.048570
C16   C     C_R   0.494102 0.420629 0.793621 -0.072382
C17   C     C_R   0.576009 0.550212 0.113496 0.112262
C18   C     C_R   0.494700 0.417545 0.893311 0.128446
C19   C     C_R   0.501800 0.499722 0.053709 0.104840
C20   C     C_R   0.500672 0.498490 0.946885 0.114179
C21   C     C_R   0.298390 0.494771 0.482250 0.901826
C22   C     C_R   0.701832 0.495373 0.517546 0.902847
C23   C     C_R   0.813145 0.481301 0.526463 -0.164393
C24   C     C_R   0.187498 0.479422 0.472289 -0.177038
C25   C     C_R   0.024890 0.475319 0.372130 -0.191196
C26   C     C_R   0.975723 0.467236 0.626092 -0.192249
C27   C     C_R   0.131851 0.483794 0.381936 -0.292168
C28   C     C_R   0.868857 0.478681 0.616986 -0.298184
C29   C     C_R   0.136248 0.460137 0.552936 0.443731
C30   C     C_R   0.864423 0.468227 0.444418 0.416706
C31   C     C_R   0.028367 0.464927 0.544673 0.013709
C32   C     C_R   0.972417 0.469049 0.453317 0.001493
C33   C     C_R   0.484928 0.091168 0.574383 -0.169408
C34   C     C_R   0.521171 0.908990 0.422691 -0.178862
C35   C     C_R   0.469130 0.182553 0.570353 -0.244356
C36   C     C_R   0.505995 0.817424 0.419460 -0.225076
H1    H     H_    0.628713 0.587975 0.258875 0.156082
H2    H     H_    0.490136 0.358671 0.753295 0.128965
H3    H     H_    0.829977 0.485267 0.680808 0.190070
H4    H     H_    0.170689 0.494765 0.318874 0.185573
H5    H     H_    0.983339 0.479078 0.301493 0.187339
H6    H     H_    0.017186 0.464878 0.696827 0.193386
H7    H     H_    0.445167 0.052769 0.624159 0.190361
H8    H     H_    0.505335 0.946583 0.357562 0.187251
H9    H     H_    0.421407 0.214301 0.619546 0.149165
H10   H     H_    0.482419 0.785324 0.351555 0.169272
H11   H     H_    0.606500 0.229736 0.384208 0.160523
H12   H     H_    0.558283 0.773762 0.656431 0.166224
H13   H     H_    0.367846 0.412065 0.054676 0.167724
H14   H     H_    0.507474 0.643046 0.934196 0.166541
H15   H     H_    0.370740 0.412339 0.229097 0.136146
H16   H     H_    0.508862 0.641493 0.760813 0.134979
N1    N     N_R   0.500000 0.499980 0.252470 -0.104935
N2    N     N_R   0.500000 0.500020 0.747530 -0.095119
O1    O     O_R   0.500010 0.369070 0.579480 -0.643716
O2    O     O_R   0.499990 0.630930 0.420520 -0.623533
O3    O     O_R   0.500010 0.369060 0.420520 -0.624497
O4    O     O_R   0.499990 0.630940 0.579480 -0.633542
O5    O     O_R   0.346360 0.499990 0.566340 -0.569983
O6    O     O_R   0.653640 0.500010 0.433660 -0.574237
O7    O     O_R   0.346360 0.499980 0.407390 -0.634317
O8    O     O_R   0.653640 0.500020 0.592610 -0.627792
Zn1   Zn    Zn3+2 0.500000 0.500010 0.606140 0.951512
Zn2   Zn    Zn3+2 0.500000 0.499990 0.393860 0.951656
O9    O     O_3   0.809907 0.456064 0.355245 -0.637341
C37   C     C_3   0.800819 0.362793 0.337057 0.079018
H17   H     H_    0.743034 0.333558 0.380884 0.138791
H18   H     H_    0.876966 0.327557 0.353675 0.127515
C38   C     C_3   0.764411 0.346745 0.231957 -0.333355
H19   H     H_    0.685799 0.376529 0.214235 0.238937
H20   H     H_    0.819744 0.379647 0.188296 0.216321
C39   C     C_3   0.760381 0.246791 0.207602 -0.967283
H21   H     H_    0.837621 0.215206 0.227398 0.263851
H22   H     H_    0.740126 0.237316 0.130050 0.268400
H23   H     H_    0.700618 0.212798 0.245343 0.286428
O10   O     O_3   0.190387 0.441938 0.640923 -0.638435
C40   C     C_3   0.226952 0.352161 0.642070 0.127051
H24   H     H_    0.295184 0.348219 0.696893 0.163170
H25   H     H_    0.255430 0.330780 0.573650 0.107901
C41   C     C_3   0.143369 0.286942 0.668998 -0.403369
H26   H     H_    0.117427 0.307752 0.738276 0.231519
H27   H     H_    0.074938 0.288180 0.614132 0.217838
C42   C     C_3   0.185180 0.191234 0.676693 -0.962553
H28   H     H_    0.209859 0.168600 0.607545 0.267053
H29   H     H_    0.123013 0.145605 0.696072 0.273827
H30   H     H_    0.252714 0.187367 0.732365 0.260007
N3    N     N_2   0.653938 0.601687 0.074925 -0.313730
H31   H     H_    0.676660 0.658076 0.114580 0.223156
C43   C     C_3   0.742365 0.550341 0.050182 -0.788927
H32   H     H_    0.794821 0.594506 0.014187 0.241215
H33   H     H_    0.716773 0.494448 0.000792 0.250827
H34   H     H_    0.786637 0.523201 0.115373 0.237942
N4    N     N_2   0.489847 0.332970 0.938307 -0.315270
H35   H     H_    0.449354 0.284860 0.896421 0.217985
C44   C     C_3   0.589412 0.300100 0.980824 -0.796525
H36   H     H_    0.577746 0.235831 0.017229 0.247250
H37   H     H_    0.625692 0.348704 0.034291 0.255544
H38   H     H_    0.642650 0.288371 0.925236 0.233298
O11   O     O_3   0.655875 0.062129 0.379910 -0.666281
C45   C     C_3   0.755627 0.038431 0.424566 0.091375
H39   H     H_    0.795846 0.000412 0.371388 0.178577
H40   H     H_    0.750488 0.991974 0.484627 0.122082
C46   C     C_3   0.822314 0.121088 0.456210 -0.413038
H41   H     H_    0.823368 0.167488 0.395547 0.230547
H42   H     H_    0.788369 0.156947 0.514748 0.210158
C47   C     C_3   0.934146 0.094788 0.491188 -0.945405
H43   H     H_    0.935240 0.049174 0.552853 0.261662
H44   H     H_    0.979804 0.155855 0.513719 0.267402
H45   H     H_    0.971531 0.060914 0.433438 0.266838
O12   O     O_3   0.589112 0.943068 0.683104 -0.663163
C48   C     C_3   0.695067 0.969086 0.698388 0.078892
H46   H     H_    0.702735 0.016892 0.759384 0.176427
H47   H     H_    0.720704 0.006256 0.637416 0.119527
C49   C     C_3   0.766425 0.888447 0.723889 -0.378319
H48   H     H_    0.737825 0.851577 0.783879 0.234901
H49   H     H_    0.765087 0.842139 0.661839 0.212372
C50   C     C_3   0.878722 0.918154 0.752340 -0.941836
H50   H     H_    0.909308 0.954091 0.692826 0.258728
H51   H     H_    0.928347 0.858447 0.769918 0.269487
H52   H     H_    0.883076 0.962976 0.815751 0.263615

loop_
_geom_bond_atom_site_label_1
_geom_bond_atom_site_label_2
_ccdc_geom_bond_type
C37   H18   S    
N3    H31   S    
C4    C36   A    
N4    H35   S    
C38   C39   S    
C39   H22   S    
C44   H36   S    
C24   C27   A    
C49   H48   S    
C44   H38   S    
C29   O10   S    
C40   H24   S    
C5    H11   S    
C11   C19   A    
C6    H12   S    
C15   N1    A    
C21   O5    A    
C1    O3    A    
C50   H51   S    
C22   O6    A    
N1    Zn2   S    
C37   C38   S    
C47   H43   S    
C18   C20   A    
C15   C17   A    
C38   H20   S    
O12   C48   S    
C15   H1    S    
C33   C35   A    
C24   C29   A    
C46   H42   S    
C14   H16   S    
C42   H28   S    
O1    Zn1   S    
O2    Zn2   S    
C36   H10   S    
C43   H33   S    
C9    C10   S    
C21   O7    A    
C25   C32   A    
C37   H17   S    
C26   C31   A    
N4    C44   S    
C13   H15   S    
C9    C33   A    
C48   C49   S    
C41   C42   S    
C13   N1    A    
C40   H25   S    
C33   H7    S    
C23   C30   A    
C34   H8    S    
O10   C40   S    
C48   H47   S    
C50   H52   S    
C25   H5    S    
C5    C7    A    
C41   H26   S    
C6    C8    A    
C28   H3    S    
C45   C46   S    
C1    C3    S    
O7    Zn2   S    
C2    C4    S    
O8    Zn1   S    
C11   H13   S    
C8    O12   S    
C22   O8    A    
C12   H14   S    
C31   C32   A    
C3    C35   A    
C27   H4    S    
C12   C20   A    
C45   H40   S    
C10   C34   A    
C16   C18   A    
C23   C28   A    
C43   H34   S    
C7    O11   S    
C41   H27   S    
C42   H29   S    
C12   C14   A    
N3    C43   S    
C30   O9    S    
C4    C6    A    
C35   H9    S    
C26   H6    S    
O3    Zn2   S    
C40   C41   S    
O4    Zn1   S    
C7    C9    A    
C44   H37   S    
C48   H46   S    
C14   N2    A    
C17   N3    S    
C26   C28   A    
C39   H21   S    
C3    C5    A    
C49   H49   S    
C2    O4    A    
C25   C27   A    
O5    Zn1   S    
O11   C45   S    
O6    Zn2   S    
C19   C20   S    
C1    O1    A    
C29   C31   A    
C2    O2    A    
C50   H50   S    
C30   C32   A    
C11   C13   A    
C39   H23   S    
C47   H44   S    
C45   H39   S    
C17   C19   A    
C46   C47   S    
C34   C36   A    
C38   H19   S    
C16   N2    A    
C49   C50   S    
C42   H30   S    
C8    C10   A    
O9    C37   S    
N2    Zn1   S    
C21   C24   S    
C46   H41   S    
C18   N4    S    
C22   C23   S    
C43   H32   S    
C16   H2    S    
C47   H45   S    
