data_mof_unit_13600.cif
_audit_creation_date              2012-12-11T14:04:10-0500
_audit_creation_method            fapswitch 2.2
_symmetry_space_group_name_H-M    P1
_symmetry_Int_Tables_number       1
_space_group_crystal_system       triclinic
_cell_length_a                    19.022292
_cell_length_b                    10.958336
_cell_length_c                    18.740102
_cell_angle_alpha                 90.156079
_cell_angle_beta                  89.699164
_cell_angle_gamma                 90.167774
_cell_volume                      3906.33932018

loop_
_atom_site_label
_atom_site_type_symbol
_atom_type_description
_atom_site_fract_x
_atom_site_fract_y
_atom_site_fract_z
_atom_type_partial_charge
C1    C     C_R   0.239568 0.467232 0.646507 0.555148
C2    C     C_R   0.772997 0.513759 0.362215 0.562743
C3    C     C_R   0.739528 0.967238 0.646475 0.556029
C4    C     C_R   0.261068 0.968941 0.354319 0.551079
C5    C     C_2   0.296488 0.857971 0.539920 -0.165537
C6    C     C_2   0.710637 0.842199 0.463297 -0.164693
C7    C     C_2   0.808003 0.395552 0.548131 -0.165940
C8    C     C_2   0.211339 0.341112 0.463543 -0.158531
C9    C     C_R   0.006980 0.669045 0.424390 -0.043789
C10   C     C_R   0.995033 0.657447 0.574283 -0.036034
C11   C     C_R   0.505756 0.168801 0.425169 -0.040461
C12   C     C_R   0.493550 0.157833 0.575091 -0.038818
C13   C     C_R   0.994749 0.894589 0.432815 -0.072457
C14   C     C_R   0.965345 0.874748 0.578193 -0.086418
C15   C     C_R   0.493363 0.394604 0.433462 -0.068581
C16   C     C_R   0.464293 0.375030 0.578930 -0.085643
C17   C     C_R   0.974174 0.997072 0.471867 -0.126047
C18   C     C_R   0.957680 0.986377 0.543999 -0.131771
C19   C     C_R   0.472591 0.497051 0.472467 -0.126611
C20   C     C_R   0.456271 0.486452 0.544644 -0.132525
C21   C     C_R   0.986573 0.770267 0.539739 0.007340
C22   C     C_R   0.996445 0.777917 0.464848 0.010734
C23   C     C_R   0.485374 0.270536 0.540465 0.008535
C24   C     C_R   0.495162 0.277929 0.465524 0.012990
C25   C     C_R   0.999790 0.549518 0.532381 0.021818
C26   C     C_R   0.019858 0.558881 0.460606 0.011476
C27   C     C_R   0.497131 0.049841 0.533334 0.024532
C28   C     C_R   0.517703 0.058469 0.461684 0.017285
C29   C     C_R   0.987577 0.431567 0.560606 -0.084300
C30   C     C_R   0.045145 0.453809 0.424841 -0.068702
C31   C     C_R   0.483913 0.932502 0.561833 -0.078065
C32   C     C_R   0.542918 0.952758 0.426518 -0.067538
C33   C     C_R   0.007165 0.327649 0.522582 -0.151567
C34   C     C_R   0.038094 0.338897 0.455591 -0.130255
C35   C     C_R   0.503576 0.828012 0.524394 -0.148993
C36   C     C_R   0.535316 0.838260 0.457705 -0.132812
C37   C     C_2   0.238571 0.897424 0.928904 -0.091133
C38   C     C_2   0.761116 0.897802 0.071368 -0.091491
C39   C     C_2   0.738572 0.397430 0.928901 -0.090855
C40   C     C_2   0.261111 0.397799 0.071367 -0.091357
C41   C     C_2   0.247767 0.895839 0.085248 -0.106574
C42   C     C_2   0.751734 0.896762 0.914889 -0.108528
C43   C     C_2   0.747768 0.395850 0.085245 -0.106447
C44   C     C_2   0.251745 0.396767 0.914887 -0.108476
C45   C     C_R   0.227777 0.875888 0.648292 0.557428
C46   C     C_R   0.772698 0.874667 0.352415 0.549561
C47   C     C_R   0.728659 0.378873 0.649993 0.559715
C48   C     C_R   0.272707 0.374643 0.352428 0.553876
C49   C     C_2   0.188398 0.914970 0.049590 -0.161373
C50   C     C_2   0.811060 0.916114 0.950714 -0.158190
C51   C     C_2   0.688400 0.414989 0.049586 -0.161678
C52   C     C_2   0.311064 0.416185 0.950715 -0.158340
C53   C     C_2   0.183138 0.891146 0.973695 -0.152582
C54   C     C_2   0.816339 0.890681 0.026345 -0.148289
C55   C     C_2   0.683136 0.391154 0.973693 -0.152484
C56   C     C_2   0.316352 0.390830 0.026354 -0.148025
C57   C     C_2   0.044197 0.655821 0.933365 -0.106451
C58   C     C_2   0.017638 0.664217 0.087474 -0.113420
C59   C     C_2   0.544181 0.155817 0.933364 -0.106355
C60   C     C_2   0.517633 0.164229 0.087470 -0.112027
C61   C     C_2   0.040966 0.564895 0.052803 -0.153811
C62   C     C_2   0.065325 0.568886 0.978468 -0.163363
C63   C     C_2   0.540995 0.064917 0.052813 -0.153354
C64   C     C_2   0.565349 0.068913 0.978476 -0.163306
C65   C     C_R   0.026925 0.653960 0.646318 0.542022
C66   C     C_R   0.973275 0.656409 0.353455 0.522189
C67   C     C_R   0.526617 0.154040 0.646577 0.541835
C68   C     C_R   0.473046 0.156378 0.353691 0.531330
C69   C     C_R   0.239233 0.463245 0.849599 0.546074
C70   C     C_R   0.760623 0.462971 0.150500 0.564799
C71   C     C_R   0.739231 0.963248 0.849602 0.545844
C72   C     C_R   0.260624 0.962974 0.150496 0.555206
C73   C     C_R   0.225797 0.870388 0.854592 0.545527
C74   C     C_R   0.774055 0.870604 0.145540 0.554689
C75   C     C_R   0.725797 0.370390 0.854591 0.544455
C76   C     C_R   0.274056 0.370600 0.145539 0.551902
C77   C     C_R   0.062284 0.647963 0.858352 0.566377
C78   C     C_R   0.973096 0.652648 0.150570 0.550307
C79   C     C_R   0.562280 0.147963 0.858353 0.566360
C80   C     C_R   0.473095 0.152649 0.150569 0.550470
C81   C     C_2   0.251143 0.922716 0.579807 -0.110840
C82   C     C_2   0.750782 0.915845 0.422676 -0.108025
C83   C     C_2   0.756569 0.443029 0.588440 -0.113081
C84   C     C_2   0.250847 0.415554 0.422764 -0.110144
C85   C     C_2   0.249386 0.914138 0.423789 -0.116829
C86   C     C_2   0.753753 0.908185 0.578711 -0.120103
C87   C     C_2   0.764089 0.473520 0.435270 -0.111953
C88   C     C_2   0.254020 0.408188 0.578816 -0.119964
C89   C     C_2   0.304603 0.881717 0.463841 -0.160584
C90   C     C_2   0.700824 0.865308 0.539228 -0.161828
C91   C     C_2   0.818890 0.437527 0.474718 -0.163254
C92   C     C_2   0.201365 0.364240 0.539443 -0.160561
Cr1   Cr    Cr6+3 0.113970 0.508630 0.747920 1.015241
Cr2   Cr    Cr6+3 0.886030 0.508630 0.252080 1.020248
Cr3   Cr    Cr6+3 0.613970 0.008630 0.747920 1.015280
Cr4   Cr    Cr6+3 0.386030 0.008630 0.252080 1.020781
Cr5   Cr    Cr6+3 0.269200 0.666740 0.749850 1.011569
Cr6   Cr    Cr6+3 0.730800 0.666740 0.250150 1.008517
Cr7   Cr    Cr6+3 0.769200 0.166740 0.749850 1.012963
Cr8   Cr    Cr6+3 0.230800 0.166740 0.250150 1.012366
Cr9   Cr    Cr6+3 0.112300 0.820070 0.749800 1.018288
Cr10  Cr    Cr6+3 0.887700 0.820070 0.250200 1.009010
Cr11  Cr    Cr6+3 0.612300 0.320070 0.749800 1.018134
Cr12  Cr    Cr6+3 0.387700 0.320070 0.250200 1.013767
H1    H     H_    0.357253 0.875383 0.441395 0.169956
H2    H     H_    0.648817 0.851465 0.561878 0.171628
H3    H     H_    0.871106 0.430400 0.451415 0.171531
H4    H     H_    0.149522 0.349341 0.562210 0.171352
H5    H     H_    0.130324 0.876430 0.953530 0.146036
H6    H     H_    0.869049 0.873866 0.046190 0.151973
H7    H     H_    0.630318 0.376428 0.953528 0.146201
H8    H     H_    0.369082 0.374205 0.046210 0.152011
H9    H     H_    0.290949 0.844870 0.061608 0.109532
H10   H     H_    0.708455 0.845512 0.938313 0.101793
H11   H     H_    0.790948 0.344878 0.061604 0.109082
H12   H     H_    0.208475 0.345493 0.938310 0.101884
H13   H     H_    0.036628 0.475188 0.076977 0.152872
H14   H     H_    0.095177 0.491456 0.958508 0.134556
H15   H     H_    0.536698 0.975212 0.077004 0.152793
H16   H     H_    0.595243 0.991509 0.958526 0.134516
H17   H     H_    0.025626 0.755086 0.065961 0.092063
H18   H     H_    0.012757 0.732816 0.950890 0.098623
H19   H     H_    0.525589 0.255100 0.065944 0.092137
H20   H     H_    0.512698 0.232783 0.950877 0.098523
H21   H     H_    0.196593 0.916778 0.446228 0.109492
H22   H     H_    0.806298 0.916855 0.556210 0.118871
H23   H     H_    0.711101 0.474847 0.457209 0.112823
H24   H     H_    0.306477 0.417708 0.556237 0.119321
H25   H     H_    0.223128 0.999872 0.557407 0.111686
H26   H     H_    0.775388 0.997022 0.444893 0.114927
H27   H     H_    0.728271 0.523618 0.571088 0.109931
H28   H     H_    0.274968 0.497283 0.444846 0.110947
H29   H     H_    0.970219 0.084661 0.445768 0.109933
H30   H     H_    0.939083 0.064522 0.573878 0.109117
H31   H     H_    0.468362 0.584539 0.446306 0.107192
H32   H     H_    0.437430 0.564419 0.574497 0.107620
H33   H     H_    0.009990 0.908126 0.377742 0.131507
H34   H     H_    0.951650 0.869447 0.634251 0.126358
H35   H     H_    0.508647 0.408279 0.378424 0.133672
H36   H     H_    0.450822 0.369762 0.635050 0.125993
H37   H     H_    0.143609 0.959239 0.074789 0.151932
H38   H     H_    0.855921 0.960878 0.925821 0.156143
H39   H     H_    0.643613 0.459262 0.074784 0.152114
H40   H     H_    0.355914 0.460975 0.925818 0.156075
O1    O     O_R   0.043230 0.549300 0.667990 -0.519437
O2    O     O_R   0.956770 0.549300 0.332010 -0.526245
O3    O     O_R   0.543230 0.049300 0.667990 -0.519197
O4    O     O_R   0.456770 0.049300 0.332010 -0.518199
O5    O     O_R   0.262920 0.788600 0.824420 -0.495226
O6    O     O_R   0.737080 0.788600 0.175580 -0.494783
O7    O     O_R   0.762920 0.288600 0.824420 -0.496050
O8    O     O_R   0.237080 0.288600 0.175580 -0.495565
O9    O     O_R   0.167530 0.905110 0.830340 -0.521459
O10   O     O_R   0.832470 0.905110 0.169660 -0.513535
O11   O     O_R   0.667530 0.405110 0.830340 -0.522354
O12   O     O_R   0.332470 0.405110 0.169660 -0.516016
O13   O     O_R   0.054010 0.748440 0.822860 -0.506621
O14   O     O_R   0.945990 0.748440 0.177140 -0.505373
O15   O     O_R   0.554010 0.248440 0.822860 -0.506846
O16   O     O_R   0.445990 0.248440 0.177140 -0.506398
O17   O     O_3   0.165160 0.665150 0.749190 -0.264990
O18   O     O_3   0.834840 0.665150 0.250810 -0.258766
O19   O     O_3   0.665160 0.165150 0.749190 -0.264674
O20   O     O_3   0.334840 0.165150 0.250810 -0.241667
O21   O     O_R   0.178620 0.457600 0.674100 -0.491467
O22   O     O_R   0.821380 0.457600 0.325900 -0.488860
O23   O     O_R   0.678620 0.957600 0.674100 -0.492000
O24   O     O_R   0.321380 0.957600 0.325900 -0.494717
O25   O     O_R   0.284680 0.542100 0.669460 -0.524495
O26   O     O_R   0.715320 0.542100 0.330540 -0.524480
O27   O     O_R   0.784680 0.042100 0.669460 -0.521876
O28   O     O_R   0.215320 0.042100 0.330540 -0.525305
O29   O     O_R   0.262860 0.790390 0.676650 -0.498272
O30   O     O_R   0.737140 0.790390 0.323350 -0.516163
O31   O     O_R   0.762860 0.290390 0.676650 -0.496190
O32   O     O_R   0.237140 0.290390 0.323350 -0.503097
O33   O     O_R   0.167460 0.907030 0.670940 -0.506930
O34   O     O_R   0.832540 0.907030 0.329060 -0.507271
O35   O     O_R   0.667460 0.407030 0.670940 -0.508212
O36   O     O_R   0.332540 0.407030 0.329060 -0.510071
O37   O     O_R   0.053950 0.750220 0.675100 -0.491503
O38   O     O_R   0.946050 0.750220 0.324900 -0.507421
O39   O     O_R   0.553950 0.250220 0.675100 -0.490295
O40   O     O_R   0.446050 0.250220 0.324900 -0.506039
O41   O     O_R   0.043300 0.547370 0.827390 -0.502252
O42   O     O_R   0.956700 0.547370 0.172610 -0.512228
O43   O     O_R   0.543300 0.047370 0.827390 -0.502459
O44   O     O_R   0.456700 0.047370 0.172610 -0.512929
O45   O     O_R   0.178690 0.455820 0.821860 -0.520436
O46   O     O_R   0.821310 0.455820 0.178140 -0.491891
O47   O     O_R   0.678690 0.955820 0.821860 -0.520626
O48   O     O_R   0.321310 0.955820 0.178140 -0.497144
O49   O     O_R   0.284750 0.540170 0.828860 -0.511166
O50   O     O_R   0.715250 0.540170 0.171140 -0.510187
O51   O     O_R   0.784750 0.040170 0.828860 -0.511317
O52   O     O_R   0.215250 0.040170 0.171140 -0.514068
H41   H     H_    0.291987 0.911664 0.947243 0.099450
H42   H     H_    0.707803 0.913743 0.053326 0.087107
H43   H     H_    0.791994 0.411674 0.947240 0.099285
H44   H     H_    0.207775 0.413523 0.053311 0.086961
H45   H     H_    0.326489 0.783159 0.562290 0.150964
H46   H     H_    0.685287 0.761709 0.441218 0.148580
H47   H     H_    0.838555 0.318183 0.566376 0.147353
H48   H     H_    0.186615 0.259930 0.441599 0.155390
H49   H     H_    0.067853 0.460180 0.371831 0.128409
H50   H     H_    0.962746 0.419052 0.612190 0.136363
H51   H     H_    0.566271 0.958336 0.373767 0.128491
H52   H     H_    0.459060 0.921166 0.613518 0.134817
H53   H     H_    0.000352 0.238840 0.546196 0.106764
H54   H     H_    0.055318 0.258546 0.426816 0.105319
H55   H     H_    0.496412 0.739593 0.548339 0.105722
H56   H     H_    0.552784 0.757485 0.429501 0.104405

loop_
_geom_bond_atom_site_label_1
_geom_bond_atom_site_label_2
_ccdc_geom_bond_type
Cr2   O2    S    
C7    C83   D    
C48   C84   S    
C6    C82   D    
C87   C91   D    
C86   H22   S    
C77   O41   A    
C46   O34   A    
C85   H21   S    
C35   C36   A    
C57   C77   S    
C3    O27   A    
Cr2   O22   S    
C87   H23   S    
Cr4   O24   S    
C3    O23   A    
C57   C62   D    
C65   O37   A    
Cr7   O27   S    
Cr8   O8    S    
C15   C19   A    
C12   C23   A    
C54   H6    S    
C59   C64   D    
C50   C54   S    
C79   O43   A    
C60   C63   D    
Cr11  O39   S    
C32   C36   A    
C14   C21   A    
C16   C20   A    
C6    H46   S    
Cr3   O19   S    
C79   O15   A    
Cr6   O30   S    
C43   C51   D    
C9    C22   A    
C80   O16   A    
Cr8   O28   S    
C76   O8    A    
C19   H31   S    
C29   C33   A    
C11   C24   A    
C67   O39   A    
Cr5   O25   S    
Cr6   O50   S    
Cr5   O49   S    
C14   C18   A    
C9    C66   S    
C7    H47   S    
C34   H54   S    
C43   H11   S    
C57   H18   S    
C46   C82   S    
C52   C56   S    
C33   H53   S    
C92   H4    S    
C69   O49   A    
C39   C55   D    
C14   H34   S    
C75   O7    A    
C40   C56   D    
C49   H37   S    
Cr8   O32   S    
C47   O35   A    
C23   C24   A    
C46   O30   A    
Cr1   O1    S    
C8    C92   S    
C39   C75   S    
C82   H26   S    
C2    O22   A    
C51   C55   S    
C68   O4    A    
C45   O33   A    
C37   C53   D    
C44   C52   D    
C58   C61   D    
C66   O38   A    
Cr1   O21   S    
C21   C22   A    
C3    C86   S    
Cr10  O14   S    
C2    C87   S    
C16   H36   S    
Cr12  O16   S    
C62   H14   S    
C41   C49   D    
Cr6   O18   S    
C78   O14   A    
C9    C26   A    
C17   C18   A    
C15   H35   S    
Cr8   O52   S    
C10   C21   A    
C25   C29   A    
Cr4   O4    S    
C12   C67   S    
Cr5   O29   S    
C30   C34   A    
C12   C27   A    
C27   C31   A    
Cr10  O38   S    
C91   H3    S    
C28   C32   A    
Cr3   O3    S    
C90   H2    S    
C86   C90   D    
C69   O45   A    
C85   C89   D    
C11   C68   S    
C5    H45   S    
C4    C85   S    
C40   H44   S    
Cr9   O9    S    
C6    C90   S    
C30   H49   S    
C61   H13   S    
C84   H28   S    
Cr12  O12   S    
C29   H50   S    
Cr4   O20   S    
C74   O10   A    
C13   H33   S    
C60   H19   S    
C42   H10   S    
Cr2   O46   S    
C83   H27   S    
C45   O29   A    
C35   H55   S    
C71   O51   A    
C38   C54   D    
C8    H48   S    
C70   O50   A    
C7    C91   S    
C38   H42   S    
C33   C34   A    
C80   O44   A    
C44   C69   S    
Cr8   O20   S    
C88   C92   D    
C20   H32   S    
C32   H51   S    
C39   H43   S    
C42   C50   D    
C41   C72   S    
C78   O42   A    
C10   C25   A    
Cr11  O11   S    
C15   C24   A    
Cr12  O40   S    
C36   H56   S    
Cr1   O17   S    
Cr3   O43   S    
C43   C70   S    
C37   H41   S    
C52   H40   S    
C17   H29   S    
C81   H25   S    
Cr10  O34   S    
C76   O12   A    
Cr7   O19   S    
Cr7   O51   S    
C56   H8    S    
C59   C79   S    
C5    C81   D    
C48   O36   A    
Cr9   O37   S    
Cr10  O18   S    
C70   O46   A    
Cr6   O6    S    
C10   C65   S    
C53   H5    S    
C59   H20   S    
Cr10  O10   S    
C60   C80   S    
C58   H17   S    
Cr1   O45   S    
C4    O28   A    
C55   H7    S    
C1    O21   A    
C8    C84   D    
Cr11  O19   S    
C45   C81   S    
Cr2   O42   S    
C41   H9    S    
C47   C83   S    
Cr3   O23   S    
C72   O52   A    
C75   O11   A    
C26   C30   A    
Cr3   O47   S    
C16   C23   A    
C37   C73   S    
C64   H16   S    
C13   C17   A    
C89   H1    S    
Cr4   O48   S    
C19   C20   A    
Cr9   O17   S    
C25   C26   A    
C68   O40   A    
C31   H52   S    
C2    O26   A    
C67   O3    A    
Cr11  O15   S    
Cr12  O20   S    
Cr12  O36   S    
Cr7   O7    S    
C11   C28   A    
C1    C88   S    
C49   C53   S    
C31   C35   A    
C1    O25   A    
C42   C71   S    
C38   C74   S    
C13   C22   A    
C18   H30   S    
Cr11  O35   S    
C51   H39   S    
C61   C62   S    
C47   O31   A    
C66   O2    A    
Cr9   O33   S    
C58   C78   S    
Cr9   O13   S    
C63   C64   S    
Cr6   O26   S    
C4    O24   A    
Cr7   O31   S    
C44   H12   S    
C88   H24   S    
C63   H15   S    
C73   O5    A    
C40   C76   S    
C73   O9    A    
C27   C28   A    
Cr5   O5    S    
C74   O6    A    
C71   O47   A    
C65   O1    A    
Cr4   O44   S    
C72   O48   A    
C5    C89   S    
Cr2   O18   S    
C50   H38   S    
Cr5   O17   S    
C77   O13   A    
C48   O32   A    
Cr1   O41   S    
