data_mof_unit_9435.cif
_audit_creation_date              2012-12-10T17:48:48-0500
_audit_creation_method            fapswitch 2.2
_symmetry_space_group_name_H-M    P1
_symmetry_Int_Tables_number       1
_space_group_crystal_system       triclinic
_cell_length_a                    15.791905
_cell_length_b                    10.809472
_cell_length_c                    10.031843
_cell_angle_alpha                 91.090002
_cell_angle_beta                  91.032219
_cell_angle_gamma                 97.167038
_cell_volume                      1698.41090659

loop_
_atom_site_label
_atom_site_type_symbol
_atom_type_description
_atom_site_fract_x
_atom_site_fract_y
_atom_site_fract_z
_atom_type_partial_charge
C1    C     C_R   0.506650 0.261514 0.498726 0.982398
C2    C     C_R   0.684854 0.085475 0.766522 0.351138
C3    C     C_R   0.695971 0.963379 0.736160 -0.068587
C4    C     C_R   0.338463 0.499030 0.499064 0.904198
C5    C     C_R   0.647386 0.898197 0.635188 0.358536
C6    C     C_R   0.577092 0.947739 0.577129 -0.146572
C7    C     C_R   0.574132 0.077725 0.588277 -0.061618
C8    C     C_R   0.520257 0.130794 0.494122 -0.202417
C9    C     C_R   0.477047 0.054485 0.391996 0.271440
C10   C     C_R   0.461713 0.927650 0.409343 0.391103
C11   C     C_R   0.513420 0.873806 0.499491 -0.134168
C12   C     C_3   0.942315 0.414415 0.612452 0.497811
C13   C     C_R   0.364002 0.354862 0.130845 0.409670
C14   C     C_R   0.289800 0.307744 0.057910 0.220816
C15   C     C_R   0.291091 0.306029 0.921255 0.246579
C16   C     C_R   0.503541 0.739770 0.500881 0.999970
C17   C     C_R   0.365827 0.350587 0.856375 0.370698
C18   C     C_R   0.433790 0.428538 0.924587 -0.082368
C19   C     C_R   0.433414 0.429315 0.068737 -0.060140
C20   C     C_R   0.560750 0.570823 0.074640 0.372257
C21   C     C_R   0.561224 0.569615 0.932389 0.366150
C22   C     C_R   0.660948 0.498310 0.500760 0.964707
C23   C     C_3   0.916414 0.506522 0.500985 -0.419801
C24   C     C_3   0.043204 0.427227 0.623955 0.533162
C25   C     C_3   0.040204 0.438051 0.364468 0.599310
C26   C     C_3   0.942464 0.458159 0.357282 0.575489
C27   C     C_1   0.749716 0.502549 0.502626 -0.008728
C28   C     C_3   0.082045 0.501973 0.498774 -0.392503
C29   C     C_3   0.963762 0.644482 0.529245 0.569069
C30   C     C_3   0.062630 0.643287 0.505099 0.561934
C31   C     C_1   0.824951 0.506450 0.502693 0.170574
C32   C     C_1   0.173991 0.499026 0.497675 0.325615
C33   C     C_1   0.249305 0.498368 0.497381 -0.040281
C34   C     C_R   0.632522 0.148060 0.681003 0.356151
Cl1   Cl    Cl    0.896383 0.255239 0.575102 -0.393572
Cl2   Cl    Cl    0.097716 0.492882 0.217851 -0.293018
Cl3   Cl    Cl    0.052063 0.274032 0.354672 -0.251651
Cl4   Cl    Cl    0.920533 0.565410 0.227093 -0.293134
Cl5   Cl    Cl    0.130598 0.738175 0.626535 -0.391218
Cl6   Cl    Cl    0.943924 0.703573 0.694632 -0.305807
Cl7   Cl    Cl    0.084411 0.501072 0.779669 -0.315338
Cl8   Cl    Cl    0.893069 0.436086 0.771380 -0.334246
Cl9   Cl    Cl    0.459954 0.104973 0.228261 -0.526717
Cl10  Cl    Cl    0.694745 0.780088 0.555132 -0.540320
Cl11  Cl    Cl    0.638814 0.670835 0.164848 -0.388814
Cl12  Cl    Cl    0.197937 0.233549 0.135630 -0.338406
Cl13  Cl    Cl    0.202017 0.231395 0.829125 -0.372311
Cl14  Cl    Cl    0.643242 0.661720 0.852212 -0.444472
H1    H     H_    0.746697 0.921795 0.785635 0.260298
H2    H     H_    0.082418 0.789440 0.390445 0.429491
H3    H     H_    0.873518 0.740911 0.466334 0.406426
H4    H     H_    0.704171 0.306563 0.709476 0.376376
H5    H     H_    0.704642 0.216771 0.901618 0.369433
H6    H     H_    0.359556 0.905200 0.294614 0.391367
H7    H     H_    0.047606 0.265869 0.706035 0.434999
H8    H     H_    0.325891 0.253465 0.284876 0.373538
H9    H     H_    0.347192 0.219705 0.720215 0.356934
H10   H     H_    0.834017 0.360167 0.298320 0.372582
N1    N     N_R   0.499210 0.498800 0.142780 -0.126082
N2    N     N_R   0.499180 0.498720 0.857170 -0.121320
O1    O     O_R   0.500000 0.316780 0.614690 -0.517632
O2    O     O_3   0.645425 0.275793 0.677613 -0.757113
O3    O     O_3   0.732842 0.144759 0.870738 -0.640430
O4    O     O_3   0.401020 0.853034 0.332533 -0.702582
O5    O     O_3   0.071069 0.308602 0.625469 -0.615586
O6    O     O_3   0.372762 0.316827 0.258346 -0.662695
O7    O     O_3   0.373845 0.307621 0.729635 -0.684603
O8    O     O_3   0.893218 0.344268 0.319836 -0.609543
O9    O     O_3   0.083906 0.698070 0.381677 -0.637718
O10   O     O_R   0.499990 0.316750 0.385360 -0.530705
O11   O     O_R   0.377150 0.500020 0.614720 -0.556329
O12   O     O_R   0.377140 0.499990 0.385380 -0.559971
O13   O     O_R   0.500010 0.683250 0.614640 -0.607276
O14   O     O_R   0.500000 0.683220 0.385310 -0.531398
O15   O     O_R   0.622860 0.500010 0.614620 -0.525395
O16   O     O_R   0.622850 0.499980 0.385280 -0.589107
O17   O     O_3   0.932750 0.730064 0.441833 -0.628713
Zn1   Zn    Zn3+2 0.500010 0.500020 0.653130 1.112253
Zn2   Zn    Zn3+2 0.499990 0.499980 0.346870 1.127935

loop_
_geom_bond_atom_site_label_1
_geom_bond_atom_site_label_2
_ccdc_geom_bond_type
C1    C8    S    
O16   Zn2   S    
C22   O16   A    
C3    H1    S    
C7    C8    A    
C14   Cl12  S    
C25   C28   S    
C12   C23   S    
N2    Zn1   S    
C16   O14   A    
C23   C29   S    
H2    O9    S    
O12   Zn2   S    
C5    C6    A    
C34   O2    S    
C18   C19   A    
C23   C26   S    
C12   Cl8   S    
C25   Cl3   S    
C8    C9    A    
O13   Zn1   S    
C15   Cl13  S    
C9    C10   A    
C20   Cl11  S    
C21   Cl14  S    
C2    C34   A    
C13   C14   A    
C24   Cl7   S    
C22   O15   A    
H9    O7    S    
H7    O5    S    
C13   O6    S    
C9    Cl9   S    
C17   O7    S    
C13   C19   A    
C27   C31   T    
C16   O13   A    
C28   C32   S    
C21   N2    A    
N1    Zn2   S    
C6    C11   A    
C26   Cl4   S    
C19   N1    A    
C25   C26   S    
C20   N1    A    
C23   C31   S    
H3    O17   S    
C29   C30   S    
C11   C16   S    
O1    Zn1   S    
C17   C18   A    
C12   Cl1   S    
C24   O5    S    
C18   N2    A    
C5    Cl10  S    
C22   C27   S    
C7    C34   A    
C4    O12   A    
C30   O9    S    
C2    O3    S    
H10   O8    S    
C15   C17   A    
C4    C33   S    
O10   Zn2   S    
C10   O4    S    
C24   C28   S    
C3    C5    A    
C1    O1    A    
C6    C7    A    
C12   C24   S    
C1    O10   A    
O14   Zn2   S    
C26   O8    S    
C32   C33   T    
C28   C30   S    
C2    C3    A    
H4    O2    S    
H5    O3    S    
H6    O4    S    
H8    O6    S    
C29   Cl6   S    
C30   Cl5   S    
O11   Zn1   S    
O15   Zn1   S    
C10   C11   A    
C25   Cl2   S    
C29   O17   S    
C20   C21   A    
C14   C15   A    
C4    O11   A    
