data_mof_unit_14403.cif
_audit_creation_date              2012-12-10T16:51:13-0500
_audit_creation_method            fapswitch 2.2
_symmetry_space_group_name_H-M    P1
_symmetry_Int_Tables_number       1
_space_group_crystal_system       triclinic
_cell_length_a                    27.71365
_cell_length_b                    8.79475
_cell_length_c                    7.481777
_cell_angle_alpha                 103.457759
_cell_angle_beta                  93.456083
_cell_angle_gamma                 93.044869
_cell_volume                      1766.03076589

loop_
_atom_site_label
_atom_site_type_symbol
_atom_type_description
_atom_site_fract_x
_atom_site_fract_y
_atom_site_fract_z
_atom_type_partial_charge
C1    C     C_R   0.497506 0.200131 0.453303 0.766205
C2    C     C_R   0.500114 0.799487 0.546272 0.764290
C3    C     C_R   0.101989 0.479060 0.546470 -0.219855
C4    C     C_R   0.898440 0.504196 0.496525 -0.199250
C5    C     C_R   0.123988 0.370732 0.412469 -0.073982
C6    C     C_R   0.875045 0.587502 0.648369 -0.106972
C7    C     C_R   0.095150 0.249961 0.289853 0.263675
C8    C     C_R   0.902759 0.667472 0.810716 0.311569
C9    C     C_R   0.131046 0.583099 0.688836 -0.184958
C10   C     C_R   0.870496 0.419079 0.336278 -0.192391
C11   C     C_R   0.355082 0.494609 0.510641 -0.317403
C12   C     C_R   0.644575 0.499490 0.486968 -0.328000
C13   C     C_R   0.972257 0.397276 0.368032 -0.066821
C14   C     C_R   0.029218 0.603523 0.659430 -0.075618
C15   C     C_R   0.977750 0.596442 0.661981 0.017612
C16   C     C_R   0.022207 0.374093 0.398622 0.034056
C17   C     C_R   0.949535 0.500111 0.508331 -0.084448
C18   C     C_R   0.050986 0.485107 0.535544 -0.089647
C19   C     C_R   0.944487 0.324756 0.200271 0.474948
C20   C     C_R   0.060169 0.725984 0.773699 0.454863
C21   C     C_R   0.893976 0.331100 0.187320 0.397093
C22   C     C_R   0.109203 0.703133 0.809211 0.383457
C23   C     C_R   0.407857 0.501766 0.503550 0.783635
C24   C     C_R   0.592084 0.500005 0.496448 0.807632
C25   C     C_R   0.044368 0.241525 0.301797 0.318120
C26   C     C_R   0.953869 0.675099 0.816519 0.317009
C27   C     C_2   0.497864 0.032582 0.425816 0.175040
C28   C     C_2   0.493266 0.964582 0.569326 0.212243
C29   C     C_R   0.174553 0.386633 0.406927 0.672517
C30   C     C_R   0.823955 0.578210 0.638679 0.647381
C31   C     C_R   0.181504 0.568655 0.698707 0.697218
C32   C     C_R   0.819624 0.425767 0.329575 0.692290
C33   C     C_R   0.279889 0.626776 0.539736 0.446495
C34   C     C_R   0.718512 0.360152 0.473453 0.433988
C35   C     C_R   0.329144 0.627954 0.504653 0.228045
C36   C     C_R   0.668261 0.360739 0.489693 0.259321
C37   C     C_R   0.330256 0.355506 0.531293 0.245428
C38   C     C_R   0.671669 0.637725 0.474374 0.243726
C39   C     C_R   0.279617 0.349124 0.539404 0.440875
C40   C     C_R   0.722488 0.639146 0.478571 0.445399
C41   C     C_R   0.254614 0.485780 0.548552 0.021648
C42   C     C_R   0.745600 0.499987 0.474283 0.033869
Cu1   Cu    Cu3+1 0.505380 0.517380 0.684380 1.063251
Cu2   Cu    Cu3+1 0.494620 0.482620 0.315620 1.057730
N1    N     N_R   0.202533 0.478823 0.553115 -0.425171
N2    N     N_R   0.797682 0.502386 0.479980 -0.417038
N3    N     N_2   0.486510 0.456430 0.038510 0.151855
N4    N     N_2   0.513490 0.543570 0.961490 0.131962
O1    O     O_R   0.503500 0.286120 0.619780 -0.514558
O2    O     O_R   0.496500 0.713880 0.380220 -0.542021
O3    O     O_R   0.494410 0.256780 0.308360 -0.578072
O4    O     O_R   0.505590 0.743220 0.691640 -0.595807
O5    O     O_R   0.434810 0.514700 0.655690 -0.536570
O6    O     O_R   0.565190 0.485300 0.344310 -0.520435
O7    O     O_R   0.425720 0.485350 0.344280 -0.623948
O8    O     O_R   0.574280 0.514650 0.655720 -0.591942
O9    O     O_2   0.195484 0.314378 0.254961 -0.493242
O10   O     O_2   0.800323 0.641305 0.787675 -0.491129
O11   O     O_2   0.792015 0.357258 0.174408 -0.513841
O12   O     O_2   0.209310 0.644091 0.850532 -0.508616
O13   O     O_3   0.353786 0.223291 0.543423 -0.733900
H1    H     H_    0.386750 0.230038 0.501103 0.314139
O14   O     O_3   0.650471 0.773623 0.458724 -0.699695
H2    H     H_    0.614817 0.759997 0.456309 0.344502
O15   O     O_3   0.448286 0.378766 0.932598 -0.572831
H3    H     H_    0.429280 0.332568 0.016909 0.329749
O16   O     O_3   0.550154 0.628704 0.070228 -0.563571
H4    H     H_    0.567564 0.683436 0.989131 0.352289
O17   O     O_3   0.253926 0.211782 0.549089 -0.570959
C43   C     C_3   0.258124 0.092797 0.387632 -0.091079
H5    H     H_    0.288543 0.020170 0.407155 0.217934
H6    H     H_    0.263072 0.137730 0.261933 0.162391
H7    H     H_    0.224481 0.014642 0.361021 0.195891
O18   O     O_3   0.750442 0.773688 0.474174 -0.566406
C44   C     C_3   0.746881 0.891030 0.637424 -0.099351
H8    H     H_    0.740997 0.844034 0.761022 0.167926
H9    H     H_    0.717351 0.967284 0.618608 0.224539
H10   H     H_    0.781252 0.965970 0.666828 0.194208
O19   O     O_3   0.117003 0.138555 0.165422 -0.671414
H11   H     H_    0.093606 0.097229 0.057677 0.377459
O20   O     O_3   0.879482 0.734094 0.965181 -0.657857
H12   H     H_    0.897288 0.712990 0.074834 0.320959
O21   O     O_3   0.644271 0.223989 0.509232 -0.691348
H13   H     H_    0.609119 0.235676 0.514902 0.330980
O22   O     O_3   0.349985 0.761025 0.464144 -0.748655
H14   H     H_    0.382313 0.741059 0.418614 0.312258
O23   O     O_3   0.742739 0.226115 0.472679 -0.584514
C45   C     C_3   0.729270 0.111233 0.307960 -0.117103
H15   H     H_    0.721132 0.161027 0.186276 0.166120
H16   H     H_    0.697589 0.035322 0.326225 0.229248
H17   H     H_    0.759831 0.035309 0.275909 0.209448
O24   O     O_3   0.254693 0.760060 0.549356 -0.572317
C46   C     C_3   0.271729 0.875405 0.709840 -0.148210
H18   H     H_    0.303985 0.945139 0.684205 0.203259
H19   H     H_    0.280815 0.826020 0.831036 0.161549
H20   H     H_    0.242839 0.957066 0.747662 0.219060
O25   O     O_3   0.867480 0.233904 0.037022 -0.509762
C47   C     C_3   0.862623 0.312628 0.893639 -0.151144
H21   H     H_    0.848439 0.429860 0.941623 0.190133
H22   H     H_    0.836154 0.242833 0.784253 0.196006
H23   H     H_    0.897373 0.323563 0.830427 0.144456
O26   O     O_3   0.136652 0.811435 0.945981 -0.513554
C48   C     C_3   0.128650 0.774204 0.115999 -0.150329
H24   H     H_    0.139554 0.654347 0.117441 0.154018
H25   H     H_    0.090181 0.785169 0.149054 0.146953
H26   H     H_    0.151213 0.858052 0.226922 0.200655
O27   O     O_3   0.965503 0.246770 0.044029 -0.502587
C49   C     C_3   0.994110 0.353093 0.971514 -0.336427
H27   H     H_    0.032684 0.326491 0.981178 0.178468
H28   H     H_    0.991564 0.478757 0.039691 0.172682
H29   H     H_    0.983011 0.335546 0.822951 0.180471
O28   O     O_3   0.044530 0.874071 0.839087 -0.537340
C50   C     C_3   0.040661 0.949141 0.691850 -0.239549
H30   H     H_    0.011513 0.890231 0.585799 0.168170
H31   H     H_    0.075768 0.955652 0.627981 0.144526
H32   H     H_    0.030898 0.070872 0.746253 0.203921
O29   O     O_3   0.016486 0.102795 0.233427 -0.680398
H33   H     H_    0.037700 0.014227 0.217788 0.348098
O30   O     O_3   0.980480 0.744173 0.979850 -0.739661
H34   H     H_    0.964201 0.837228 0.043013 0.386684
O31   O     O_3   0.506396 0.947182 0.251391 -0.542757
C51   C     C_3   0.461533 0.910892 0.145718 -0.153475
H35   H     H_    0.446153 0.017832 0.118485 0.148031
H36   H     H_    0.434627 0.848643 0.212898 0.115900
H37   H     H_    0.467535 0.831484 0.012025 0.216267
O32   O     O_3   0.477167 0.046062 0.734315 -0.541862
C52   C     C_3   0.427432 0.001326 0.735072 -0.275149
H38   H     H_    0.422024 0.879612 0.752195 0.146920
H39   H     H_    0.406643 0.011636 0.607506 0.192771
H40   H     H_    0.411801 0.079328 0.851930 0.191457

loop_
_geom_bond_atom_site_label_1
_geom_bond_atom_site_label_2
_ccdc_geom_bond_type
O23   C45   S    
C46   H18   S    
C8    C26   A    
C14   C18   A    
C34   C42   A    
Cu1   Cu2   S    
O25   C47   S    
C27   O31   S    
C39   C41   A    
O22   H14   S    
O32   C52   S    
C19   C21   A    
C38   O14   S    
O17   C43   S    
C9    C22   A    
C36   O21   S    
C24   O6    A    
C49   H27   S    
C3    C18   A    
C42   N2    S    
C11   C37   A    
C2    O2    A    
C20   O28   S    
Cu1   O5    S    
N3    N4    D    
C49   H28   S    
O27   C49   S    
C43   H5    S    
C12   C36   A    
Cu1   N4    S    
Cu2   N3    S    
C50   H32   S    
C40   C42   A    
C46   H19   S    
O26   C48   S    
C22   O26   S    
O28   C50   S    
C28   O32   S    
C23   O5    A    
C5    C29   A    
C10   C21   A    
C43   H6    S    
O18   C44   S    
C13   C19   A    
C8    O20   S    
C14   C20   A    
C26   O30   S    
C4    C6    A    
C33   O24   S    
C5    C7    A    
Cu1   O1    S    
C15   C26   A    
C6    C8    A    
O20   H12   S    
O16   H4    S    
C29   N1    A    
C31   O12   S    
C44   H8    S    
C52   H39   S    
C3    C9    A    
Cu2   O6    S    
C21   O25   S    
O21   H13   S    
C45   H17   S    
C43   H7    S    
C39   O17   S    
C48   H25   S    
C44   H9    S    
O31   C51   S    
C2    O4    A    
C4    C17   A    
Cu2   O3    S    
C6    C30   A    
C29   O9    S    
C47   H21   S    
C46   H20   S    
C47   H22   S    
C51   H36   S    
C52   H38   S    
C48   H24   S    
C7    O19   S    
C50   H30   S    
Cu2   O2    S    
C16   C25   A    
C15   C17   A    
C45   H16   S    
C32   N2    A    
C30   N2    A    
C20   C22   A    
O14   H2    S    
C3    C5    A    
C7    C25   A    
C37   O13   S    
O30   H34   S    
C23   O7    A    
C24   O8    A    
C47   H23   S    
C12   C24   S    
C1    O3    A    
C49   H29   S    
C13   C17   A    
C33   C41   A    
C51   H37   S    
C11   C35   A    
C52   H40   S    
C37   C39   A    
O29   H33   S    
C38   C40   A    
C35   O22   S    
Cu2   O7    S    
C1    O1    A    
C30   O10   S    
C11   C23   S    
O24   C46   S    
C33   C35   A    
C40   O18   S    
C48   H26   S    
C34   C36   A    
C34   O23   S    
N4    O16   S    
C12   C38   A    
O13   H1    S    
Cu1   O4    S    
C44   H10   S    
C9    C31   A    
O19   H11   S    
C10   C32   A    
Cu1   O8    S    
C45   H15   S    
C16   C18   A    
O15   H3    S    
C31   N1    A    
C13   C16   A    
C25   O29   S    
C27   C28   D    
C1    C27   S    
C41   N1    S    
C14   C15   A    
C2    C28   S    
C32   O11   S    
C51   H35   S    
C4    C10   A    
N3    O15   S    
C50   H31   S    
C19   O27   S    
