data_mof_unit_55247.cif
_audit_creation_date              2012-12-11T17:07:26-0500
_audit_creation_method            fapswitch 2.2
_symmetry_space_group_name_H-M    P1
_symmetry_Int_Tables_number       1
_space_group_crystal_system       triclinic
_cell_length_a                    6.960588
_cell_length_b                    14.522194
_cell_length_c                    16.083824
_cell_angle_alpha                 89.96829
_cell_angle_beta                  89.99654
_cell_angle_gamma                 90.023381
_cell_volume                      1625.80094346

loop_
_atom_site_label
_atom_site_type_symbol
_atom_type_description
_atom_site_fract_x
_atom_site_fract_y
_atom_site_fract_z
_atom_type_partial_charge
O1    O     O_R   0.505720 0.583900 0.413310 -0.537618
O2    O     O_R   0.175940 0.594920 0.586080 -0.543146
O3    O     O_R   0.005640 0.416100 0.586690 -0.534058
C1    C     C_R   0.344846 0.616991 0.614797 0.695646
O4    O     O_R   0.176000 0.594930 0.413930 -0.544495
O5    O     O_R   0.005700 0.416110 0.413310 -0.541525
C2    C     C_R   0.344811 0.616950 0.385187 0.689569
O6    O     O_R   0.505660 0.583890 0.586690 -0.539694
O7    O     O_3   0.339200 0.441330 0.500000 -0.364884
V1    V     V_3+5 0.064350 0.510880 0.500000 1.389590
O8    O     O_R   0.675980 0.405080 0.413920 -0.538667
C3    C     C_R   0.845032 0.383157 0.385073 0.687658
O9    O     O_R   0.675920 0.405070 0.586070 -0.536979
C4    C     C_R   0.844623 0.383181 0.614625 0.698725
V2    V     V_3+5 0.564340 0.489120 0.500000 1.405403
O10   O     O_3   0.839360 0.558670 0.500000 -0.374455
H1    H     H_    0.161351 0.100538 0.518438 0.109934
C5    C     C_R   0.686649 0.422199 0.777641 -0.145678
C6    C     C_R   0.613094 0.444100 0.855693 -0.124205
C7    C     C_R   0.627865 0.381544 0.920735 -0.123684
C8    C     C_R   0.715739 0.296513 0.908132 -0.132228
C9    C     C_R   0.789741 0.271740 0.829217 0.070777
C10   C     C_R   0.775879 0.336180 0.762630 0.070130
C11   C     C_R   0.880036 0.185281 0.816537 -0.187648
C12   C     C_R   0.957278 0.163563 0.737243 0.071756
C13   C     C_R   0.944402 0.228203 0.670775 0.069895
C14   C     C_R   0.854216 0.314700 0.683460 -0.188281
C15   C     C_R   0.044155 0.077048 0.721986 -0.144044
C16   C     C_R   0.117956 0.055169 0.643969 -0.129762
C17   C     C_R   0.105234 0.118140 0.579163 -0.122668
C18   C     C_R   0.018668 0.203458 0.591901 -0.131375
H2    H     H_    0.673329 0.473780 0.729600 0.110605
H3    H     H_    0.545489 0.510283 0.865857 0.115466
H4    H     H_    0.571927 0.399166 0.981485 0.109045
H5    H     H_    0.726415 0.251111 0.961249 0.104142
H6    H     H_    0.054826 0.024978 0.769755 0.103586
H7    H     H_    0.184013 0.988659 0.633628 0.115065
H8    H     H_    0.009018 0.249062 0.538892 0.106276
C19   C     C_R   0.727418 0.182862 0.241256 0.099866
C20   C     C_R   0.881955 0.182576 0.185390 -0.112358
C21   C     C_R   0.033597 0.244399 0.201134 -0.179595
H9    H     H_    0.156135 0.246659 0.159967 0.134396
C22   C     C_R   0.022430 0.308486 0.266728 -0.179717
H10   H     H_    0.137319 0.357911 0.274260 0.128143
C23   C     C_R   0.858928 0.312960 0.318367 -0.112509
C24   C     C_R   0.715929 0.246529 0.305945 0.103292
C25   C     C_3   0.505344 0.259053 0.293949 -0.408231
C26   C     C_3   0.517758 0.189362 0.223752 -0.399813
H11   H     H_    0.469601 0.329689 0.272313 0.165700
H12   H     H_    0.488550 0.219353 0.161413 0.169366
H13   H     H_    0.441170 0.123900 0.237464 0.167329
C27   C     C_R   0.509810 0.684146 0.740225 0.092887
C28   C     C_R   0.353335 0.682601 0.685369 -0.108484
C29   C     C_R   0.200673 0.743493 0.701797 -0.181694
H14   H     H_    0.077447 0.745153 0.661053 0.134220
C30   C     C_R   0.211460 0.807406 0.767481 -0.181776
H15   H     H_    0.095218 0.855803 0.775702 0.124369
C31   C     C_R   0.375927 0.812936 0.818379 -0.108638
C32   C     C_R   0.520982 0.747876 0.804961 0.101078
C33   C     C_3   0.730018 0.763251 0.791194 -0.407441
C34   C     C_3   0.718161 0.693840 0.720885 -0.404299
H16   H     H_    0.818112 0.739055 0.844545 0.176520
H17   H     H_    0.760983 0.834442 0.769548 0.167049
H18   H     H_    0.800232 0.629792 0.733656 0.168373
H19   H     H_    0.742576 0.724595 0.658451 0.170449
C35   C     C_R   0.507098 0.682643 0.258535 0.098711
C36   C     C_R   0.352824 0.682435 0.314529 -0.111303
C37   C     C_R   0.201334 0.744346 0.298926 -0.180277
H20   H     H_    0.078913 0.746590 0.340157 0.132471
C38   C     C_R   0.212572 0.808559 0.233401 -0.178727
H21   H     H_    0.097863 0.858068 0.225966 0.127174
C39   C     C_R   0.375945 0.813013 0.181694 -0.110807
C40   C     C_R   0.518651 0.746442 0.193921 0.101572
C41   C     C_3   0.729398 0.758694 0.205687 -0.408423
C42   C     C_3   0.716942 0.688785 0.275781 -0.398390
H22   H     H_    0.765732 0.829222 0.227393 0.166045
H23   H     H_    0.813319 0.733769 0.151383 0.175643
H24   H     H_    0.746862 0.718521 0.338122 0.169928
H25   H     H_    0.792913 0.623260 0.261854 0.167616
O11   O     O_R   0.229140 0.916090 0.913340 -0.542137
O12   O     O_R   0.558860 0.905090 0.086080 -0.539613
O13   O     O_R   0.729100 0.083920 0.086690 -0.539094
C43   C     C_R   0.389819 0.883208 0.114981 0.693433
O14   O     O_R   0.558860 0.905090 0.913930 -0.539026
O15   O     O_R   0.729100 0.083920 0.913310 -0.535351
C44   C     C_R   0.389768 0.883200 0.885048 0.698202
O16   O     O_R   0.229140 0.916080 0.086720 -0.539845
O17   O     O_3   0.395570 0.058660 0.000020 -0.367619
V3    V     V_3+5 0.670450 0.989140 0.000000 1.399463
O18   O     O_R   0.058810 0.094980 0.913910 -0.537720
C45   C     C_R   0.890025 0.116893 0.885414 0.696070
O19   O     O_R   0.058810 0.094980 0.086060 -0.543481
C46   C     C_R   0.890011 0.117063 0.114757 0.684247
V4    V     V_3+5 0.170450 0.010950 0.999970 1.400492
O20   O     O_3   0.895460 0.941370 0.999990 -0.370782
H26   H     H_    0.420923 0.234046 0.348122 0.174872

loop_
_geom_bond_atom_site_label_1
_geom_bond_atom_site_label_2
_ccdc_geom_bond_type
C43   O16   A    
C1    C28   S    
C21   H9    S    
C6    C7    A    
C20   C46   S    
C1    O6    A    
O15   C45   A    
C25   H11   S    
C28   C29   A    
C12   C15   A    
C13   C14   A    
O13   V3    S    
C41   H22   S    
C33   H17   S    
C15   C16   A    
O14   C44   A    
C27   C34   S    
O5    C3    A    
C17   C18   A    
V2    O10   S    
O16   V4    S    
C30   H15   S    
C33   H16   S    
C5    C6    A    
C40   C41   S    
O11   C44   A    
C29   H14   S    
O8    V2    S    
C26   H13   S    
C37   H20   S    
C41   H23   S    
C25   H26   S    
C38   H21   S    
O1    V2    S    
C10   C14   A    
C4    C14   S    
O7    V1    S    
O12   V3    S    
C26   H12   S    
C35   C36   A    
C32   C33   S    
O13   C46   A    
C8    C9    A    
H1    C17   S    
C21   C22   A    
C31   C44   S    
O12   C43   A    
O18   V4    S    
C29   C30   A    
O17   V4    S    
C41   C42   S    
C5    C10   A    
C11   C12   A    
C6    H3    S    
C19   C20   A    
O4    C2    A    
O15   V3    S    
C39   C40   A    
C12   C13   A    
C23   C24   A    
C35   C40   A    
C36   C37   A    
C33   C34   S    
V3    O20   S    
C34   H18   S    
O2    C1    A    
C22   H10   S    
C16   C17   A    
C27   C32   A    
C25   C26   S    
O19   V4    S    
O17   V3    S    
C22   C23   A    
O3    C4    A    
C19   C24   A    
C20   C21   A    
O6    V2    S    
O9    V2    S    
C9    C11   A    
C5    H2    S    
O14   V3    S    
O11   V4    S    
O2    V1    S    
C11   C45   S    
C27   C28   A    
C24   C25   S    
O1    C2    A    
C3    C23   S    
O5    V1    S    
O8    C3    A    
C8    H5    S    
C18   H8    S    
C31   C32   A    
C7    H4    S    
O4    V1    S    
O3    V1    S    
V1    O10   S    
O18   C45   A    
C35   C42   S    
O19   C46   A    
C30   C31   A    
O7    V2    S    
V4    O20   S    
C42   H24   S    
C39   C43   S    
C2    C36   S    
C34   H19   S    
C13   C18   A    
C7    C8    A    
C15   H6    S    
C37   C38   A    
C16   H7    S    
C9    C10   A    
C38   C39   A    
O9    C4    A    
C42   H25   S    
C19   C26   S    
