data_mof_unit_40088.cif
_audit_creation_date              2012-12-11T20:55:37-0500
_audit_creation_method            fapswitch 2.2
_symmetry_space_group_name_H-M    P1
_symmetry_Int_Tables_number       1
_space_group_crystal_system       triclinic
_cell_length_a                    8.260109
_cell_length_b                    19.130665
_cell_length_c                    22.775646
_cell_angle_alpha                 99.811193
_cell_angle_beta                  90.088317
_cell_angle_gamma                 91.857719
_cell_volume                      3544.44651959

loop_
_atom_site_label
_atom_site_type_symbol
_atom_type_description
_atom_site_fract_x
_atom_site_fract_y
_atom_site_fract_z
_atom_type_partial_charge
Ba1   Ba    Ba6+2 0.157290 0.533910 0.474710 1.673061
Ba2   Ba    Ba6+2 0.652900 0.466090 0.525240 1.648309
C1    C     C_3   0.383671 0.738233 0.260956 0.351660
C2    C     C_R   0.989008 0.271740 0.479554 0.050283
C3    C     C_R   0.138681 0.188051 0.550898 -0.155908
C4    C     C_3   0.924254 0.721855 0.348258 0.406364
C5    C     C_R   0.206257 0.254405 0.544815 0.001386
C6    C     C_R   0.672145 0.812020 0.449244 -0.159739
C7    C     C_R   0.605015 0.745020 0.453943 -0.000467
C8    C     C_R   0.854328 0.801844 0.529905 -0.148648
C9    C     C_R   0.819931 0.727685 0.520418 0.055688
C10   C     C_R   0.019413 0.153819 0.510101 0.001537
C11   C     C_R   0.121066 0.298424 0.514669 -0.245856
C12   C     C_3   0.441047 0.719549 0.319802 0.478191
C13   C     C_R   0.789739 0.845909 0.490874 -0.001140
C14   C     C_R   0.688260 0.701076 0.484984 -0.247319
C15   C     C_R   0.227148 0.034162 0.541854 -0.077072
C16   C     C_3   0.942057 0.792702 0.326644 -0.348965
C17   C     C_R   0.320024 0.981632 0.558903 -0.079482
C18   C     C_R   0.273349 0.911472 0.540850 -0.067661
C19   C     C_R   0.127844 0.895266 0.510453 -0.082003
C20   C     C_R   0.011272 0.946747 0.508799 0.013680
C21   C     C_R   0.065984 0.020078 0.520142 0.038581
C22   C     C_R   0.847535 0.924793 0.493086 -0.017086
C23   C     C_3   0.483764 0.684004 0.618822 0.308202
C24   C     C_R   0.742561 0.979827 0.482523 0.039314
C25   C     C_R   0.797402 0.053131 0.493585 0.012283
C26   C     C_R   0.961387 0.075079 0.508932 -0.018682
C27   C     C_R   0.580575 0.965639 0.461891 -0.079761
C28   C     C_3   0.831313 0.375974 0.341372 0.416482
C29   C     C_R   0.486949 0.017973 0.445008 -0.085713
C30   C     C_R   0.533973 0.088157 0.462614 -0.066331
C31   C     C_R   0.680553 0.104582 0.492316 -0.076083
C32   C     C_R   0.644378 0.523722 0.335331 -0.300917
C33   C     C_R   0.366106 0.563240 0.948494 -0.023173
C34   C     C_3   0.491466 0.764346 0.636425 -0.383289
C35   C     C_R   0.316731 0.559812 0.888740 0.582994
C36   C     C_R   0.245941 0.435706 0.881129 0.581263
C37   C     C_R   0.297164 0.437001 0.940477 -0.022722
C38   C     C_R   0.357528 0.501249 0.974260 -0.052949
C39   C     C_R   0.424938 0.627122 0.982937 -0.079136
C40   C     C_3   0.856670 0.360619 0.274263 0.315229
C41   C     C_R   0.475068 0.629432 0.041793 -0.096475
C42   C     C_R   0.468575 0.567873 0.067955 -0.030054
C43   C     C_R   0.410007 0.503496 0.034013 -0.054440
C44   C     C_R   0.291201 0.375424 0.966625 -0.079391
C45   C     C_3   0.886024 0.284165 0.650248 0.362418
C46   C     C_R   0.345493 0.377401 0.025022 -0.085893
C47   C     C_R   0.405296 0.441226 0.059360 -0.019222
C48   C     C_R   0.461292 0.444120 0.118340 0.568228
C49   C     C_R   0.518528 0.569414 0.127403 0.593109
C50   C     C_2   0.063145 0.477307 0.773297 -0.070250
C51   C     C_3   0.019600 0.483060 0.709523 -0.058482
C52   C     C_3   0.997724 0.632233 0.660178 0.299492
C53   C     C_1   0.302655 0.511622 0.694228 0.015319
C54   C     C_2   0.343415 0.511282 0.750392 -0.092118
C55   C     C_2   0.217055 0.493559 0.793360 0.217936
C56   C     C_3   0.878856 0.212346 0.670511 -0.362314
C57   C     C_R   0.709711 0.543039 0.235732 -0.098557
C58   C     C_R   0.750947 0.549500 0.296060 -0.056075
C59   C     C_R   0.501189 0.487357 0.314425 0.037263
C60   C     C_R   0.456818 0.482451 0.254298 -0.084863
C61   C     C_R   0.559770 0.511298 0.214401 0.229502
C62   C     C_2   0.169262 0.478322 0.671113 -0.281517
C63   C     C_3   0.036542 0.662026 0.725222 -0.362276
C64   C     C_3   0.318897 0.317179 0.393270 0.339357
C65   C     C_3   0.314299 0.236824 0.375386 -0.382571
C66   C     C_3   0.048048 0.330072 0.201269 0.264878
C67   C     C_3   0.390328 0.295867 0.680059 0.308793
C68   C     C_3   0.202668 0.289310 0.188702 -0.273649
C69   C     C_3   0.207327 0.706972 0.181690 0.313169
C70   C     C_3   0.089907 0.649318 0.151071 -0.277115
C71   C     C_3   0.454863 0.281989 0.739369 -0.359133
C72   C     C_R   0.953411 0.197566 0.470901 -0.148333
H1    H     H_    0.471888 0.662509 0.313099 -0.006874
H2    H     H_    0.399505 0.331797 0.432788 0.072958
H3    H     H_    0.230307 0.220481 0.337014 0.133958
H4    H     H_    0.272069 0.211510 0.413160 0.054477
H5    H     H_    0.437468 0.218248 0.362730 0.122028
H6    H     H_    0.551102 0.753128 0.333034 -0.214482
H7    H     H_    0.490609 0.738880 0.231356 0.012267
H8    H     H_    0.607494 0.665777 0.607169 0.017590
H9    H     H_    0.403196 0.670326 0.579176 0.072587
H10   H     H_    0.574086 0.780232 0.675254 0.131306
H11   H     H_    0.537501 0.788807 0.598606 0.055314
H12   H     H_    0.769126 0.317390 0.254643 0.019393
H13   H     H_    0.368653 0.784038 0.648189 0.123743
H14   H     H_    0.334048 0.792471 0.269688 -0.038696
H15   H     H_    0.879176 0.789484 0.283080 0.104486
H16   H     H_    0.790465 0.283970 0.615828 0.099209
H17   H     H_    0.006346 0.292585 0.631198 -0.055770
H18   H     H_    0.885498 0.169104 0.631486 0.070402
H19   H     H_    0.981571 0.208568 0.701213 0.118126
H20   H     H_    0.763171 0.205304 0.693867 0.140882
H21   H     H_    0.263978 0.273867 0.674516 -0.021875
H22   H     H_    0.391426 0.354295 0.681290 0.044398
H23   H     H_    0.832457 0.409227 0.255474 -0.078204
H24   H     H_    0.374384 0.305532 0.775804 0.136658
H25   H     H_    0.578259 0.306338 0.747850 0.157762
H26   H     H_    0.984081 0.726905 0.392636 0.062207
H27   H     H_    0.459273 0.223959 0.739057 0.110893
H28   H     H_    0.868600 0.175681 0.435871 0.074358
H29   H     H_    0.177739 0.165759 0.588743 0.062378
H30   H     H_    0.631950 0.836182 0.412661 0.069484
H31   H     H_    0.937660 0.823545 0.565495 0.075832
H32   H     H_    0.163587 0.352718 0.515779 0.059425
H33   H     H_    0.645210 0.646888 0.484066 0.066322
H34   H     H_    0.110546 0.613652 0.637497 0.020870
H35   H     H_    0.293042 0.082917 0.542453 0.075297
H36   H     H_    0.438960 0.994900 0.578543 0.079007
H37   H     H_    0.355318 0.870196 0.546658 0.095583
H38   H     H_    0.793408 0.708765 0.352187 -0.097148
H39   H     H_    0.104521 0.842087 0.488265 0.127629
H40   H     H_    0.515199 0.916843 0.462094 0.072675
H41   H     H_    0.367395 0.004599 0.425957 0.076223
H42   H     H_    0.451315 0.129206 0.457050 0.097460
H43   H     H_    0.704342 0.157803 0.514464 0.127468
H44   H     H_    0.339873 0.328686 0.043288 0.109703
H45   H     H_    0.907842 0.587460 0.657524 0.035772
H46   H     H_    0.245821 0.325232 0.941788 0.118760
H47   H     H_    0.519721 0.679705 0.066704 0.107667
H48   H     H_    0.794247 0.561935 0.205362 0.088472
H49   H     H_    0.432723 0.675657 0.964434 0.120345
H50   H     H_    0.888869 0.835349 0.359252 0.060883
H51   H     H_    0.467042 0.524292 0.765600 0.102884
H52   H     H_    0.968415 0.466721 0.803906 0.094793
H53   H     H_    0.343172 0.456028 0.238591 0.108007
H54   H     H_    0.678383 0.527679 0.381703 0.079277
H55   H     H_    0.168215 0.447799 0.626278 0.063996
H56   H     H_    0.119120 0.709502 0.728102 0.146507
H57   H     H_    0.071965 0.806673 0.321423 0.139693
H58   H     H_    0.702257 0.386229 0.350683 -0.123231
H59   H     H_    0.907181 0.423638 0.359836 0.034213
H60   H     H_    0.064687 0.382681 0.187062 0.053704
H61   H     H_    0.948456 0.299050 0.174527 0.025749
H62   H     H_    0.186983 0.235974 0.201396 0.104356
H63   H     H_    0.231079 0.282815 0.140493 0.086092
H64   H     H_    0.304978 0.318344 0.214865 0.164631
H65   H     H_    0.307664 0.713365 0.150261 0.036701
H66   H     H_    0.141551 0.757462 0.191926 0.014319
H67   H     H_    0.096973 0.622420 0.747044 0.083199
H68   H     H_    0.982387 0.645667 0.179589 0.138129
H69   H     H_    0.049724 0.662365 0.107781 0.053124
H70   H     H_    0.149408 0.597341 0.142899 0.111729
H71   H     H_    0.923235 0.677401 0.749551 0.118718
H72   H     H_    0.195301 0.334918 0.404340 0.004072
N1    N     N_R   0.259041 0.496385 0.855634 -0.428232
N2    N     N_R   0.512755 0.508122 0.152390 -0.420711
O1    O     O_2   0.108070 0.674980 0.540650 -0.462093
O2    O     O_2   0.687094 0.445022 0.697607 -0.481596
O3    O     O_3   0.863152 0.337400 0.699534 -0.596131
O4    O     O_3   0.861930 0.586170 0.535430 -0.487376
O5    O     O_3   0.451480 0.461630 0.428900 -0.494755
O6    O     O_2   0.599240 0.538720 0.642170 -0.459315
O7    O     O_3   0.423750 0.653633 0.666757 -0.634995
O8    O     O_2   0.529645 0.247817 0.518276 -0.507534
O9    O     O_3   0.488547 0.262532 0.634007 -0.599196
O10   O     O_2   0.324066 0.613417 0.866189 -0.595937
O11   O     O_2   0.191145 0.380457 0.851940 -0.605309
O12   O     O_3   0.375841 0.347440 0.345255 -0.622542
O13   O     O_2   0.466829 0.389428 0.139077 -0.631756
O14   O     O_2   0.566224 0.625574 0.157110 -0.621023
O15   O     O_3   0.366390 0.628250 0.433820 -0.459201
O16   O     O_2   0.280525 0.752307 0.478997 -0.507932
O17   O     O_3   0.931772 0.686252 0.634714 -0.636733
O18   O     O_3   0.319926 0.734215 0.363057 -0.594874
O19   O     O_2   0.211060 0.461230 0.357810 -0.443783
O20   O     O_3   0.958150 0.591500 0.402390 -0.492025
O21   O     O_2   0.085371 0.539400 0.296547 -0.457413
O22   O     O_3   0.017364 0.339447 0.262947 -0.617930
O23   O     O_3   0.998207 0.669832 0.307164 -0.545299
O24   O     O_3   0.266241 0.687251 0.234540 -0.591565
O25   O     O_2   0.702240 0.324970 0.459330 -0.458321
O26   O     O_3   0.948380 0.413820 0.464520 -0.498101
O27   O     O_3   0.443920 0.371740 0.566130 -0.462323
O28   O     O_3   0.874536 0.316263 0.365046 -0.628062
O29   O     O_3   0.358830 0.538360 0.571050 -0.480742
O30   O     O_3   0.852160 0.408490 0.597560 -0.488467
P1    P     P_3+3 0.933470 0.664380 0.557030 0.981015
P2    P     P_3+3 0.383600 0.440030 0.365120 1.015623
P3    P     P_3+3 0.948338 0.586575 0.325008 0.993579
P4    P     P_3+3 0.876840 0.335610 0.442930 0.986543
P5    P     P_3+3 0.855726 0.419575 0.675718 0.972459
P6    P     P_3+3 0.396201 0.717281 0.430776 0.942095
P7    P     P_3+3 0.417814 0.561159 0.645714 0.957164
P8    P     P_3+3 0.414727 0.282148 0.567033 0.921787

loop_
_geom_bond_atom_site_label_1
_geom_bond_atom_site_label_2
_ccdc_geom_bond_type
C70   H69   S    
C32   C58   A    
C53   C54   D    
C3    H29   S    
C31   H43   S    
C10   C72   A    
C23   O7    S    
C5    P8    S    
C17   C18   A    
C65   H3    S    
C27   H40   S    
C67   H22   S    
O26   P4    S    
C64   O12   S    
C63   H56   S    
C52   C63   S    
C25   C31   A    
C70   H68   S    
C24   C25   A    
C15   C21   A    
C49   O14   D    
C33   C35   A    
C7    C14   A    
C22   C24   A    
C36   O11   D    
C8    C13   A    
C51   P5    S    
Ba2   O25   S    
C60   H53   S    
Ba1   P2    S    
C1    O24   S    
Ba1   O19   S    
O20   P3    S    
O1    P1    D    
Ba1   O15   S    
O29   P7    S    
C54   C55   S    
Ba1   O4    S    
C71   H25   S    
Ba1   Ba2   S    
Ba2   P4    S    
C29   H41   S    
C2    C11   A    
O12   P2    S    
C40   O22   S    
C14   H33   S    
C15   C17   A    
C66   O22   S    
C6    C7    A    
C1    H7    S    
C67   O9    S    
C67   C71   S    
C40   H12   S    
Ba2   O29   S    
C12   H6    S    
C12   O18   S    
C41   H47   S    
C2    C72   A    
O30   P5    S    
C72   H28   S    
C57   H48   S    
C71   H27   S    
O19   P2    D    
O15   P6    S    
O5    P2    S    
C57   C58   A    
Ba2   O6    S    
C52   H45   S    
C48   O13   D    
C68   H62   S    
C39   C41   A    
C16   H57   S    
C38   C43   A    
C65   H4    S    
Ba1   O29   S    
C59   P2    S    
C62   H55   S    
C28   O28   S    
C45   H17   S    
C4    O23   S    
C66   H61   S    
C34   H13   S    
Ba2   O4    S    
C71   H24   S    
C4    C16   S    
O6    P7    D    
C44   C46   A    
Ba1   O26   S    
C65   H5    S    
O9    P8    S    
C3    C10   A    
C19   H39   S    
O7    P7    S    
C40   H23   S    
C37   C38   A    
C3    C5    A    
C50   H52   S    
C11   H32   S    
C46   H44   S    
Ba1   O20   S    
C54   H51   S    
C32   C59   A    
C30   H42   S    
C4    H26   S    
C35   O10   D    
O28   P4    S    
C41   C42   A    
C60   C61   A    
O16   P6    D    
Ba2   O27   S    
C18   H37   S    
C63   H67   S    
C9    C14   A    
C29   C30   A    
C43   C47   A    
C28   H59   S    
C64   H2    S    
C53   C62   D    
C44   H46   S    
C21   C26   A    
C35   N1    Am   
Ba1   O5    S    
C6    H30   S    
O21   P3    D    
C69   H66   S    
C1    C12   S    
C24   C27   A    
C37   C44   A    
C42   C49   A    
C66   C68   S    
C46   C47   A    
C45   O3    S    
O25   P4    D    
C68   H64   S    
C6    C13   A    
C8    C9    A    
C55   N1    S    
C23   H8    S    
O17   P1    S    
C45   H16   S    
C20   C22   A    
C9    P1    S    
C52   O17   S    
C63   H71   S    
C61   N2    S    
C50   C51   S    
C17   H36   S    
C48   N2    Am   
C58   P3    S    
C70   H70   S    
C13   C22   S    
C1    H14   S    
C69   O24   S    
C16   H15   S    
C4    H38   S    
O23   P3    S    
O18   P6    S    
C42   C43   A    
Ba1   O1    S    
C67   H21   S    
C15   H35   S    
C69   H65   S    
O3    P5    S    
O2    P5    D    
O8    P8    D    
C34   H11   S    
Ba2   O5    S    
C57   C61   A    
C52   H34   S    
C30   C31   A    
C39   H49   S    
O4    P1    S    
C66   H60   S    
C33   C38   A    
C56   H20   S    
C69   C70   S    
C27   C29   A    
C7    P6    S    
Ba2   O26   S    
C45   C56   S    
Ba1   P1    S    
C36   C37   A    
C49   N2    Am   
C34   H10   S    
C28   H58   S    
C51   C62   S    
C64   C65   S    
C53   P7    S    
C59   C60   A    
C33   C39   A    
C36   N1    Am   
C64   H72   S    
C50   C55   D    
C23   C34   S    
C5    C11   A    
C18   C19   A    
C10   C26   S    
C68   H63   S    
C32   H54   S    
C47   C48   A    
C25   C26   A    
C23   H9    S    
C20   C21   A    
C28   C40   S    
C8    H31   S    
C56   H19   S    
Ba2   O30   S    
C2    P4    S    
C19   C20   A    
C56   H18   S    
C12   H1    S    
C16   H50   S    
O27   P8    S    
