data_mof_unit_33378.cif
_audit_creation_date              2012-12-10T17:18:56-0500
_audit_creation_method            fapswitch 2.2
_symmetry_space_group_name_H-M    P1
_symmetry_Int_Tables_number       1
_space_group_crystal_system       triclinic
_cell_length_a                    9.600924
_cell_length_b                    10.870294
_cell_length_c                    13.468277
_cell_angle_alpha                 92.726999
_cell_angle_beta                  73.22762
_cell_angle_gamma                 92.057908
_cell_volume                      1343.93264501

loop_
_atom_site_label
_atom_site_type_symbol
_atom_type_description
_atom_site_fract_x
_atom_site_fract_y
_atom_site_fract_z
_atom_type_partial_charge
C1    C     C_R   0.504364 0.737434 0.494034 0.838440
C2    C     C_R   0.443745 0.443916 0.973901 0.094893
C3    C     C_R   0.488490 0.440578 0.863707 0.087207
C4    C     C_R   0.551901 0.459488 0.027378 0.095861
C5    C     C_R   0.699735 0.474465 0.969921 0.137110
C6    C     C_R   0.742214 0.448857 0.863690 -0.234329
C7    C     C_R   0.637976 0.423903 0.812526 -0.191810
C8    C     C_R   0.518358 0.464695 0.135729 -0.228852
C9    C     C_R   0.766454 0.529890 0.126772 0.164255
C10   C     C_R   0.382506 0.454935 0.809379 -0.106080
C11   C     C_R   0.326856 0.874312 0.389329 0.137226
C12   C     C_R   0.423457 0.485860 0.698373 0.797268
C13   C     C_R   0.191807 0.916321 0.390583 -0.142119
C14   C     C_R   0.138747 0.025264 0.446132 0.287445
C15   C     C_R   0.231996 0.097177 0.490628 -0.246432
C16   C     C_R   0.371679 0.055115 0.487327 0.054426
C17   C     C_R   0.404129 0.932355 0.453603 0.040046
C18   C     C_R   0.509207 0.871948 0.487704 -0.093663
C19   C     C_R   0.600413 0.941164 0.534469 -0.198699
C20   C     C_R   0.591143 0.068561 0.543818 -0.206201
C21   C     C_R   0.480813 0.127812 0.516683 -0.079379
C22   C     C_R   0.910405 0.348227 0.353077 -0.163843
C23   C     C_R   0.493692 0.262421 0.507072 0.771783
C24   C     C_R   0.011145 0.280637 0.277273 -0.230458
C25   C     C_R   0.152925 0.275583 0.280942 0.136706
C26   C     C_R   0.195773 0.343522 0.357428 -0.208298
C27   C     C_R   0.100565 0.423979 0.429145 0.171738
C28   C     C_R   0.951536 0.424988 0.428275 0.220390
C29   C     C_R   0.901631 0.572109 0.567721 -0.072100
C30   C     C_R   0.049600 0.572319 0.567511 -0.055399
C31   C     C_R   0.578296 0.500002 0.300231 0.838842
C32   C     C_R   0.803811 0.514075 0.019218 -0.226646
C33   C     C_R   0.623983 0.497314 0.186193 -0.083042
C34   C     C_R   0.234475 0.443657 0.863666 -0.196503
C35   C     C_R   0.191417 0.428501 0.970050 -0.114295
C36   C     C_R   0.293122 0.435520 0.025510 -0.111139
Cu1   Cu    Cu3+1 0.359340 0.500010 0.500010 0.947334
Cu2   Cu    Cu3+1 0.640660 0.499990 0.499990 0.947174
H1    H     H_    0.132423 0.865577 0.344263 0.181485
H2    H     H_    0.190071 0.181420 0.532329 0.167839
H3    H     H_    0.670540 0.120936 0.572615 0.171358
H4    H     H_    0.826409 0.631244 0.623255 0.145654
H5    H     H_    0.801747 0.334315 0.350116 0.209536
H6    H     H_    0.976246 0.225780 0.219187 0.176813
H7    H     H_    0.303806 0.327888 0.358175 0.217859
H8    H     H_    0.856414 0.446964 0.820105 0.138517
H9    H     H_    0.084765 0.631683 0.622862 0.142429
H10   H     H_    0.913151 0.537430 0.973248 0.149908
H11   H     H_    0.409867 0.444526 0.182842 0.174884
H12   H     H_    0.151374 0.447193 0.824019 0.148860
H13   H     H_    0.249573 0.434105 0.108506 0.161865
H14   H     H_    0.077714 0.415687 0.011022 0.158498
H15   H     H_    0.678207 0.390242 0.733174 0.182278
H16   H     H_    0.680279 0.897020 0.562633 0.172111
N1    N     N_R   0.852480 0.498790 0.499000 -0.194459
N2    N     N_R   0.148360 0.498710 0.498970 -0.191938
O1    O     O_R   0.381190 0.680360 0.500010 -0.565489
O2    O     O_R   0.618760 0.680340 0.500000 -0.569503
O3    O     O_R   0.323240 0.499990 0.650990 -0.584905
O4    O     O_R   0.560820 0.499960 0.650980 -0.595914
O5    O     O_R   0.381240 0.319660 0.500000 -0.614392
O6    O     O_R   0.618810 0.319640 0.499990 -0.614383
O7    O     O_R   0.439180 0.500040 0.349020 -0.584519
O8    O     O_R   0.676760 0.500010 0.349010 -0.572389
I1    I     I_    0.928524 0.615412 0.188451 -0.372265
I2    I     I_    0.432272 0.767166 0.256528 -0.311547
N3    N     N_2   0.996003 0.066449 0.454119 -0.440860
H17   H     H_    0.973770 0.156120 0.480878 0.248221
C37   C     C_3   0.924651 0.019599 0.378115 -0.634360
H18   H     H_    0.829095 0.075775 0.381915 0.231346
H19   H     H_    0.887432 0.922686 0.393664 0.243866
H20   H     H_    0.999507 0.024351 0.298313 0.252232
I3    I     I_    0.300831 0.157384 0.175617 -0.407492

loop_
_geom_bond_atom_site_label_1
_geom_bond_atom_site_label_2
_ccdc_geom_bond_type
C16   C21   A    
C29   H4    S    
C19   C20   A    
C4    C8    A    
C20   H3    S    
C1    C18   S    
Cu1   Cu2   S    
C34   C35   A    
C3    C7    A    
C5    C6    A    
C15   C16   A    
C18   C19   A    
C37   H19   S    
C9    C32   A    
Cu2   O2    S    
C12   O3    A    
C23   O6    A    
Cu2   N1    S    
C35   C36   A    
C16   C17   A    
C14   N3    S    
C31   C33   S    
C26   H7    S    
C11   I2    S    
C5    C32   A    
Cu1   N2    S    
C22   C28   A    
C13   C14   A    
C9    C33   A    
C32   H10   S    
Cu1   O7    S    
C28   N1    A    
Cu2   O8    S    
C34   H12   S    
N3    H17   S    
C31   O7    A    
C30   H9    S    
C24   C25   A    
C27   N2    A    
C29   N1    A    
C25   C26   A    
C30   N2    A    
N3    C37   S    
C37   H20   S    
C2    C4    A    
C29   C30   A    
C1    O1    A    
C22   H5    S    
C17   C18   A    
C26   C27   A    
C10   C34   A    
Cu1   O3    S    
C36   H13   S    
C10   C12   S    
Cu2   O4    S    
C19   H16   S    
C21   C23   S    
C24   H6    S    
C22   C24   A    
C7    H15   S    
C35   H14   S    
C2    C36   A    
C11   C17   A    
C6    H8    S    
C31   O8    A    
C4    C5    A    
Cu1   O5    S    
C6    C7    A    
C2    C3    A    
C3    C10   A    
C1    O2    A    
C11   C13   A    
C25   I3    S    
C8    C33   A    
C37   H18   S    
C9    I1    S    
C15   H2    S    
C13   H1    S    
C12   O4    A    
C23   O5    A    
C20   C21   A    
C27   C28   A    
C14   C15   A    
C8    H11   S    
Cu1   O1    S    
Cu2   O6    S    
