data_mof_unit_56620.cif
_audit_creation_date              2012-12-11T15:13:42-0500
_audit_creation_method            fapswitch 2.2
_symmetry_space_group_name_H-M    P1
_symmetry_Int_Tables_number       1
_space_group_crystal_system       triclinic
_cell_length_a                    6.944454
_cell_length_b                    13.471538
_cell_length_c                    20.126837
_cell_angle_alpha                 104.141575
_cell_angle_beta                  90.015963
_cell_angle_gamma                 90.569706
_cell_volume                      1825.75628123

loop_
_atom_site_label
_atom_site_type_symbol
_atom_type_description
_atom_site_fract_x
_atom_site_fract_y
_atom_site_fract_z
_atom_type_partial_charge
O1    O     O_R   0.506780 0.600060 0.449950 -0.538477
O2    O     O_R   0.179840 0.597110 0.589410 -0.543877
O3    O     O_R   0.004570 0.399940 0.550050 -0.538298
C1    C     C_R   0.348577 0.618961 0.616924 0.677083
O4    O     O_R   0.177380 0.612160 0.452890 -0.540576
O5    O     O_R   0.002100 0.415100 0.412560 -0.540762
C2    C     C_R   0.346671 0.639094 0.436399 0.696936
O6    O     O_R   0.509250 0.584900 0.587440 -0.540564
O7    O     O_3   0.337570 0.435330 0.486930 -0.369603
V1    V     V_3+5 0.064650 0.512000 0.502430 1.414517
O8    O     O_R   0.672090 0.402890 0.410590 -0.543517
C3    C     C_R   0.840510 0.381055 0.383055 0.679227
O9    O     O_R   0.674540 0.387840 0.547110 -0.540851
C4    C     C_R   0.842835 0.360970 0.563654 0.696128
V2    V     V_3+5 0.564040 0.488000 0.497570 1.414118
O10   O     O_3   0.840990 0.564670 0.513070 -0.369606
C5    C     C_R   0.857859 0.106207 0.607776 -0.162023
H1    H     H_    0.850324 0.155735 0.514272 0.101432
H2    H     H_    0.868020 0.980015 0.690143 0.116964
H3    H     H_    0.860119 0.025994 0.580920 0.112434
C6    C     C_R   0.849940 0.283394 0.603109 -0.031763
C7    C     C_R   0.858784 0.319731 0.932940 -0.092963
C8    C     C_R   0.853933 0.396636 0.897947 -0.069693
C9    C     C_R   0.853043 0.372314 0.826554 -0.175610
C10   C     C_R   0.857014 0.269081 0.787960 0.079099
C11   C     C_R   0.861724 0.190527 0.824292 0.067878
C12   C     C_R   0.856377 0.241173 0.714701 0.077286
C13   C     C_R   0.859816 0.135755 0.679695 0.145260
C14   C     C_R   0.864953 0.060448 0.716523 -0.217278
C15   C     C_R   0.866018 0.087179 0.787603 -0.197983
C16   C     C_R   0.852154 0.314084 0.674683 -0.215086
C17   C     C_R   0.852434 0.179676 0.569729 -0.177222
C18   C     C_R   0.862555 0.217066 0.896890 -0.093880
H4    H     H_    0.849807 0.395297 0.697218 0.090993
H5    H     H_    0.859778 0.340312 0.988476 0.141270
H6    H     H_    0.851031 0.475994 0.926404 0.137207
H7    H     H_    0.870033 0.025696 0.813589 0.114072
C19   C     C_3   0.676905 0.220988 0.228383 -0.109558
C20   C     C_3   0.773341 0.199810 0.292904 -0.145467
H8    H     H_    0.704793 0.159060 0.328616 0.099767
H9    H     H_    0.528546 0.197047 0.210339 0.112506
C21   C     C_3   0.849371 0.310869 0.312407 -0.014574
C22   C     C_3   0.753020 0.332854 0.248682 -0.130204
C23   C     C_3   0.939511 0.299616 0.207222 -0.133885
C24   C     C_3   0.035936 0.278411 0.271735 -0.121404
C25   C     C_3   0.959816 0.166547 0.251420 -0.142703
C26   C     C_3   0.863474 0.188591 0.187713 -0.009751
H10   H     H_    0.667435 0.401778 0.247991 0.113770
H11   H     H_    0.008128 0.340349 0.171502 0.140293
H12   H     H_    0.184344 0.302192 0.289788 0.113030
H13   H     H_    0.045402 0.097603 0.252067 0.111205
C27   C     C_3   0.538203 0.724865 0.730576 -0.125198
C28   C     C_3   0.458794 0.835271 0.749911 -0.139010
H14   H     H_    0.542969 0.905932 0.750399 0.110476
C29   C     C_3   0.356920 0.811492 0.812293 -0.004657
C30   C     C_3   0.436382 0.701928 0.793771 -0.139739
C31   C     C_3   0.253904 0.665419 0.749940 -0.134092
C32   C     C_3   0.174533 0.775836 0.769264 -0.119220
C33   C     C_3   0.276340 0.798737 0.706055 -0.138769
C34   C     C_3   0.355838 0.689135 0.687545 -0.007354
H15   H     H_    0.501916 0.662369 0.830437 0.105881
H16   H     H_    0.169554 0.594800 0.749487 0.101861
H17   H     H_    0.024593 0.797147 0.785442 0.105762
H18   H     H_    0.210716 0.838366 0.669440 0.100527
C35   C     C_R   0.389075 0.893131 0.391970 -0.163988
H19   H     H_    0.385155 0.843644 0.485526 0.101919
H20   H     H_    0.407467 0.018989 0.309451 0.115695
H21   H     H_    0.404914 0.973039 0.418706 0.112679
C36   C     C_R   0.357311 0.716564 0.396884 -0.033565
C37   C     C_R   0.335856 0.680586 0.067141 -0.200663
C38   C     C_R   0.323921 0.603690 0.102157 0.328605
C39   C     C_R   0.331658 0.628018 0.173575 -0.198297
C40   C     C_R   0.351721 0.730911 0.212020 0.029659
C41   C     C_R   0.364138 0.809233 0.175613 0.069907
C42   C     C_R   0.359777 0.758706 0.285242 0.092334
C43   C     C_R   0.380298 0.863745 0.320104 0.146548
C44   C     C_R   0.392056 0.938837 0.283186 -0.218630
C45   C     C_R   0.384121 0.912242 0.212162 -0.185445
C46   C     C_R   0.348297 0.686049 0.325372 -0.214551
C47   C     C_R   0.377826 0.819868 0.430115 -0.177895
C48   C     C_R   0.355955 0.782873 0.103087 -0.125868
H22   H     H_    0.332715 0.605127 0.303001 0.093413
H23   H     H_    0.329335 0.660562 0.011645 0.131639
H24   H     H_    0.321480 0.564472 0.197065 0.135804
H25   H     H_    0.393869 0.973566 0.186113 0.113494
O11   O     O_R   0.203580 0.914920 0.912610 -0.543511
O12   O     O_R   0.535710 0.887810 0.047120 -0.540930
O13   O     O_R   0.710730 0.084950 0.087430 -0.541394
C49   C     C_R   0.366509 0.860937 0.063704 0.700917
O14   O     O_R   0.533010 0.902850 0.910600 -0.546114
O15   O     O_R   0.708010 0.100090 0.949930 -0.535779
C50   C     C_R   0.364284 0.881270 0.883011 0.675405
O16   O     O_R   0.206300 0.899780 0.050100 -0.540271
O17   O     O_3   0.375170 0.064580 0.013100 -0.361334
V3    V     V_3+5 0.648200 0.988020 0.997570 1.434904
O18   O     O_R   0.038030 0.112330 0.952840 -0.533110
C51   C     C_R   0.869706 0.138982 0.936240 0.700331
O19   O     O_R   0.040730 0.097300 0.089360 -0.541067
C52   C     C_R   0.872338 0.118761 0.116991 0.688536
V4    V     V_3+5 0.148780 0.012220 0.002360 1.452830
O20   O     O_3   0.871930 0.935430 0.986900 -0.374567
H26   H     H_    0.688202 0.703742 0.714393 0.107952
Br1   Br    Br    0.296464 0.464040 0.052052 -0.621753
H27   H     H_    0.849181 0.436322 0.803384 0.104396

loop_
_geom_bond_atom_site_label_1
_geom_bond_atom_site_label_2
_ccdc_geom_bond_type
C23   H11   S    
C29   C30   S    
C40   C41   A    
H20   C44   S    
C1    O6    A    
C28   C33   S    
O14   V3    S    
C28   H14   S    
C23   C24   S    
C7    H5    S    
C6    C16   A    
C27   H26   S    
C33   H18   S    
C14   C15   A    
C35   C43   A    
C4    C6    S    
C13   C14   A    
O5    C3    A    
C19   C20   S    
V2    O10   S    
O19   C52   A    
C5    H3    S    
C26   C52   S    
C30   C31   S    
C37   C48   A    
C3    C21   S    
C27   C34   S    
O8    V2    S    
O12   V3    S    
C8    C9    A    
C37   C38   A    
O1    V2    S    
O11   V4    S    
C22   H10   S    
C23   C26   S    
C48   C49   S    
O13   V3    S    
C33   C34   S    
C35   C47   A    
O9    C4    A    
C49   O16   A    
C40   C42   A    
O4    V1    S    
C20   C21   S    
C28   C29   S    
C6    C17   A    
C12   C16   A    
C31   H16   S    
C9    C10   A    
C19   H9    S    
C20   H8    S    
O4    C2    A    
C31   C34   S    
C32   C33   S    
C44   C45   A    
C25   H13   S    
O15   C51   A    
C15   H7    S    
C9    H27   S    
C21   C24   S    
O2    C1    A    
C42   C43   A    
C2    C36   S    
C29   C50   S    
C11   C18   A    
O14   C50   A    
O17   V4    S    
C35   H21   S    
O18   C51   A    
C1    C34   S    
C16   H4    S    
C30   H15   S    
C43   C44   A    
C37   H23   S    
O16   V4    S    
C19   C26   S    
C39   H24   S    
O3    C4    A    
C20   C25   S    
C45   H25   S    
C11   C15   A    
O6    V2    S    
O19   V4    S    
O12   C49   A    
C22   C23   S    
C36   C46   A    
H1    C17   S    
C21   C22   S    
C41   C48   A    
O2    V1    S    
C27   C28   S    
O7    V1    S    
C32   H17   S    
C7    C18   A    
C38   Br1   S    
C25   C26   S    
O1    C2    A    
C5    C13   A    
C39   C40   A    
O5    V1    S    
C46   H22   S    
O8    C3    A    
C10   C12   A    
H19   C47   S    
V3    O20   S    
O9    V2    S    
C10   C11   A    
C19   C22   S    
O3    V1    S    
O11   C50   A    
C31   C32   S    
C24   H12   S    
O18   V4    S    
V4    O20   S    
C18   C51   S    
O7    V2    S    
O17   V3    S    
O13   C52   A    
O15   V3    S    
C24   C25   S    
C38   C39   A    
C8    H6    S    
C41   C45   A    
C29   C32   S    
C12   C13   A    
C5    C17   A    
C7    C8    A    
C36   C47   A    
V1    O10   S    
C42   C46   A    
C27   C30   S    
H2    C14   S    
