data_mof_unit_8867.cif
_audit_creation_date              2012-10-26T18:26:06-0400
_audit_creation_method            fapswitch 2.2
_symmetry_space_group_name_H-M    P1
_symmetry_Int_Tables_number       1
_space_group_crystal_system       triclinic
_cell_length_a                    13.863767
_cell_length_b                    8.7028
_cell_length_c                    7.527874
_cell_angle_alpha                 103.442875
_cell_angle_beta                  89.077511
_cell_angle_gamma                 93.307524
_cell_volume                      881.905688954

loop_
_atom_site_label
_atom_site_type_symbol
_atom_type_description
_atom_site_fract_x
_atom_site_fract_y
_atom_site_fract_z
_atom_type_partial_charge
C1    C     C_R   0.493300 0.199866 0.454867 0.583096
C2    C     C_1   0.868960 0.485086 0.434569 0.039634
C3    C     C_2   0.477084 0.031791 0.439919 0.267927
C4    C     C_2   0.522916 0.968209 0.560081 0.267927
C5    C     C_2   0.987439 0.580223 0.764989 0.589190
C6    C     C_2   0.012561 0.419779 0.235011 0.589189
C7    C     C_3   0.408266 0.937182 0.156221 -0.057069
C8    C     C_3   0.591734 0.062818 0.843778 -0.057070
C9    C     C_2   0.379661 0.408922 0.974189 0.771919
C10   C     C_2   0.620339 0.591077 0.025811 0.771919
C11   C     C_R   0.506700 0.800134 0.545133 0.583097
C12   C     C_R   0.319097 0.503111 0.531437 0.555171
C13   C     C_R   0.680903 0.496889 0.468563 0.555171
C14   C     C_1   0.782823 0.490940 0.447007 0.079224
C15   C     C_1   0.217177 0.509061 0.552993 0.079223
C16   C     C_2   0.972398 0.477403 0.423005 0.017033
C17   C     C_2   0.027602 0.522599 0.576996 0.017032
C18   C     C_1   0.131040 0.514915 0.565431 0.039633
Cu1   Cu    Cu3+1 0.510540 0.517220 0.682700 1.066054
Cu2   Cu    Cu3+1 0.489460 0.482780 0.317300 1.066054
H1    H     H_    0.874286 0.592631 0.938619 0.371585
H2    H     H_    0.709702 0.765914 0.167852 0.322896
H3    H     H_    0.125714 0.407377 0.061381 0.371587
H4    H     H_    0.483609 0.913435 0.109126 0.131044
H5    H     H_    0.383693 0.043768 0.116959 0.158830
H6    H     H_    0.361447 0.835056 0.083429 0.194479
H7    H     H_    0.616307 0.956232 0.883040 0.158830
H8    H     H_    0.516391 0.086566 0.890874 0.131044
H9    H     H_    0.638554 0.164943 0.916570 0.194478
H10   H     H_    0.290297 0.234086 0.832149 0.322896
N1    N     N_2   0.473570 0.456830 0.042740 -0.172517
N2    N     N_2   0.526430 0.543170 0.957260 -0.172517
O1    O     O_R   0.506850 0.286020 0.618680 -0.464446
O2    O     O_R   0.890872 0.546950 0.805863 -0.651105
O3    O     O_2   0.959290 0.345089 0.113196 -0.472865
O4    O     O_R   0.109127 0.453058 0.194137 -0.651103
O5    O     O_3   0.396649 0.951375 0.345662 -0.586643
O6    O     O_3   0.603351 0.048625 0.654338 -0.586643
O7    O     O_2   0.314525 0.499886 0.013683 -0.490914
O8    O     O_R   0.360419 0.255012 0.871017 -0.725848
O9    O     O_2   0.685475 0.500114 0.986316 -0.490914
O10   O     O_R   0.639580 0.744988 0.128983 -0.725847
O11   O     O_R   0.493150 0.713980 0.381320 -0.464445
O12   O     O_R   0.489050 0.256940 0.310110 -0.553273
O13   O     O_R   0.510950 0.743060 0.689890 -0.553273
O14   O     O_R   0.372320 0.516630 0.676100 -0.505831
O15   O     O_R   0.627680 0.483370 0.323900 -0.505831
O16   O     O_R   0.354510 0.487550 0.367530 -0.467572
O17   O     O_R   0.645490 0.512450 0.632470 -0.467571
O18   O     O_2   0.040711 0.654909 0.886806 -0.472865

loop_
_geom_bond_atom_site_label_1
_geom_bond_atom_site_label_2
_ccdc_geom_bond_type
C15   C18   T    
Cu1   O13   S    
C11   O11   A    
C7    H4    S    
C10   O10   S    
C2    C16   S    
Cu1   O17   S    
C1    O12   A    
N1    N2    D    
C7    H5    S    
C12   C15   S    
C12   O16   A    
C5    O2    S    
C17   C18   S    
C7    O5    S    
Cu1   O14   S    
H10   O8    S    
H2    O10   S    
C13   C14   S    
C4    C11   S    
Cu2   O16   S    
C7    H6    S    
C8    O6    S    
C13   O17   A    
Cu1   N2    S    
Cu2   O12   S    
C6    O4    S    
C8    H8    S    
C5    O18   D    
C11   O13   A    
Cu2   O15   S    
C5    C17   S    
C8    H9    S    
C1    O1    A    
C3    C4    D    
C10   N2    S    
C9    O7    D    
Cu2   O11   S    
C6    O3    D    
C3    O5    S    
C12   O14   A    
H3    O4    S    
Cu1   O1    S    
C2    C14   T    
C13   O15   A    
C8    H7    S    
C9    N1    S    
H1    O2    S    
C1    C3    S    
C6    C16   S    
C9    O8    S    
Cu1   Cu2   S    
C4    O6    S    
C16   C17   D    
C10   O9    D    
Cu2   N1    S    
