data_mof_unit_51267.cif
_audit_creation_date              2012-12-10T17:52:18-0500
_audit_creation_method            fapswitch 2.2
_symmetry_space_group_name_H-M    P1
_symmetry_Int_Tables_number       1
_space_group_crystal_system       triclinic
_cell_length_a                    19.261341
_cell_length_b                    10.697581
_cell_length_c                    9.916788
_cell_angle_alpha                 90.267987
_cell_angle_beta                  90.498587
_cell_angle_gamma                 92.73418
_cell_volume                      2040.92177975

loop_
_atom_site_label
_atom_site_type_symbol
_atom_type_description
_atom_site_fract_x
_atom_site_fract_y
_atom_site_fract_z
_atom_type_partial_charge
C1    C     C_R   0.509352 0.262074 0.500131 0.991771
C2    C     C_R   0.289146 0.500941 0.500084 -0.516294
C3    C     C_R   0.929908 0.488754 0.494557 0.417218
C4    C     C_R   0.069108 0.478632 0.498919 0.384230
C5    C     C_R   0.822184 0.538614 0.614291 0.294729
C6    C     C_R   0.748929 0.538569 0.618073 0.355281
C7    C     C_R   0.710167 0.500606 0.502301 -0.209893
C8    C     C_R   0.743709 0.457733 0.387542 -0.342954
C9    C     C_R   0.815215 0.451413 0.386411 0.626827
C10   C     C_R   0.854588 0.492016 0.498896 -0.164152
C11   C     C_R   0.551784 0.116195 0.745391 0.406321
C12   C     C_R   0.365439 0.502118 0.499750 1.001978
C13   C     C_R   0.533913 0.057346 0.869217 0.261880
C14   C     C_R   0.486690 0.954463 0.867661 -0.178134
C15   C     C_R   0.467122 0.896393 0.746361 0.697435
C16   C     C_R   0.493786 0.943155 0.623101 -0.193441
C17   C     C_R   0.524268 0.064055 0.622891 -0.130136
C18   C     C_R   0.522246 0.130056 0.500151 -0.210870
C19   C     C_R   0.515733 0.066021 0.377161 0.515034
C20   C     C_R   0.501671 0.938227 0.375622 0.351978
C21   C     C_R   0.491434 0.875527 0.499586 -0.183047
C22   C     C_R   0.413212 0.316229 0.130213 0.603548
C23   C     C_R   0.494690 0.740224 0.500104 0.954605
C24   C     C_R   0.376552 0.223443 0.053162 0.344420
C25   C     C_R   0.376793 0.231217 0.914644 0.565700
C26   C     C_R   0.414667 0.326726 0.852294 -0.296142
C27   C     C_R   0.458062 0.412986 0.924919 -0.094779
C28   C     C_R   0.457830 0.410916 0.069498 0.003356
C29   C     C_R   0.539794 0.583768 0.072744 -0.166589
C30   C     C_R   0.539925 0.583609 0.929760 0.710476
C31   C     C_R   0.634405 0.501176 0.500716 0.964250
C32   C     C_R   0.252699 0.526327 0.620275 0.380593
C33   C     C_R   0.180895 0.506149 0.624247 0.424837
C34   C     C_R   0.144108 0.474041 0.504301 -0.399742
C35   C     C_R   0.179628 0.453271 0.384662 0.587700
C36   C     C_R   0.251506 0.466068 0.382331 0.574355
H1    H     H_    0.467416 0.915251 0.961191 0.213495
H2    H     H_    0.572333 0.652238 0.127466 0.186587
H3    H     H_    0.407862 0.330014 0.746347 0.257153
H4    H     H_    0.714382 0.426743 0.298805 0.224017
N1    N     N_R   0.029499 0.384462 0.441543 -0.061103
N2    N     N_R   0.960727 0.389377 0.439686 -0.080472
N3    N     N_R   0.969828 0.583994 0.548835 -0.080998
N4    N     N_R   0.038403 0.579081 0.550890 -0.118336
N5    N     N_R   0.499340 0.498800 0.142780 -0.109460
N6    N     N_R   0.499320 0.498720 0.857170 -0.126732
O1    O     O_R   0.500000 0.316780 0.614690 -0.648661
O2    O     O_R   0.499990 0.316750 0.385360 -0.510648
O3    O     O_R   0.398140 0.500000 0.614700 -0.632242
O4    O     O_R   0.398130 0.499970 0.385370 -0.486880
O5    O     O_R   0.500010 0.683250 0.614640 -0.548653
O6    O     O_R   0.500000 0.683220 0.385310 -0.575427
O7    O     O_R   0.601870 0.500030 0.614630 -0.521323
O8    O     O_R   0.601860 0.500000 0.385300 -0.656418
Zn1   Zn    Zn3+2 0.500000 0.500020 0.653130 1.067582
Zn2   Zn    Zn3+2 0.500000 0.499980 0.346870 1.083949
O9    O     O_3   0.285346 0.571555 0.735935 -0.606433
H5    H     H_    0.319449 0.638578 0.708427 0.391833
O10   O     O_3   0.598438 0.218226 0.739981 -0.734261
H6    H     H_    0.593448 0.269463 0.822434 0.341984
O11   O     O_3   0.560276 0.097710 0.992341 -0.711486
H7    H     H_    0.606878 0.138491 0.979073 0.364067
F1    F     F_    0.418276 0.800886 0.749862 -0.641984
O12   O     O_3   0.494871 0.874059 0.254260 -0.718843
H8    H     H_    0.513131 0.926894 0.179830 0.397727
F2    F     F_    0.397896 0.314387 0.260820 -0.608406
O13   O     O_3   0.336860 0.127031 0.110603 -0.626653
H9    H     H_    0.346315 0.124332 0.208822 0.387394
F3    F     F_    0.338426 0.146832 0.839077 -0.577668
O14   O     O_3   0.148520 0.522554 0.746523 -0.607386
H10   H     H_    0.102938 0.475686 0.745433 0.357167
F4    F     F_    0.580876 0.669474 0.864071 -0.623514
F5    F     F_    0.144414 0.425132 0.268276 -0.544845
F6    F     F_    0.283626 0.445827 0.263565 -0.548183
O15   O     O_3   0.863028 0.581888 0.721535 -0.705063
H11   H     H_    0.838955 0.649121 0.768404 0.366656
O16   O     O_3   0.714502 0.575153 0.732263 -0.684508
H12   H     H_    0.741842 0.552448 0.812804 0.359154
F7    F     F_    0.846149 0.409495 0.273392 -0.602901
F8    F     F_    0.521270 0.127797 0.258005 -0.631626

loop_
_geom_bond_atom_site_label_1
_geom_bond_atom_site_label_2
_ccdc_geom_bond_type
C8    C9    A    
C3    N2    A    
C5    O15   S    
C16   C21   A    
N1    N2    A    
C35   C36   A    
O15   H11   S    
C2    C12   S    
C12   O3    A    
O9    H5    S    
C7    C8    A    
O16   H12   S    
C3    N3    A    
C1    C18   S    
C18   C19   A    
C5    C6    A    
C26   H3    S    
C4    N1    A    
C15   C16   A    
C2    C32   A    
C34   C35   A    
C9    F7    S    
C22   F2    S    
C24   O13   S    
C35   F5    S    
C19   C20   A    
N5    Zn2   S    
C16   C17   A    
N6    Zn1   S    
O14   H10   S    
C9    C10   A    
O10   H6    S    
C22   C28   A    
C13   C14   A    
C19   F8    S    
C32   O9    S    
C11   O10   S    
C33   C34   A    
O8    Zn2   S    
O7    Zn1   S    
C4    C34   S    
C28   N5    A    
C7    C31   S    
O13   H9    S    
C29   H2    S    
C24   C25   A    
C1    O1    A    
C6    O16   S    
C4    N4    A    
C25   C26   A    
O3    Zn1   S    
O4    Zn2   S    
C29   N5    A    
C20   O12   S    
N3    N4    A    
C29   C30   A    
C23   O5    A    
C17   C18   A    
C26   C27   A    
C31   O7    A    
C36   F6    S    
C33   O14   S    
C27   N6    A    
C21   C23   S    
C22   C24   A    
C25   F3    S    
O1    Zn1   S    
C2    C36   A    
O2    Zn2   S    
C11   C17   A    
C30   N6    A    
C30   F4    S    
C1    O2    A    
C6    C7    A    
O12   H8    S    
C5    C10   A    
C3    C10   S    
C32   C33   A    
C14   H1    S    
C11   C13   A    
C23   O6    A    
O5    Zn1   S    
C31   O8    A    
O11   H7    S    
C13   O11   S    
C20   C21   A    
C27   C28   A    
C15   F1    S    
C14   C15   A    
C8    H4    S    
C12   O4    A    
O6    Zn2   S    
