data_mof_unit_59923.cif
_audit_creation_date              2013-03-05T16:03:12-0500
_audit_creation_method            fapswitch 2.2
_symmetry_space_group_name_H-M    P1
_symmetry_Int_Tables_number       1
_space_group_crystal_system       triclinic
_cell_length_a                    8.35048
_cell_length_b                    14.809329
_cell_length_c                    18.645005
_cell_angle_alpha                 94.602412
_cell_angle_beta                  92.358039
_cell_angle_gamma                 92.905199
_cell_volume                      2292.9775793

loop_
_atom_site_label
_atom_site_type_symbol
_atom_site_description
_atom_site_fract_x
_atom_site_fract_y
_atom_site_fract_z
_atom_type_partial_charge
P1    P     P_3+3 0.053470 0.419720 0.342720 0.565392
O1    O     O_2   0.878750 0.447310 0.330740 -0.299894
O2    O     O_3   0.131030 0.448880 0.418060 -0.411581
O3    O     O_3   0.627390 0.618170 0.367170 -0.327865
O4    O     O_2   0.707342 0.530841 0.244432 -0.306215
O5    O     O_3   0.036476 0.300833 0.331978 -0.507005
O6    O     O_3   0.679142 0.705184 0.240359 -0.514699
H1    H     H_    0.611080 0.801897 0.317317 0.118376
C1    C     C_3   0.603838 0.853486 0.211995 -0.351145
H2    H     H_    0.731644 0.878028 0.216746 0.260457
P2    P     P_3+3 0.625250 0.715650 0.546950 0.536956
P3    P     P_3+3 0.064580 0.783837 0.395185 0.469273
O7    O     O_2   0.796630 0.729270 0.525320 -0.412599
O8    O     O_3   0.039210 0.666640 0.400620 -0.380511
O9    O     O_2   0.942085 0.827465 0.444932 -0.383522
O10   O     O_3   0.606549 0.753939 0.638224 -0.571039
O11   O     O_3   0.995074 0.809830 0.309128 -0.472516
C2    C     C_3   0.123733 0.819567 0.262964 0.683312
H3    H     H_    0.241857 0.816064 0.291004 -0.062027
C3    C     C_3   0.126603 0.913969 0.234845 -0.842814
H4    H     H_    0.011175 0.925573 0.206519 0.285254
H5    H     H_    0.146908 0.966728 0.280527 0.236535
C4    C     C_3   0.185985 0.739680 0.606680 0.200128
H6    H     H_    0.308368 0.730260 0.588985 0.108919
H7    H     H_    0.099893 0.710047 0.563079 0.095374
C5    C     C_3   0.154821 0.842026 0.620804 0.132160
H8    H     H_    0.061125 0.856917 0.580003 0.093317
Ba1   Ba    Ba6+2 0.841340 0.543980 0.464170 1.694706
C6    C     C_3   0.044143 0.264223 0.399102 0.476091
H9    H     H_    0.928864 0.271807 0.424804 -0.007071
H10   H     H_    0.137283 0.298064 0.436483 0.160229
C7    C     C_3   0.082617 0.164812 0.388084 -0.932054
H11   H     H_    0.993904 0.127327 0.349778 0.297830
H12   H     H_    0.081224 0.133143 0.439913 0.227677
H13   H     H_    0.203282 0.159117 0.365798 0.258198
C8    C     C_3   0.707754 0.719639 0.689944 0.606942
H14   H     H_    0.829937 0.715045 0.669675 -0.099628
C9    C     C_3   0.706126 0.787088 0.759472 0.169799
H15   H     H_    0.740024 0.853802 0.740953 0.137026
P4    P     P_3+3 0.136230 0.580350 0.657290 0.525950
O12   O     O_2   0.310950 0.552720 0.669300 -0.253927
O13   O     O_3   0.058670 0.551200 0.581940 -0.415262
O14   O     O_3   0.562310 0.381900 0.632830 -0.320229
O15   O     O_3   0.167568 0.697295 0.670627 -0.545608
P5    P     P_3+3 0.123557 0.216837 0.613315 0.448934
O16   O     O_3   0.636050 0.386930 0.468580 -0.290922
O17   O     O_3   0.150490 0.333430 0.599380 -0.416157
O18   O     O_2   0.251737 0.174306 0.565545 -0.324707
O19   O     O_3   0.197114 0.192088 0.701096 -0.513076
Ba2   Ba    Ba6+2 0.348470 0.456100 0.535830 1.680066
P6    P     P_3+3 0.599528 0.606207 0.273364 0.561783
C10   C     C_3   0.580203 0.776043 0.260509 0.320688
H16   H     H_    0.452248 0.753771 0.255583 -0.026971
H17   H     H_    0.529875 0.909823 0.231625 0.172033
O20   O     O_3   0.553640 0.613150 0.531430 -0.303297
C11   C     C_3   0.638174 0.201245 0.315687 0.715941
H18   H     H_    0.753191 0.205070 0.346902 -0.044461
C12   C     C_3   0.585435 0.100823 0.297282 -0.290730
H19   H     H_    0.510927 0.075147 0.338947 0.095343
H20   H     H_    0.508348 0.090854 0.246953 0.158531
P7    P     P_3+3 0.568950 0.269569 0.447289 0.489018
O21   O     O_2   0.393070 0.270760 0.474720 -0.349471
O22   O     O_3   0.519526 0.246867 0.354032 -0.570795
H21   H     H_    0.225348 0.921676 0.197306 0.198492
C13   C     C_3   0.113279 0.233778 0.758991 0.579072
H22   H     H_    0.982513 0.224390 0.745242 -0.050525
C14   C     C_3   0.146680 0.189908 0.831344 -0.433045
H23   H     H_    0.277410 0.190406 0.843856 0.214956
H24   H     H_    0.094722 0.231927 0.875444 0.166318
P8    P     P_3+3 0.586079 0.392175 0.726155 0.511544
C15   C     C_3   0.632480 0.227689 0.753124 0.135319
H25   H     H_    0.739597 0.250807 0.788388 0.024358
O23   O     O_2   0.460538 0.459183 0.750114 -0.311594
O24   O     O_3   0.515793 0.291800 0.759257 -0.538815
H26   H     H_    0.665581 0.215234 0.696043 0.117656
C16   C     C_3   0.559700 0.140554 0.779328 -0.026703
H27   H     H_    0.441553 0.123449 0.751059 0.194845
H28   H     H_    0.542418 0.151054 0.838168 0.102740
N1    N     N_R   0.156906 0.569441 0.955356 -0.073612
N2    N     N_R   0.213114 0.567925 0.023267 -0.079455
C17   C     C_2   0.308766 0.503240 0.288977 0.113504
C18   C     C_3   0.380590 0.578954 0.249074 -0.027364
C19   C     C_2   0.336969 0.564329 0.169574 -0.226767
C20   C     C_2   0.193668 0.521180 0.147950 0.030544
C21   C     C_2   0.099394 0.474780 0.203528 -0.228767
C22   C     C_1   0.161443 0.471284 0.270392 0.126998
N3    N     N_R   0.986016 0.480587 0.049661 -0.058470
N4    N     N_R   0.929856 0.482048 0.981698 -0.072883
C23   C     C_R   0.013966 0.526350 0.932856 0.111307
C24   C     C_R   0.129938 0.522639 0.071830 0.158062
C25   C     C_R   0.056540 0.554397 0.802019 -0.301832
C26   C     C_R   0.019472 0.531691 0.728117 0.243851
C27   C     C_R   0.781892 0.444537 0.758215 0.265960
C28   C     C_R   0.819359 0.465306 0.831823 -0.223910
C29   C     C_R   0.960467 0.517870 0.854927 0.066216
C30   C     C_R   0.885058 0.474823 0.707069 -0.388170
H29   H     H_    0.408967 0.599807 0.132385 0.148065
H30   H     H_    0.983126 0.441115 0.188249 0.204680
H31   H     H_    0.162760 0.597474 0.817914 0.186994
H32   H     H_    0.738964 0.439812 0.870539 0.140287
H33   H     H_    0.856903 0.456860 0.650385 0.169619
C31   C     C_R   0.710225 0.936749 0.526882 -0.047603
C32   C     C_R   0.521305 0.799351 0.491083 0.256406
C33   C     C_R   0.375936 0.767643 0.455113 -0.536482
C34   C     C_R   0.268424 0.827374 0.427953 0.186944
C35   C     C_R   0.310438 0.919972 0.430591 -0.275498
C36   C     C_R   0.458236 0.955167 0.462342 0.151942
C37   C     C_R   0.566058 0.895915 0.493297 0.040468
H34   H     H_    0.339516 0.696326 0.453827 0.171411
C38   C     C_R   0.637941 0.090085 0.498616 0.045806
C39   C     C_R   0.747768 0.032159 0.529295 0.145173
C40   C     C_R   0.678399 0.185758 0.500602 0.117059
C41   C     C_R   0.815294 0.221246 0.542557 -0.435652
C42   C     C_R   0.925907 0.164974 0.572523 0.202608
C43   C     C_R   0.894688 0.070494 0.561825 -0.251404
C44   C     C_R   0.492149 0.050280 0.467768 -0.138012
H35   H     H_    0.224708 0.965143 0.410032 0.150196
H36   H     H_    0.986929 0.026937 0.577035 0.181438
H37   H     H_    0.842747 0.293759 0.547285 0.144229
H38   H     H_    0.794183 0.894545 0.551229 0.129711
H39   H     H_    0.402784 0.093382 0.447633 0.141394
N5    N     N_R   0.296904 0.901399 0.612505 0.230212
O25   O     O_R   0.426615 0.892394 0.651562 -0.329481
O26   O     O_R   0.276530 0.979723 0.587684 -0.397800
C45   C     C_3   0.094175 0.864810 0.696408 -0.277911
C46   C     C_3   0.996002 0.946595 0.699376 -0.948142
H40   H     H_    0.942758 0.950778 0.752230 0.288481
H41   H     H_    0.071206 0.008601 0.691698 0.316803
H42   H     H_    0.895044 0.936273 0.659366 0.275968
H43   H     H_    0.014995 0.809990 0.712709 0.172813
H44   H     H_    0.195505 0.873904 0.737183 0.268046
N6    N     N_R   0.648434 0.629471 0.704691 0.226650
O27   O     O_R   0.632557 0.565935 0.652664 -0.346007
O28   O     O_R   0.621132 0.610061 0.769959 -0.414858
C47   C     C_3   0.833589 0.767509 0.819271 -0.487876
C48   C     C_3   0.769860 0.749002 0.892994 -0.625576
H45   H     H_    0.726716 0.811972 0.920248 0.257944
H46   H     H_    0.671635 0.695422 0.888459 0.276129
H47   H     H_    0.868833 0.726147 0.927620 0.207940
H48   H     H_    0.903555 0.709389 0.800310 0.193241
H49   H     H_    0.921054 0.826674 0.828783 0.201239
N7    N     N_R   0.544508 0.796722 0.787558 0.298982
O29   O     O_R   0.518287 0.865661 0.832447 -0.354552
O30   O     O_R   0.422600 0.743368 0.763248 -0.325323
N8    N     N_R   0.660895 0.242801 0.247830 0.269805
O31   O     O_R   0.803577 0.268456 0.229573 -0.334986
O32   O     O_R   0.540227 0.246200 0.201775 -0.354130
N9    N     N_R   0.725762 0.046993 0.289181 0.223990
O33   O     O_R   0.816411 0.056114 0.234848 -0.393488
O34   O     O_R   0.764020 0.991994 0.337390 -0.431517
C49   C     C_3   0.553442 0.825587 0.132820 -0.365765
C50   C     C_3   0.604576 0.899396 0.084595 -0.773709
H50   H     H_    0.551047 0.964266 0.102113 0.274630
H51   H     H_    0.737463 0.909712 0.086755 0.261864
H52   H     H_    0.562699 0.878853 0.028072 0.251628
H53   H     H_    0.607646 0.761462 0.113938 0.230298
H54   H     H_    0.421178 0.814406 0.127013 0.201234
C51   C     C_3   0.160334 0.336594 0.771021 -0.282747
C52   C     C_3   0.243744 0.375046 0.843910 -0.805698
H55   H     H_    0.160771 0.372269 0.888578 0.217741
H56   H     H_    0.352921 0.339797 0.857882 0.275661
H57   H     H_    0.279454 0.447634 0.842797 0.275292
H58   H     H_    0.230041 0.358795 0.726215 0.275556
H59   H     H_    0.047128 0.368434 0.768198 0.104721
C53   C     C_3   0.066954 0.097008 0.838320 -0.307915
C54   C     C_3   0.189858 0.024731 0.845594 -0.750020
H60   H     H_    0.261957 0.018147 0.797075 0.283213
H61   H     H_    0.272041 0.043281 0.893465 0.258005
H62   H     H_    0.127713 0.958432 0.853214 0.243230
H63   H     H_    0.994893 0.098057 0.887311 0.228151
H64   H     H_    0.980912 0.083234 0.792631 0.243205
N10   N     N_R   0.660633 0.065167 0.764800 0.234365
O35   O     O_R   0.708206 0.019072 0.817433 -0.413288
O36   O     O_R   0.675885 0.033312 0.698615 -0.398738
C55   C     C_3   0.111105 0.741771 0.202331 -0.355012
C56   C     C_3   0.994610 0.754461 0.139106 -0.832114
H65   H     H_    0.876339 0.770726 0.158616 0.295465
H66   H     H_    0.040630 0.809428 0.107053 0.243924
H67   H     H_    0.980263 0.690887 0.103168 0.249013
H68   H     H_    0.230288 0.733262 0.180010 0.140154
H69   H     H_    0.075148 0.677780 0.226109 0.205687
N11   N     N_R   0.412491 0.449339 0.327396 0.240468
O37   O     O_R   0.448452 0.474864 0.394316 -0.307111
O38   O     O_R   0.508617 0.398796 0.291511 -0.312035

loop_
_geom_bond_atom_site_label_1
_geom_bond_atom_site_label_2
_geom_bond_distance
_ccdc_geom_bond_type
C53   H64   1.091065 S    
N3    N4    1.335172 A    
C3    H21   1.110665 S    
C53   C54   1.529911 S    
C17   C18   1.507619 S    
P2    O20   1.602734 S    
C47   C48   1.534148 S    
C21   C22   1.336148 D    
C10   H16   1.100105 S    
Ba1   O16   2.827186 S    
C5    H8    1.111288 S    
C46   H40   1.096208 S    
O19   C13   1.426715 S    
C49   H54   1.108028 S    
O2    Ba1   2.982716 S    
C16   H28   1.111975 S    
O6    C10   1.405376 S    
P1    O1    1.547180 D    
C6    C7    1.522387 S    
C8    N6    1.451607 S    
P3    C34   1.851057 S    
C12   N9    1.456488 S    
C35   C36   1.403746 A    
C12   H20   1.111368 S    
C26   C30   1.392124 A    
C11   H18   1.098902 S    
C16   N10   1.447699 S    
C2    H3    1.102761 S    
C4    C5    1.554321 S    
C11   N8    1.465726 S    
P7    O22   1.771936 S    
C38   C39   1.421082 A    
C33   C34   1.399961 A    
C21   H30   1.085239 S    
O3    Ba1   2.814592 S    
C41   H37   1.082461 S    
Ba1   Ba2   4.539440 S    
C45   H43   1.091044 S    
O2    Ba2   2.782894 S    
C56   H67   1.109267 S    
C52   H55   1.107009 S    
N6    O27   1.293897 A    
C13   C14   1.564557 S    
P3    O11   1.762033 S    
P8    O24   1.738863 S    
P1    Ba1   3.412275 S    
C4    H6    1.098866 S    
C52   H56   1.105462 S    
O7    Ba1   2.933556 S    
C31   C37   1.417922 A    
C32   C37   1.456536 A    
C28   H32   1.082686 S    
C1    H2    1.107555 S    
H1    C10   1.112384 S    
P4    O15   1.734744 S    
C17   C22   1.317982 D    
C51   H59   1.078806 S    
C55   H69   1.110993 S    
C2    C55   1.544469 S    
C14   C53   1.515222 S    
P4    O13   1.542408 S    
C45   C46   1.495229 S    
C30   H33   1.082180 S    
C54   H61   1.110960 S    
C9    N7    1.477046 S    
C31   C39   1.428459 A    
P7    O21   1.575407 D    
C1    C10   1.526673 S    
C20   C24   1.497305 S    
C17   N11   1.418206 S    
C48   H47   1.110836 S    
P5    C42   1.888624 S    
C40   C41   1.412253 A    
N8    O32   1.302338 A    
Ba1   O20   2.947015 S    
N10   O36   1.298925 A    
N8    O31   1.299252 A    
O17   Ba2   2.763977 S    
C38   C40   1.437011 A    
P5    O17   1.771126 S    
C20   C21   1.514028 S    
C47   H48   1.107384 S    
C11   O22   1.413452 S    
C44   H39   1.081172 S    
O3    P6    1.748480 S    
C14   H23   1.106406 S    
C7    H13   1.110181 S    
P8    C27   1.830009 S    
C9    H15   1.099967 S    
C16   H27   1.107144 S    
C48   H46   1.107741 S    
C25   C26   1.409795 A    
C13   C51   1.549334 S    
O16   P7    1.806809 S    
C46   H42   1.098857 S    
C12   H19   1.094708 S    
C9    C47   1.563837 S    
C4    O15   1.401654 S    
P1    O5    1.753805 S    
P1    O2    1.542276 S    
C5    C45   1.535281 S    
C7    H12   1.107708 S    
C51   C52   1.553714 S    
C23   C29   1.496033 S    
C6    H9    1.099642 S    
C39   C43   1.417131 A    
P2    O10   1.765795 S    
C45   H44   1.109586 S    
C19   C20   1.358028 D    
C50   H52   1.110375 S    
P5    O19   1.796298 S    
C49   C50   1.525655 S    
C43   H36   1.073113 S    
C3    H4    1.107698 S    
P8    O23   1.534963 D    
O11   C2    1.412863 S    
C52   H57   1.102970 S    
C27   C28   1.401156 A    
C49   H53   1.110717 S    
P4    C26   1.844231 S    
P6    C18   1.881002 S    
C51   H58   1.099787 S    
O13   Ba2   2.983493 S    
N6    O28   1.299175 A    
P4    O12   1.547441 D    
C50   H51   1.111070 S    
C13   H22   1.110535 S    
O14   P8    1.736760 S    
C35   H35   1.083519 S    
C54   H60   1.107674 S    
Ba2   O21   2.933819 S    
N7    O30   1.299639 A    
C3    H5    1.110208 S    
C36   C37   1.425595 A    
N5    O26   1.299310 A    
C8    C9    1.572724 S    
C38   C44   1.405589 A    
O12   Ba2   2.806528 S    
C31   H38   1.073309 S    
N10   O35   1.299895 A    
C41   C42   1.403586 A    
P5    O18   1.546760 D    
C53   H63   1.113820 S    
C1    C49   1.536350 S    
C46   H41   1.108211 S    
N9    O34   1.301396 A    
C48   H45   1.109381 S    
C15   C16   1.522941 S    
C15   O24   1.396232 S    
P2    C32   1.901786 S    
O14   Ba2   2.814084 S    
C42   C43   1.406915 A    
C55   H68   1.103607 S    
C1    H17   1.110562 S    
C27   C30   1.396343 A    
C34   C35   1.394635 A    
O16   Ba2   2.946082 S    
Ba2   O20   2.826599 S    
O8    Ba1   2.763347 S    
C7    H11   1.103714 S    
C56   H65   1.097892 S    
P3    O9    1.540435 D    
P3    O8    1.749342 S    
O6    P6    1.746088 S    
C15   H25   1.110877 S    
C6    H10   1.096214 S    
C55   C56   1.526764 S    
C25   H31   1.082685 S    
O10   C8    1.399010 S    
C15   H26   1.113988 S    
P2    O7    1.510854 D    
C33   H34   1.082275 S    
P2    Ba1   3.487994 S    
P4    Ba2   3.412843 S    
Ba1   O13   2.782326 S    
C11   C12   1.537115 S    
C2    C3    1.531418 S    
N9    O33   1.300848 A    
C4    H7    1.110389 S    
N2    C24   1.361622 A    
C28   C29   1.411172 A    
N11   O38   1.294992 A    
C36   C44   1.417320 A    
N1    C23   1.358884 A    
C25   C29   1.419901 A    
N1    N2    1.334466 A    
C47   H49   1.110027 S    
O5    C6    1.403633 S    
N4    C23   1.361926 A    
C54   H62   1.109186 S    
C8    H14   1.105927 S    
C18   C19   1.507588 S    
C19   H29   1.085846 S    
N3    C24   1.358309 A    
C32   C33   1.403051 A    
N7    O29   1.300532 A    
O4    P6    1.546758 D    
O1    Ba1   2.806066 S    
C50   H50   1.111118 S    
C5    N5    1.461496 S    
C14   H24   1.107326 S    
N5    O25   1.298703 A    
P7    C40   1.897945 S    
N11   O37   1.292998 A    
P1    C22   1.846659 S    
C56   H66   1.110278 S    
