data_mof_unit_25089.cif
_audit_creation_date              2013-03-05T15:49:32-0500
_audit_creation_method            fapswitch 2.2
_symmetry_space_group_name_H-M    P1
_symmetry_Int_Tables_number       1
_space_group_crystal_system       triclinic
_cell_length_a                    10.972208
_cell_length_b                    12.183291
_cell_length_c                    12.907667
_cell_angle_alpha                 92.094204
_cell_angle_beta                  90.68883
_cell_angle_gamma                 81.972804
_cell_volume                      1707.37679706

loop_
_atom_site_label
_atom_site_type_symbol
_atom_site_description
_atom_site_fract_x
_atom_site_fract_y
_atom_site_fract_z
_atom_type_partial_charge
O1    O     O_R   0.506170 0.421700 0.658830 -0.546984
O2    O     O_R   0.493830 0.578300 0.341170 -0.567065
O3    O     O_R   0.491330 0.609310 0.646410 -0.604558
O4    O     O_R   0.508670 0.390690 0.353590 -0.567617
C1    C     C_R   0.498270 0.521953 0.699667 1.076725
C2    C     C_R   0.508317 0.479293 0.299402 1.027540
O5    O     O_R   0.690650 0.406190 0.506220 -0.566207
O6    O     O_R   0.309350 0.593810 0.493780 -0.566383
O7    O     O_R   0.675800 0.593810 0.493800 -0.643690
O8    O     O_R   0.324200 0.406190 0.506200 -0.666936
C3    C     C_R   0.741771 0.496144 0.507542 0.949858
C4    C     C_R   0.260776 0.505043 0.513556 0.941706
Zn1   Zn    Zn3+2 0.509910 0.374730 0.508290 1.085729
Zn2   Zn    Zn3+2 0.490090 0.625270 0.491710 1.103840
C5    C     C_R   0.904874 0.370490 0.679014 0.180039
C6    C     C_R   0.065012 0.696089 0.454490 0.226242
C7    C     C_R   0.978785 0.317317 0.756512 0.142999
C8    C     C_R   0.008333 0.736271 0.361219 0.138306
C9    C     C_R   0.104485 0.311850 0.751726 0.175955
C10   C     C_R   0.937180 0.668117 0.302252 0.115246
C11   C     C_R   0.155849 0.370807 0.676765 0.325946
C12   C     C_R   0.897464 0.575771 0.349529 0.376861
C13   C     C_R   0.081045 0.438696 0.605297 -0.025445
C14   C     C_R   0.937617 0.551317 0.451018 -0.063162
C15   C     C_R   0.951981 0.432573 0.601214 -0.147440
C16   C     C_R   0.044518 0.589887 0.485166 -0.184203
C17   C     C_R   0.128585 0.515499 0.540564 0.019555
C18   C     C_R   0.879141 0.486556 0.517735 -0.007662
C19   C     C_R   0.518665 0.469063 0.186690 -0.269404
C20   C     C_R   0.513506 0.537832 0.809460 -0.200817
C21   C     C_R   0.632413 0.595733 0.955632 0.450373
C22   C     C_R   0.446681 0.383404 0.029376 0.466981
C23   C     C_R   0.616140 0.584680 0.847464 0.334236
C24   C     C_R   0.479672 0.375906 0.134578 0.285350
C25   C     C_R   0.434715 0.494789 0.875923 0.317401
C26   C     C_R   0.560945 0.553376 0.128093 0.269311
C27   C     C_R   0.478918 0.472003 0.975182 -0.137865
C28   C     C_R   0.560194 0.539852 0.020136 -0.151235
N1    N     N_R   0.523130 0.207800 0.519340 -0.215045
N2    N     N_R   0.476870 0.792200 0.480660 -0.197908
C29   C     C_R   0.426167 0.958462 0.379102 -0.176743
C30   C     C_R   0.573799 0.037825 0.617091 -0.167831
C31   C     C_R   0.422890 0.844122 0.393651 0.402256
C32   C     C_R   0.561043 0.153623 0.611149 0.360825
C33   C     C_R   0.532281 0.856193 0.552464 0.528706
C34   C     C_R   0.475937 0.142022 0.442555 0.518376
C35   C     C_R   0.530498 0.972159 0.539987 -0.089561
C36   C     C_R   0.479459 0.024349 0.452387 -0.080278
H1    H     H_    0.382932 0.996699 0.311057 0.255617
H2    H     H_    0.606846 0.000211 0.688777 0.256992
N3    N     N_R   0.901301 0.695724 0.198237 0.268528
O9    O     O_R   0.950323 0.633878 0.121109 -0.280657
O10   O     O_R   0.836739 0.791081 0.179860 -0.221198
N4    N     N_R   0.181136 0.244081 0.822551 0.297243
O11   O     O_R   0.154056 0.248302 0.920619 -0.253671
O12   O     O_R   0.260251 0.162420 0.786749 -0.295289
N5    N     N_R   0.787922 0.339353 0.670763 0.220113
O13   O     O_R   0.713914 0.368638 0.747416 -0.357376
O14   O     O_R   0.780488 0.248113 0.616939 -0.341991
N6    N     N_R   0.128001 0.765430 0.524259 0.264072
O15   O     O_R   0.138669 0.743567 0.622189 -0.288603
O16   O     O_R   0.167977 0.854230 0.493292 -0.319129
N7    N     N_R   0.926023 0.253540 0.831211 0.301258
O17   O     O_R   0.869285 0.303113 0.911584 -0.262791
O18   O     O_R   0.945361 0.145683 0.824378 -0.227943
N8    N     N_R   0.023136 0.843677 0.325701 0.283100
O19   O     O_R   0.073212 0.853244 0.236225 -0.215347
O20   O     O_R   0.968309 0.931993 0.374395 -0.279894
O21   O     O_3   0.280059 0.363796 0.678644 -0.670392
H3    H     H_    0.308156 0.288367 0.648907 0.365624
O22   O     O_3   0.829647 0.503079 0.297902 -0.719151
H4    H     H_    0.829648 0.515646 0.222674 0.394061
N9    N     N_R   0.585334 0.658886 0.172881 0.274198
O23   O     O_R   0.653636 0.665600 0.254949 -0.361085
O24   O     O_R   0.548166 0.749685 0.124737 -0.259206
N10   N     N_R   0.304418 0.503415 0.852909 0.260193
O25   O     O_R   0.257825 0.568216 0.780200 -0.348630
O26   O     O_R   0.228787 0.474805 0.920563 -0.283003
O27   O     O_3   0.468336 0.282174 0.187954 -0.671979
H5    H     H_    0.488886 0.216516 0.140546 0.379538
O28   O     O_3   0.698635 0.615820 0.777878 -0.750419
H6    H     H_    0.780812 0.611251 0.811301 0.367882
O29   O     O_3   0.723764 0.650600 0.998561 -0.644101
H7    H     H_    0.739004 0.709822 0.951760 0.384725
O30   O     O_3   0.391261 0.302824 0.976598 -0.619734
H8    H     H_    0.348863 0.262143 0.026918 0.386332
O31   O     O_3   0.413331 0.188633 0.358933 -0.688627
H9    H     H_    0.372131 0.262215 0.381866 0.387164
O32   O     O_3   0.590195 0.810226 0.638763 -0.704030
H10   H     H_    0.629194 0.735364 0.618055 0.397165
N11   N     N_R   0.575840 0.208678 0.709991 0.273170
O33   O     O_R   0.478033 0.252646 0.759475 -0.288044
O34   O     O_R   0.668114 0.168090 0.768105 -0.249634
N12   N     N_R   0.359988 0.786048 0.314935 0.247370
O35   O     O_R   0.342937 0.826503 0.223141 -0.280428
O36   O     O_R   0.293169 0.711709 0.339672 -0.358318

loop_
_geom_bond_atom_site_label_1
_geom_bond_atom_site_label_2
_geom_bond_distance
_ccdc_geom_bond_type
N8    O20   1.301373 A    
O31   H9    0.982996 S    
N7    O18   1.301398 A    
C29   C31   1.417875 A    
N9    O23   1.296973 A    
O28   H6    0.990246 S    
O30   H8    0.989492 S    
C15   C18   1.454857 A    
O5    C3    1.298498 A    
C19   C26   1.428545 A    
C16   C17   1.407673 A    
C20   C25   1.391286 A    
O1    C1    1.304492 A    
C9    C11   1.395243 A    
C14   C16   1.384648 A    
C1    C20   1.434241 S    
C10   N3    1.433159 S    
N5    O14   1.300958 A    
C31   N12   1.440920 S    
C21   O29   1.380307 S    
N6    O16   1.300369 A    
C6    N6    1.447361 S    
O4    Zn1   2.013021 S    
N2    C31   1.394120 A    
O29   H7    0.990686 S    
C5    N5    1.389827 S    
C21   C23   1.409380 A    
C13   C17   1.431700 A    
C33   O32   1.373832 S    
N8    O19   1.300891 A    
N9    O24   1.301684 A    
O2    C2    1.293020 A    
C30   C32   1.402969 A    
C29   H1    1.082430 S    
C34   C36   1.438979 A    
C33   C35   1.425226 A    
C6    C16   1.415034 A    
N2    C33   1.379321 A    
N4    O12   1.300677 A    
C25   N10   1.446822 S    
C4    C17   1.482829 S    
N3    O9    1.301163 A    
N10   O25   1.302045 A    
O4    C2    1.307073 A    
N11   O33   1.295187 A    
C19   C24   1.412984 A    
N7    O17   1.301269 A    
C11   O21   1.353557 S    
N6    O15   1.301854 A    
N3    O10   1.301555 A    
C22   C24   1.404031 A    
O7    Zn2   2.020138 S    
C27   C28   1.404859 A    
C24   O27   1.376029 S    
N11   O34   1.304336 A    
C35   C36   1.390791 A    
O6    C4    1.305074 A    
N12   O35   1.301303 A    
C22   C27   1.395485 A    
N12   O36   1.293042 A    
O7    C3    1.320244 A    
C32   N11   1.437662 S    
O8    C4    1.304962 A    
C30   H2    1.083589 S    
N1    C34   1.392189 A    
C9    N4    1.437881 S    
C10   C12   1.421828 A    
C11   C13   1.434124 A    
C12   C14   1.406031 A    
O1    Zn1   2.004735 S    
C12   O22   1.382418 S    
C34   O31   1.370179 S    
C5    C7    1.399680 A    
N4    O11   1.301249 A    
O6    Zn2   2.072362 S    
C20   C23   1.407232 A    
C25   C27   1.388240 A    
C14   C18   1.407164 A    
N10   O26   1.301207 A    
O3    C1    1.280876 A    
O8    Zn1   2.020137 S    
N1    C32   1.407718 A    
O3    Zn2   2.013022 S    
C8    N8    1.433133 S    
C21   C28   1.411594 A    
C26   C28   1.397252 A    
O22   H4    0.988528 S    
C7    N7    1.436093 S    
N5    O13   1.295469 A    
C3    C18   1.499978 S    
C22   O30   1.380413 S    
C7    C9    1.373521 A    
C29   C36   1.394044 A    
C8    C10   1.413802 A    
C30   C35   1.375812 A    
C13   C15   1.428687 A    
O21   H3    0.992384 S    
O2    Zn2   2.004735 S    
Zn1   N1    2.028758 S    
C5    C15   1.422993 A    
C26   N9    1.447854 S    
Zn2   N2    2.028759 S    
O27   H5    0.991139 S    
O5    Zn1   2.072363 S    
C2    C19   1.460066 S    
C6    C8    1.419815 A    
O32   H10   0.980990 S    
C23   O28   1.382159 S    
