data_mof_unit_30841.cif
_audit_creation_date              2012-10-26T19:20:37-0400
_audit_creation_method            fapswitch 2.2
_symmetry_space_group_name_H-M    P1
_symmetry_Int_Tables_number       1
_space_group_crystal_system       triclinic
_cell_length_a                    10.766135
_cell_length_b                    11.014124
_cell_length_c                    9.762773
_cell_angle_alpha                 111.897258
_cell_angle_beta                  94.470009
_cell_angle_gamma                 90.317053
_cell_volume                      1070.1277663

loop_
_atom_site_label
_atom_site_type_symbol
_atom_type_description
_atom_site_fract_x
_atom_site_fract_y
_atom_site_fract_z
_atom_type_partial_charge
C1    C     C_R   0.493594 0.253567 0.439904 0.535749
C2    C     C_R   0.737379 0.493597 0.490690 0.531401
C3    C     C_R   0.119569 0.717883 0.732097 0.270721
C4    C     C_R   0.880355 0.278256 0.269055 0.213176
C5    C     C_R   0.062607 0.839054 0.775635 -0.066699
C6    C     C_R   0.937452 0.157163 0.228402 -0.097880
C7    C     C_R   0.943742 0.849288 0.715393 -0.152149
C8    C     C_R   0.056717 0.148241 0.288310 -0.131137
C9    C     C_R   0.878762 0.737262 0.617369 -0.093589
C10   C     C_R   0.121799 0.261190 0.383732 -0.081651
C11   C     C_R   0.937596 0.615996 0.565484 -0.014488
C12   C     C_R   0.510041 0.746425 0.559792 0.542591
C13   C     C_R   0.062627 0.382294 0.433995 -0.009882
C14   C     C_R   0.065007 0.610718 0.607373 -0.002893
C15   C     C_R   0.935010 0.387114 0.392133 0.008539
C16   C     C_R   0.870794 0.500839 0.472661 0.015314
C17   C     C_R   0.129220 0.497531 0.526474 0.012823
C18   C     C_2   0.494329 0.112810 0.405105 0.045032
C19   C     C_2   0.518408 0.887116 0.593829 0.066992
C20   C     C_2   0.538121 0.068803 0.509574 -0.124293
C21   C     C_2   0.535556 0.929793 0.484694 -0.134724
C22   C     C_2   0.508386 0.511945 0.080523 0.077271
C23   C     C_2   0.491766 0.487907 0.919447 0.078043
C24   C     C_R   0.262599 0.505479 0.508983 0.537681
Cu1   Cu    Cu3+1 0.521920 0.521810 0.644910 1.069604
Cu2   Cu    Cu3+1 0.478080 0.478190 0.355090 1.055072
H1    H     H_    0.102176 0.055451 0.252186 0.178912
H2    H     H_    0.575928 0.586567 0.151897 0.156822
H3    H     H_    0.617467 0.626039 0.932806 0.226568
H4    H     H_    0.382430 0.374056 0.067224 0.236404
H5    H     H_    0.203986 0.748166 0.110432 0.377707
H6    H     H_    0.646015 0.160867 0.133616 0.346594
H7    H     H_    0.898324 0.942084 0.753304 0.168989
H8    H     H_    0.104926 0.922873 0.867062 0.182130
H9    H     H_    0.894919 0.072065 0.138883 0.151623
H10   H     H_    0.783374 0.746401 0.579454 0.125642
H11   H     H_    0.217407 0.252795 0.421592 0.137172
H12   H     H_    0.545399 0.860148 0.373266 0.162356
H13   H     H_    0.574340 0.137525 0.617917 0.185956
H14   H     H_    0.424326 0.413183 0.848056 0.168638
I1    I     I_    0.492337 0.015806 0.813686 -0.249144
I2    I     I_    0.418039 0.986853 0.191916 -0.295928
N1    N     N_2   0.445130 0.445420 0.137360 -0.302420
N2    N     N_2   0.554870 0.554580 0.862640 -0.311015
O1    O     O_R   0.511700 0.332340 0.577400 -0.526815
O2    O     O_2   0.346175 0.736991 0.873828 -0.227773
O3    O     O_3   0.161336 0.781630 0.038694 -0.525790
O4    O     O_2   0.786903 0.440148 0.140144 -0.259418
O5    O     O_2   0.830152 0.218353 0.977685 -0.277857
O6    O     O_3   0.637593 0.247785 0.126290 -0.458236
O7    O     O_R   0.488300 0.667660 0.422600 -0.533532
O8    O     O_R   0.474680 0.295500 0.332650 -0.442873
O9    O     O_R   0.525320 0.704500 0.667350 -0.441504
O10   O     O_R   0.338170 0.518410 0.622370 -0.434526
O11   O     O_R   0.661830 0.481590 0.377630 -0.436788
O12   O     O_R   0.301150 0.481570 0.377630 -0.494219
O13   O     O_R   0.698850 0.518430 0.622370 -0.492709
O14   O     O_2   0.208775 0.550711 0.855398 -0.301885
S1    S     S_3+6 0.214329 0.692638 0.874563 0.027284
S2    S     S_3+6 0.783963 0.299170 0.124640 0.029009

loop_
_geom_bond_atom_site_label_1
_geom_bond_atom_site_label_2
_ccdc_geom_bond_type
C9    H10   S    
C6    C8    A    
O4    S2    D    
Cu2   O8    S    
O2    S1    D    
C24   O12   A    
C2    C16   S    
C11   C16   A    
C12   O9    A    
C13   C17   A    
O6    S2    S    
C5    H8    S    
C4    S2    S    
C4    C15   A    
C18   I2    S    
O14   S1    D    
C2    O13   A    
C19   I1    S    
C22   H2    S    
Cu2   O7    S    
Cu1   O10   S    
C9    C11   A    
C14   C17   A    
C1    O1    A    
C1    C18   S    
O5    S2    D    
Cu1   O13   S    
C3    C14   A    
C10   H11   S    
C12   C19   S    
C4    C6    A    
C19   C21   D    
Cu2   O11   S    
Cu1   O9    S    
Cu2   N1    S    
H6    O6    S    
C18   C20   D    
C2    O11   A    
C13   C15   A    
H3    N2    S    
C1    O8    A    
H4    N1    S    
C17   C24   S    
C7    H7    S    
O3    S1    S    
C23   H14   S    
Cu1   O1    S    
C21   H12   S    
C12   O7    A    
C20   C21   S    
Cu1   N2    S    
C8    C10   A    
C11   C14   A    
C5    C7    A    
C20   H13   S    
C7    C9    A    
C22   C23   S    
C8    H1    S    
H5    O3    S    
Cu1   Cu2   S    
C24   O10   A    
C22   N1    D    
C6    H9    S    
C23   N2    D    
C15   C16   A    
Cu2   O12   S    
C3    C5    A    
C10   C13   A    
C3    S1    S    
