data_mof_unit_18897.cif
_audit_creation_date              2012-12-11T16:17:51-0500
_audit_creation_method            fapswitch 2.2
_symmetry_space_group_name_H-M    P1
_symmetry_Int_Tables_number       1
_space_group_crystal_system       triclinic
_cell_length_a                    14.022474
_cell_length_b                    14.058519
_cell_length_c                    30.131045
_cell_angle_alpha                 97.417058
_cell_angle_beta                  97.054255
_cell_angle_gamma                 61.125939
_cell_volume                      5145.41754157

loop_
_atom_site_label
_atom_site_type_symbol
_atom_type_description
_atom_site_fract_x
_atom_site_fract_y
_atom_site_fract_z
_atom_type_partial_charge
C1    C     C_R   0.385912 0.710210 0.441841 0.522715
C2    C     C_R   0.390195 0.250608 0.221485 -0.113899
C3    C     C_R   0.401302 0.251964 0.268201 0.020558
C4    C     C_R   0.324640 0.343772 0.293493 -0.022567
C5    C     C_R   0.304178 0.335757 0.199516 -0.024521
C6    C     C_1   0.296394 0.323254 0.151301 0.027968
C7    C     C_1   0.342787 0.352657 0.341634 0.061403
C8    C     C_1   0.288789 0.304194 0.111397 0.064967
C9    C     C_R   0.776628 0.361482 0.402211 0.003054
C10   C     C_R   0.760281 0.286811 0.369673 -0.024158
C11   C     C_R   0.777224 0.285619 0.324391 -0.017109
C12   C     C_R   0.398694 0.380872 0.426554 0.558048
C13   C     C_R   0.816749 0.353431 0.312670 -0.035486
C14   C     C_R   0.854631 0.409768 0.345953 -0.015161
C15   C     C_R   0.835764 0.412764 0.391297 0.005531
C16   C     C_R   0.812486 0.424471 0.153609 0.032007
C17   C     C_R   0.828139 0.405816 0.107207 -0.013514
C18   C     C_R   0.900652 0.209501 0.111978 -0.039118
C19   C     C_R   0.883444 0.228638 0.158140 0.048768
C20   C     C_R   0.846525 0.334833 0.179111 -0.035539
C21   C     C_1   0.835068 0.351043 0.226610 0.057438
C22   C     C_1   0.827172 0.356051 0.266057 0.003663
C23   C     C_R   0.712629 0.403702 0.442918 0.569134
C24   C     C_R   0.884702 0.297028 0.087697 -0.038441
C25   C     C_R   0.365556 0.762717 0.399461 -0.039954
C26   C     C_R   0.438829 0.793904 0.385069 0.008167
C27   C     C_R   0.430795 0.814550 0.339317 0.026154
C28   C     C_R   0.352424 0.800077 0.309178 -0.019058
C29   C     C_R   0.275748 0.778810 0.324607 -0.090087
C30   C     C_R   0.280856 0.762383 0.369277 -0.103789
C31   C     C_R   0.281724 0.787218 0.142787 0.021125
C32   C     C_R   0.265122 0.819045 0.098463 -0.009763
C33   C     C_R   0.384506 0.902371 0.119761 0.029644
C34   C     C_R   0.389438 0.711866 0.568209 0.549460
C35   C     C_R   0.396371 0.873954 0.163353 -0.137775
C36   C     C_R   0.342025 0.821952 0.175391 0.035892
C37   C     C_1   0.345679 0.811199 0.222277 0.064756
C38   C     C_1   0.348609 0.806170 0.261857 0.001572
C39   C     C_R   0.308720 0.885810 0.088029 0.021727
C40   C     C_R   0.352532 0.361056 0.588833 -0.020596
C41   C     C_R   0.407969 0.259122 0.607764 0.016693
C42   C     C_R   0.390787 0.252810 0.652295 0.026736
C43   C     C_R   0.318303 0.347305 0.677305 -0.040656
C44   C     C_R   0.251681 0.444345 0.656416 0.022537
C45   C     C_R   0.399191 0.382242 0.551377 0.574769
C46   C     C_R   0.263464 0.449036 0.611096 -0.044487
C47   C     C_R   0.233158 0.419784 0.838679 0.023108
C48   C     C_R   0.234621 0.406363 0.884697 -0.033422
C49   C     C_R   0.391541 0.224705 0.874877 0.004322
C50   C     C_R   0.384579 0.234783 0.828714 0.004103
C51   C     C_R   0.303603 0.330938 0.810447 -0.032212
C52   C     C_1   0.302960 0.340516 0.763302 0.106759
C53   C     C_1   0.308374 0.343743 0.724084 0.098266
C54   C     C_R   0.305895 0.303437 0.901310 -0.005155
C55   C     C_1   0.762983 0.376837 0.612163 0.086804
C56   C     C_R   0.713203 0.407826 0.568410 0.564210
C57   C     C_R   0.851671 0.405819 0.727261 -0.012770
C58   C     C_R   0.865136 0.394162 0.773938 0.022806
C59   C     C_R   0.818104 0.245117 0.761052 0.016176
C60   C     C_R   0.802352 0.258165 0.714398 0.021111
C61   C     C_R   0.819636 0.337823 0.697708 -0.020507
C62   C     C_R   0.849737 0.313228 0.790590 -0.037523
C63   C     C_1   0.874503 0.296103 0.838011 0.056898
C64   C     C_1   0.793515 0.356484 0.650563 0.075070
C65   C     C_1   0.903779 0.283156 0.877104 0.079802
C66   C     C_1   0.374677 0.759984 0.613310 0.044024
C67   C     C_1   0.364507 0.362885 0.381184 0.083414
C68   C     C_R   0.250273 0.838335 0.716844 0.002397
C69   C     C_R   0.241808 0.847262 0.763666 -0.016807
C70   C     C_R   0.431628 0.813989 0.777025 0.060352
C71   C     C_R   0.441821 0.799751 0.730034 -0.021386
C72   C     C_R   0.350249 0.814763 0.700258 -0.006322
C73   C     C_R   0.331911 0.837042 0.793549 0.004597
C74   C     C_1   0.316008 0.866408 0.840980 0.074448
C75   C     C_1   0.363482 0.789291 0.652539 0.007368
C76   C     C_1   0.295710 0.899016 0.879414 0.088029
C77   C     C_R   0.947984 0.274205 0.047651 0.570951
C78   C     C_R   0.235507 0.430884 0.271611 0.010239
C79   C     C_R   0.275144 0.270532 0.065442 0.564491
C80   C     C_R   0.262791 0.951600 0.048278 0.591857
C81   C     C_R   0.951911 0.269150 0.922159 0.563843
C82   C     C_R   0.278951 0.267402 0.940447 0.584002
C83   C     C_R   0.262001 0.950213 0.923004 0.567054
C84   C     C_R   0.224708 0.425984 0.223997 -0.004709
Cr1   Cr    Cr6+3 0.581000 0.584320 0.508140 1.094648
Cr2   Cr    Cr6+3 0.339110 0.576430 0.496080 1.122354
Cr3   Cr    Cr6+3 0.579910 0.339270 0.495810 1.128941
Cr4   Cr    Cr6+3 0.082090 0.079210 0.982490 1.097789
Cr5   Cr    Cr6+3 0.082460 0.324610 0.994920 1.116703
Cr6   Cr    Cr6+3 0.323630 0.087860 0.996130 1.109114
H1    H     H_    0.213578 0.771081 0.301587 0.164530
H2    H     H_    0.222627 0.740732 0.379221 0.196978
H3    H     H_    0.448082 0.893555 0.188498 0.143726
H4    H     H_    0.448239 0.181195 0.201598 0.212965
O1    O     O_R   0.688580 0.499770 0.460490 -0.479347
O2    O     O_R   0.348600 0.476260 0.536540 -0.475682
O3    O     O_R   0.494840 0.313840 0.539010 -0.478318
O4    O     O_R   0.672120 0.351750 0.545910 -0.489546
O5    O     O_3   0.500010 0.500010 0.500010 -0.294451
O6    O     O_R   0.167510 0.972920 0.030390 -0.466484
O7    O     O_R   0.990840 0.178580 0.027590 -0.521825
O8    O     O_R   0.972840 0.345510 0.038590 -0.467032
O9    O     O_R   0.181550 0.320660 0.045200 -0.481402
O10   O     O_R   0.346150 0.177650 0.050510 -0.485626
O11   O     O_R   0.314200 0.996600 0.036060 -0.473593
O12   O     O_R   0.480400 0.672610 0.462660 -0.511596
O13   O     O_R   0.168690 0.969990 0.933130 -0.468016
O14   O     O_R   0.991920 0.175870 0.937430 -0.494265
O15   O     O_R   0.974010 0.342590 0.941330 -0.481462
O16   O     O_R   0.182630 0.317940 0.955040 -0.470711
O17   O     O_R   0.347320 0.174720 0.953250 -0.490201
O18   O     O_R   0.315290 0.993890 0.945900 -0.488588
O19   O     O_3   0.162730 0.163890 0.991180 -0.294047
O20   O     O_R   0.315310 0.685650 0.451800 -0.488917
O21   O     O_R   0.346220 0.474990 0.446280 -0.471946
O22   O     O_R   0.492270 0.312460 0.441630 -0.487027
O23   O     O_R   0.669740 0.350480 0.455640 -0.473227
O24   O     O_R   0.691150 0.501150 0.557860 -0.466192
O25   O     O_R   0.482790 0.673890 0.552920 -0.499215
O26   O     O_R   0.317880 0.687030 0.549170 -0.487131
C85   C     C_2   0.152128 0.525076 0.298308 0.591561
O27   O     O_2   0.180351 0.567963 0.331454 -0.525601
O28   O     O_R   0.041179 0.565765 0.285017 -0.628396
H5    H     H_    0.992805 0.630711 0.305331 0.369203
C86   C     C_2   0.901806 0.137884 0.184517 0.621555
O29   O     O_2   0.965636 0.115667 0.217819 -0.477596
O30   O     O_R   0.845892 0.078153 0.171028 -0.653821
H6    H     H_    0.864909 0.018902 0.191614 0.372686
C87   C     C_2   0.937384 0.097886 0.089510 0.307942
H7    H     H_    0.901560 0.087048 0.056488 0.131360
O31   O     O_2   0.009161 0.017778 0.107114 -0.497414
C88   C     C_2   0.754425 0.213538 0.288662 0.252855
H8    H     H_    0.720246 0.241829 0.255666 0.128621
O32   O     O_2   0.777810 0.120541 0.295107 -0.451612
C89   C     C_2   0.208165 0.777436 0.062723 0.292563
H9    H     H_    0.139867 0.767420 0.069884 0.117297
O33   O     O_2   0.239078 0.751479 0.024746 -0.428977
C90   C     C_2   0.239244 0.715897 0.154788 0.259178
H10   H     H_    0.163109 0.721430 0.139205 0.136875
O34   O     O_2   0.290908 0.647848 0.181825 -0.500397
C91   C     C_2   0.524776 0.800526 0.417380 0.324441
H11   H     H_    0.505097 0.837219 0.451224 0.119929
O35   O     O_2   0.618909 0.760700 0.407201 -0.461210
C92   C     C_2   0.453371 0.948914 0.109356 0.610726
O36   O     O_2   0.458314 0.022578 0.134240 -0.524928
O37   O     O_R   0.516868 0.904705 0.072308 -0.642337
H12   H     H_    0.561256 0.942481 0.068973 0.347073
C93   C     C_2   0.131725 0.514758 0.199562 0.657504
O38   O     O_2   0.076701 0.492029 0.169901 -0.447288
O39   O     O_R   0.105512 0.624162 0.209841 -0.611422
H13   H     H_    0.158996 0.634581 0.233098 0.321691
C94   C     C_2   0.501155 0.852482 0.322295 0.296675
H14   H     H_    0.523023 0.831470 0.287730 0.099706
O40   O     O_2   0.531124 0.911785 0.345915 -0.401249
C95   C     C_2   0.163662 0.500065 0.915275 0.301629
H15   H     H_    0.087568 0.565408 0.902487 0.130664
O41   O     O_2   0.191792 0.507340 0.955022 -0.444923
C96   C     C_2   0.158840 0.526021 0.819916 0.593410
O42   O     O_2   0.159266 0.609291 0.837425 -0.434763
O43   O     O_R   0.088855 0.530466 0.782093 -0.678761
H16   H     H_    0.040805 0.607499 0.773036 0.365291
C97   C     C_2   0.169433 0.541164 0.682079 0.551425
O44   O     O_2   0.198891 0.581475 0.715742 -0.503221
O45   O     O_R   0.058859 0.586211 0.667497 -0.657371
H17   H     H_    0.011125 0.652070 0.687582 0.350543
C98   C     C_2   0.182343 0.546887 0.587987 0.331823
H18   H     H_    0.154170 0.627778 0.605028 0.134368
O46   O     O_2   0.142920 0.537176 0.550312 -0.421434
C99   C     C_2   0.482135 0.159267 0.580741 0.635247
O47   O     O_2   0.571440 0.095049 0.597040 -0.468240
O48   O     O_R   0.449335 0.139527 0.536322 -0.649977
H19   H     H_    0.506442 0.069611 0.521233 0.352735
C100  C     C_2   0.461252 0.143170 0.799376 0.649242
O49   O     O_2   0.426583 0.094070 0.771445 -0.483003
O50   O     O_R   0.572795 0.111387 0.804719 -0.590345
H20   H     H_    0.617048 0.046060 0.783644 0.385677
C101  C     C_2   0.488701 0.132064 0.895307 0.652050
O51   O     O_2   0.515671 0.038166 0.880294 -0.465503
O52   O     O_R   0.547475 0.153225 0.932619 -0.642231
H21   H     H_    0.611076 0.084239 0.943949 0.347260
C102  C     C_2   0.447859 0.147017 0.672513 0.651835
O53   O     O_2   0.518617 0.132109 0.702851 -0.425420
O54   O     O_R   0.422381 0.063855 0.655942 -0.656992
H22   H     H_    0.466993 0.995391 0.672344 0.347971
C103  C     C_2   0.875906 0.486560 0.710051 0.329514
H23   H     H_    0.933057 0.510074 0.729013 0.171035
O55   O     O_2   0.831554 0.529298 0.675239 -0.445850
C104  C     C_2   0.891856 0.469355 0.805900 0.581630
O56   O     O_2   0.836021 0.567987 0.804454 -0.448493
O57   O     O_R   0.979946 0.427268 0.837840 -0.699998
H24   H     H_    0.986575 0.486638 0.858650 0.334452
C105  C     C_2   0.803648 0.158959 0.778864 0.619578
O58   O     O_2   0.756675 0.178936 0.813186 -0.449804
O59   O     O_R   0.843738 0.055051 0.756336 -0.671831
H25   H     H_    0.828879 0.003950 0.771700 0.362069
C106  C     C_2   0.763321 0.191759 0.682792 0.619715
O60   O     O_2   0.682695 0.186033 0.690363 -0.428999
O61   O     O_R   0.818067 0.137193 0.644130 -0.654433
H26   H     H_    0.783276 0.095564 0.625173 0.377569
C107  C     C_2   0.155463 0.848159 0.685382 0.245679
H27   H     H_    0.100847 0.820164 0.694081 0.132320
O62   O     O_2   0.135960 0.889695 0.649946 -0.449375
C108  C     C_2   0.136051 0.872979 0.781086 0.240381
H28   H     H_    0.059510 0.922958 0.762857 0.137591
O63   O     O_2   0.133364 0.836667 0.815328 -0.421672
C109  C     C_2   0.523075 0.809527 0.809184 0.661871
O64   O     O_2   0.571672 0.858597 0.802893 -0.409669
O65   O     O_R   0.552611 0.750100 0.846886 -0.658816
H29   H     H_    0.615425 0.753688 0.866252 0.370347
C110  C     C_2   0.548660 0.764377 0.711222 0.283152
H30   H     H_    0.550906 0.788486 0.678744 0.118808
O66   O     O_2   0.634886 0.704135 0.730747 -0.411506
C111  C     C_2   0.493694 0.155234 0.288920 0.577030
O67   O     O_2   0.493787 0.138690 0.327776 -0.464846
O68   O     O_R   0.580017 0.080616 0.263249 -0.662391
H31   H     H_    0.636798 0.017668 0.280634 0.384244
C112  C     C_2   0.787327 0.500224 0.079542 0.328171
H32   H     H_    0.783829 0.576448 0.094119 0.157423
O69   O     O_2   0.754461 0.494393 0.040345 -0.449626
C113  C     C_2   0.758606 0.537402 0.175436 0.567886
O70   O     O_2   0.802451 0.562532 0.209101 -0.480042
O71   O     O_R   0.657266 0.614426 0.157648 -0.687132
H33   H     H_    0.628960 0.687976 0.175472 0.343884
C114  C     C_2   0.914825 0.463377 0.332503 0.246031
H34   H     H_    0.892974 0.499245 0.300589 0.181501
O72   O     O_2   0.992473 0.463431 0.355783 -0.469045
C115  C     C_2   0.874614 0.472309 0.426946 0.349491
H35   H     H_    0.873957 0.546709 0.420399 0.172001
O73   O     O_2   0.909365 0.437461 0.463863 -0.431361
C116  C     C_2   0.720147 0.213835 0.381715 0.335973
H36   H     H_    0.651603 0.209598 0.362310 0.144359
O74   O     O_2   0.766663 0.154528 0.412226 -0.421392

loop_
_geom_bond_atom_site_label_1
_geom_bond_atom_site_label_2
_ccdc_geom_bond_type
C58   C62   A    
C96   O43   S    
C55   C56   S    
C63   C65   T    
C27   C94   S    
Cr5   O8    S    
C95   O41   D    
C11   C13   A    
C73   C74   S    
C5    C84   A    
C77   O7    A    
C35   C36   A    
Cr6   O18   S    
C108  H28   S    
C28   C38   S    
C11   C88   S    
C34   C66   S    
C113  O71   S    
Cr4   O7    S    
C59   C105  S    
C89   H9    S    
C100  O49   D    
C40   C46   A    
C108  O63   D    
C28   C29   A    
C26   C27   A    
C33   C39   A    
C86   O29   D    
C74   C76   T    
C50   C100  S    
C18   C24   A    
C82   O16   A    
C14   C114  S    
C36   C37   S    
C93   O39   S    
Cr3   O23   S    
C91   O35   D    
C5    C6    S    
Cr4   O14   S    
C109  O65   S    
C103  O55   D    
C49   C54   A    
Cr5   O15   S    
C10   C116  S    
C7    C67   T    
C104  O57   S    
C18   C19   A    
C41   C42   A    
Cr6   O19   S    
Cr4   O19   S    
Cr1   O25   S    
C78   C85   S    
C34   O25   A    
C68   C107  S    
C43   C53   S    
C47   C48   A    
C23   O1    A    
C107  H27   S    
C101  O52   S    
C8    C79   S    
C69   C73   A    
O61   H26   S    
C56   O4    A    
C26   C91   S    
C88   H8    S    
C9    C10   A    
C112  O69   D    
C57   C103  S    
C68   C72   A    
C1    O12   A    
Cr3   O4    S    
C100  O50   S    
O59   H25   S    
C81   O14   A    
C59   C60   A    
C33   C92   S    
C21   C22   T    
Cr5   O9    S    
C98   O46   D    
C99   O48   S    
C79   O9    A    
C77   O8    A    
Cr1   O24   S    
C44   C97   S    
Cr6   O17   S    
C70   C73   A    
C4    C7    S    
C76   C83   S    
C113  O70   D    
C44   C46   A    
C49   C101  S    
C31   C36   A    
C84   C93   S    
C42   C102  S    
C34   O26   A    
C40   C45   S    
C12   C67   S    
Cr5   O19   S    
C95   H15   S    
C17   C24   A    
C58   C104  S    
C51   C52   S    
C99   O47   D    
O28   H5    S    
C39   C80   S    
C93   O38   D    
C106  O61   S    
C10   C11   A    
C102  O54   S    
O65   H29   S    
Cr4   O13   S    
C109  O64   D    
C68   C69   A    
C47   C51   A    
C114  H34   S    
C25   C26   A    
C102  O53   D    
C41   C99   S    
C80   O11   A    
C19   C86   S    
C97   O44   D    
C15   C115  S    
C60   C61   A    
C105  O59   S    
C61   C64   S    
C48   C54   A    
O54   H22   S    
C104  O56   D    
O57   H24   S    
C4    C78   A    
C37   C38   T    
Cr1   O5    S    
C35   H3    S    
C65   C81   S    
C115  H35   S    
C2    H4    S    
C16   C20   A    
C71   C110  S    
C55   C64   T    
C62   C63   S    
C50   C51   A    
C85   O27   D    
Cr4   O6    S    
C20   C21   S    
C31   C90   S    
C116  O74   D    
Cr2   O5    S    
O48   H19   S    
Cr6   O10   S    
Cr3   O22   S    
C70   C71   A    
Cr2   O2    S    
C92   O37   S    
C40   C41   A    
C115  O73   D    
C48   C95   S    
C81   O15   A    
C110  H30   S    
C110  O66   D    
C43   C44   A    
C96   O42   D    
C49   C50   A    
C79   O10   A    
C2    C5    A    
C70   C109  S    
C42   C43   A    
C3    C4    A    
C54   C82   S    
C17   C112  S    
C52   C53   T    
C60   C106  S    
C86   O30   S    
O37   H12   S    
C25   C30   A    
C89   O33   D    
O45   H17   S    
C59   C62   A    
C46   C98   S    
C14   C15   A    
C56   O24   A    
C31   C32   A    
C9    C23   S    
Cr6   O11   S    
C94   O40   D    
C106  O60   D    
C114  O72   D    
C23   O23   A    
C32   C89   S    
C6    C8    T    
C1    C25   S    
C57   C61   A    
O30   H6    S    
C90   O34   D    
C12   O22   A    
C3    C111  S    
C87   H7    S    
O39   H13   S    
Cr2   O20   S    
C92   O36   D    
C105  O58   D    
C12   O21   A    
C19   C20   A    
C2    C3    A    
C112  H32   S    
C111  O68   S    
C71   C72   A    
C97   O45   S    
C45   O3    A    
C91   H11   S    
C82   O17   A    
Cr1   O1    S    
C72   C75   S    
C103  H23   S    
C16   C17   A    
C98   H18   S    
C111  O67   D    
C66   C75   T    
Cr5   O16   S    
C33   C35   A    
C83   O13   A    
C13   C22   S    
C16   C113  S    
O50   H20   S    
O68   H31   S    
C9    C15   A    
C116  H36   S    
O43   H16   S    
C85   O28   S    
C90   H10   S    
C29   C30   A    
O52   H21   S    
Cr3   O5    S    
C78   C84   A    
C24   C77   S    
C94   H14   S    
C69   C108  S    
C88   O32   D    
C101  O51   D    
C1    O20   A    
C27   C28   A    
C32   C39   A    
C83   O18   A    
Cr2   O21   S    
C18   C87   S    
Cr2   O26   S    
Cr3   O3    S    
C57   C58   A    
C13   C14   A    
C45   O2    A    
C29   H1    S    
O71   H33   S    
C47   C96   S    
C107  O62   D    
C80   O6    A    
Cr1   O12   S    
C87   O31   D    
C30   H2    S    
