data_mof_unit_22637.cif
_audit_creation_date              2012-12-10T17:41:48-0500
_audit_creation_method            fapswitch 2.2
_symmetry_space_group_name_H-M    P1
_symmetry_Int_Tables_number       1
_space_group_crystal_system       triclinic
_cell_length_a                    13.905841
_cell_length_b                    13.8947
_cell_length_c                    15.010914
_cell_angle_alpha                 87.455533
_cell_angle_beta                  91.021482
_cell_angle_gamma                 85.937089
_cell_volume                      2889.58949648

loop_
_atom_site_label
_atom_site_type_symbol
_atom_type_description
_atom_site_fract_x
_atom_site_fract_y
_atom_site_fract_z
_atom_type_partial_charge
C1    C     C_R   0.498859 0.503577 0.329055 0.841546
C2    C     C_R   0.500740 0.497551 0.670705 0.841838
C3    C     C_R   0.494843 0.496328 0.952762 0.061027
C4    C     C_R   0.491253 0.500270 0.046258 0.047251
C5    C     C_R   0.519626 0.407492 0.912097 0.020804
C6    C     C_R   0.463665 0.588648 0.086485 -0.018731
C7    C     C_R   0.439772 0.666677 0.938589 -0.215964
C8    C     C_R   0.544665 0.329514 0.060229 -0.248847
C9    C     C_R   0.427990 0.669383 0.030624 -0.010645
C10   C     C_R   0.549972 0.324685 0.967666 -0.117297
C11   C     C_R   0.791871 0.556531 0.439220 0.308201
C12   C     C_R   0.210001 0.444747 0.563018 0.324426
C13   C     C_R   0.799265 0.445951 0.564802 -0.060254
C14   C     C_R   0.200221 0.552317 0.435371 0.079979
C15   C     C_R   0.901947 0.455004 0.573386 -0.116527
C16   C     C_R   0.098536 0.540679 0.426709 -0.120312
C17   C     C_R   0.949139 0.496582 0.500245 0.082986
C18   C     C_R   0.051708 0.498355 0.499742 0.061697
C19   C     C_R   0.893247 0.538016 0.427899 -0.078313
C20   C     C_R   0.107832 0.459077 0.572914 -0.055882
C21   C     C_R   0.958985 0.426694 0.651896 -0.080203
C22   C     C_R   0.042138 0.569848 0.348582 -0.098807
C23   C     C_R   0.514928 0.317621 0.499796 0.853063
C24   C     C_R   0.485059 0.682440 0.499676 0.831564
C25   C     C_R   0.060680 0.434012 0.652817 -0.092934
C26   C     C_R   0.940288 0.567705 0.349258 -0.079205
C27   C     C_1   0.477223 0.785020 0.492864 -0.051966
C28   C     C_1   0.523118 0.215157 0.500031 -0.026600
C29   C     C_2   0.465563 0.975069 0.474050 -0.110387
C30   C     C_2   0.541309 0.025069 0.499620 -0.120717
C31   C     C_1   0.531202 0.128750 0.499959 0.068817
C32   C     C_1   0.471294 0.871443 0.484823 0.065483
C33   C     C_R   0.512194 0.405513 0.817650 -0.038763
C34   C     C_R   0.474671 0.592989 0.180473 0.003548
C35   C     C_R   0.501941 0.493965 0.767192 -0.126676
C36   C     C_R   0.495524 0.506112 0.232178 -0.121149
C37   C     C_R   0.482484 0.580716 0.808070 -0.212024
C38   C     C_R   0.514532 0.418846 0.191757 -0.208018
C39   C     C_R   0.473636 0.581753 0.899889 0.093550
C40   C     C_R   0.515859 0.415808 0.099429 0.141010
Cu1   Cu    Cu3+1 0.597420 0.500010 0.499990 0.994819
Cu2   Cu    Cu3+1 0.402580 0.499990 0.500010 1.008606
H1    H     H_    0.469157 0.647080 0.767382 0.146301
H2    H     H_    0.531811 0.353427 0.232892 0.146491
H3    H     H_    0.416334 0.729457 0.896045 0.183653
H4    H     H_    0.568160 0.266537 0.102494 0.159431
N1    N     N_R   0.743820 0.499960 0.499930 -0.219438
N2    N     N_R   0.256180 0.500040 0.500070 -0.233074
O1    O     O_R   0.582280 0.500030 0.370250 -0.585600
O2    O     O_R   0.417720 0.499970 0.629750 -0.592024
O3    O     O_R   0.417740 0.500020 0.370270 -0.534846
O4    O     O_R   0.582260 0.499980 0.629730 -0.580110
O5    O     O_R   0.593900 0.362160 0.500010 -0.547249
O6    O     O_R   0.406100 0.637840 0.499990 -0.548669
O7    O     O_R   0.429360 0.362150 0.500030 -0.604831
O8    O     O_R   0.570640 0.637850 0.499970 -0.597693
C41   C     C_2   0.636466 0.978188 0.531698 0.903269
O9    O     O_2   0.689637 0.022829 0.577939 -0.508722
O10   O     O_R   0.667299 0.885280 0.507093 -0.779015
H5    H     H_    0.733520 0.862955 0.532700 0.338634
C42   C     C_2   0.372746 0.022131 0.436527 0.872252
O11   O     O_2   0.299178 0.978948 0.441308 -0.551270
O12   O     O_R   0.369343 0.113507 0.393073 -0.773592
H6    H     H_    0.302207 0.136279 0.370050 0.346394
C43   C     C_2   0.497440 0.314030 0.772863 0.834561
O13   O     O_2   0.540672 0.294258 0.705188 -0.549107
O14   O     O_R   0.432113 0.251159 0.808016 -0.755093
H7    H     H_    0.427319 0.191858 0.771639 0.350472
C44   C     C_2   0.481309 0.687633 0.222127 0.808924
O15   O     O_2   0.441582 0.704114 0.292259 -0.594540
O16   O     O_R   0.534766 0.757964 0.180834 -0.753417
H8    H     H_    0.534186 0.819277 0.215076 0.348091
C45   C     C_2   0.366923 0.751888 0.063576 0.897893
O17   O     O_2   0.372892 0.833333 0.030690 -0.546456
O18   O     O_R   0.299697 0.735685 0.129819 -0.708913
H9    H     H_    0.262018 0.797223 0.146408 0.365656
C46   C     C_2   0.600117 0.236103 0.933550 0.943045
O19   O     O_2   0.665867 0.243328 0.881363 -0.481150
O20   O     O_R   0.575613 0.144029 0.962178 -0.681279
H10   H     H_    0.517502 0.145553 0.001987 0.316116
C47   C     C_3   0.753800 0.660093 0.415088 -0.379861
C48   C     C_3   0.688228 0.673683 0.332248 -0.651857
H11   H     H_    0.689708 0.608606 0.292296 0.262186
H12   H     H_    0.613799 0.693159 0.351957 0.251757
H13   H     H_    0.710459 0.734726 0.288908 0.253565
H14   H     H_    0.720053 0.692975 0.473563 0.236656
H15   H     H_    0.815178 0.706143 0.403815 0.193882
C49   C     C_3   0.259650 0.350768 0.602398 -0.356137
C50   C     C_3   0.252180 0.270206 0.536887 -0.745447
H16   H     H_    0.273378 0.293617 0.468808 0.274587
H17   H     H_    0.299466 0.205943 0.560265 0.250709
H18   H     H_    0.176649 0.249203 0.532929 0.253784
H19   H     H_    0.334504 0.358605 0.623598 0.244989
H20   H     H_    0.226916 0.323756 0.664010 0.196573
C51   C     C_2   0.756116 0.367217 0.616463 0.994772
O21   O     O_2   0.759649 0.286696 0.586819 -0.475489
O22   O     O_R   0.717181 0.380458 0.700564 -0.674504
H21   H     H_    0.721377 0.448471 0.721146 0.314265
C52   C     C_2   0.241797 0.631545 0.384172 0.934446
O23   O     O_2   0.277425 0.617553 0.311801 -0.524156
O24   O     O_R   0.234774 0.724295 0.416917 -0.716551
H22   H     H_    0.264008 0.773452 0.375552 0.371347
C53   C     C_2   0.913603 0.403865 0.737672 0.877589
O25   O     O_2   0.886134 0.469325 0.784981 -0.569088
O26   O     O_R   0.907471 0.307469 0.766458 -0.658200
H23   H     H_    0.876509 0.300938 0.826861 0.383413
C54   C     C_2   0.088866 0.586496 0.261878 0.905434
O27   O     O_2   0.081688 0.666667 0.224328 -0.502464
O28   O     O_R   0.141571 0.509978 0.223729 -0.719746
H24   H     H_    0.170750 0.529974 0.164920 0.364927
C55   C     C_2   0.115595 0.432678 0.739635 0.847341
O29   O     O_2   0.102268 0.372434 0.799197 -0.533065
O30   O     O_R   0.185096 0.499282 0.751583 -0.742833
H25   H     H_    0.219219 0.490248 0.811950 0.347774
C56   C     C_2   0.884291 0.582296 0.264068 0.854811
O31   O     O_2   0.839106 0.516741 0.236906 -0.568692
O32   O     O_R   0.883732 0.670150 0.214910 -0.707231
H26   H     H_    0.842790 0.670924 0.158285 0.355429

loop_
_geom_bond_atom_site_label_1
_geom_bond_atom_site_label_2
_ccdc_geom_bond_type
C2    C35   S    
O24   H22   S    
C54   O28   S    
C45   O17   D    
C11   N1    A    
C51   O21   D    
C24   C27   S    
C12   N2    A    
C6    C9    A    
C47   C48   S    
C33   C43   S    
C14   C52   S    
C46   O19   D    
C11   C47   S    
C11   C19   A    
C13   C51   S    
C7    H3    S    
C35   C37   A    
C29   C32   S    
C30   C31   S    
C41   O10   S    
C20   C25   A    
C24   O6    A    
C56   O31   D    
C30   C41   S    
O22   H21   S    
C42   O12   S    
Cu1   Cu2   S    
C44   O16   S    
C19   C26   A    
C26   C56   S    
C2    O2    A    
C33   C35   A    
C53   O26   S    
C4    C40   A    
C43   O14   S    
C5    C33   A    
C54   O27   D    
C50   H17   S    
Cu1   O4    S    
C18   C20   A    
C47   H14   S    
Cu2   O3    S    
C3    C39   A    
O10   H5    S    
C45   O18   S    
C44   O15   D    
C9    C45   S    
Cu1   O1    S    
C10   C46   S    
C23   O5    A    
C29   C42   S    
C46   O20   S    
C49   H20   S    
C12   C49   S    
O14   H7    S    
O20   H10   S    
C4    C6    A    
C13   N1    A    
C14   N2    A    
C56   O32   S    
C6    C34   A    
C37   H1    S    
O18   H9    S    
Cu1   O8    S    
C38   H2    S    
C29   C30   D    
Cu2   O7    S    
C52   O23   D    
C15   C21   A    
C12   C20   A    
C17   C18   A    
Cu1   N1    S    
C55   O30   S    
Cu2   N2    S    
C23   C28   S    
C50   H18   S    
C1    O3    A    
C34   C44   S    
Cu1   O5    S    
C47   H15   S    
C2    O4    A    
Cu2   O2    S    
C8    C10   A    
C52   O24   S    
C43   O13   D    
C48   H12   S    
C13   C15   A    
C14   C16   A    
C3    C4    A    
O30   H25   S    
C15   C17   A    
C21   C25   A    
C49   H19   S    
C16   C22   A    
C55   O29   D    
C27   C32   T    
C28   C31   T    
C3    C5    A    
C51   O22   S    
C23   O7    A    
C24   O8    A    
C48   H13   S    
O26   H23   S    
C36   C38   A    
C5    C10   A    
C37   C39   A    
O32   H26   S    
Cu2   O6    S    
C38   C40   A    
C41   O9    D    
C17   C19   A    
C34   C36   A    
C42   O11   D    
C8    H4    S    
C25   C55   S    
O12   H6    S    
C21   C53   S    
C7    C9    A    
O16   H8    S    
C49   C50   S    
C16   C18   A    
C48   H11   S    
C22   C26   A    
C53   O25   D    
C7    C39   A    
C8    C40   A    
C50   H16   S    
O28   H24   S    
C1    O1    A    
C22   C54   S    
C1    C36   S    
