data_mof_unit_24570.cif
_audit_creation_date              2012-12-11T15:26:09-0500
_audit_creation_method            fapswitch 2.2
_symmetry_space_group_name_H-M    P1
_symmetry_Int_Tables_number       1
_space_group_crystal_system       triclinic
_cell_length_a                    24.898284
_cell_length_b                    17.206649
_cell_length_c                    15.660668
_cell_angle_alpha                 90.376077
_cell_angle_beta                  49.963814
_cell_angle_gamma                 90.640427
_cell_volume                      5136.56028191

loop_
_atom_site_label
_atom_site_type_symbol
_atom_type_description
_atom_site_fract_x
_atom_site_fract_y
_atom_site_fract_z
_atom_type_partial_charge
C1    C     C_R   0.352076 0.142593 0.756514 -0.071147
C2    C     C_R   0.646982 0.856423 0.247144 -0.083409
C3    C     C_R   0.666962 0.108141 0.197605 -0.060564
C4    C     C_R   0.353717 0.854813 0.750259 -0.053206
C5    C     C_R   0.832757 0.604224 0.804583 -0.030869
C6    C     C_R   0.165905 0.389149 0.200266 -0.082372
C7    C     C_R   0.167732 0.605330 0.196002 -0.081045
C8    C     C_R   0.852769 0.355700 0.751954 -0.088863
C9    C     C_2   0.695378 0.150247 0.017050 -0.148714
C10   C     C_2   0.362572 0.737445 0.838619 -0.164456
C11   C     C_2   0.359797 0.258670 0.848448 -0.162023
C12   C     C_2   0.638770 0.738972 0.157413 -0.154259
C13   C     C_2   0.197221 0.644925 0.013723 -0.154678
C14   C     C_2   0.861354 0.238424 0.840487 -0.165510
C15   C     C_2   0.804467 0.648965 0.984300 -0.154166
C16   C     C_2   0.194250 0.343701 0.021110 -0.155129
C17   C     C_2   0.765096 0.148668 0.955160 -0.090741
C18   C     C_2   0.309376 0.698014 0.856971 -0.094472
C19   C     C_2   0.308301 0.297787 0.862877 -0.098350
C20   C     C_2   0.691833 0.701140 0.140001 -0.107052
C21   C     C_2   0.266831 0.646694 0.953668 -0.103283
C22   C     C_2   0.808370 0.199239 0.857975 -0.109891
C23   C     C_2   0.734763 0.649554 0.044073 -0.086865
C24   C     C_2   0.263968 0.347862 0.959872 -0.106003
C25   C     C_R   0.612247 0.109834 0.591765 0.383834
C26   C     C_R   0.384083 0.904378 0.408031 0.381168
C27   C     C_R   0.392478 0.119300 0.407730 0.439803
C28   C     C_R   0.613299 0.895297 0.591719 0.397575
C29   C     C_R   0.099509 0.632472 0.593573 0.391574
C30   C     C_R   0.885173 0.396670 0.409568 0.412627
C31   C     C_R   0.904298 0.636064 0.406866 0.435427
C32   C     C_R   0.113314 0.395780 0.591834 0.390924
C33   C     C_R   0.685967 0.110966 0.407716 0.431760
C34   C     C_R   0.309631 0.904830 0.592047 0.391674
C35   C     C_R   0.316544 0.116346 0.592696 0.398534
C36   C     C_R   0.687733 0.895887 0.407427 0.385311
C37   C     C_R   0.173630 0.634394 0.407738 0.411548
C38   C     C_R   0.811138 0.399639 0.592984 0.375556
C39   C     C_R   0.828988 0.635778 0.592821 0.438971
C40   C     C_R   0.187602 0.396375 0.407813 0.426066
C41   C     C_R   0.578540 0.106457 0.196184 -0.029744
C42   C     C_R   0.442422 0.856020 0.752575 -0.071845
C43   C     C_R   0.441505 0.142776 0.756579 -0.070261
C44   C     C_R   0.557531 0.855792 0.246584 -0.055756
C45   C     C_R   0.079622 0.603587 0.194190 -0.043864
C46   C     C_R   0.942062 0.356310 0.753340 -0.079332
C47   C     C_R   0.922163 0.607024 0.803506 -0.082385
C48   C     C_R   0.077372 0.390120 0.198275 -0.073335
C49   C     C_R   0.384675 0.185234 0.786941 0.057310
C50   C     C_R   0.614206 0.813127 0.217445 0.059125
C51   C     C_R   0.648256 0.126231 0.134248 0.044279
C52   C     C_R   0.386342 0.812127 0.779885 0.052868
C53   C     C_R   0.851851 0.624086 0.867228 0.055777
C54   C     C_R   0.146822 0.369589 0.137398 0.069216
C55   C     C_R   0.149655 0.622109 0.131555 0.057426
C56   C     C_R   0.885452 0.312884 0.781488 0.073110
C57   C     C_R   0.678001 0.131353 0.499361 -0.200127
C58   C     C_R   0.312724 0.895154 0.500059 -0.144310
C59   C     C_R   0.329041 0.144515 0.500582 -0.221097
C60   C     C_R   0.680189 0.878995 0.499354 -0.179442
C61   C     C_R   0.153653 0.675740 0.501410 -0.163701
C62   C     C_R   0.816866 0.383137 0.502321 -0.166986
C63   C     C_R   0.849934 0.675056 0.499734 -0.260413
C64   C     C_R   0.180378 0.379379 0.499556 -0.146587
C65   C     C_R   0.246393 0.184737 0.480473 -0.072439
C66   C     C_R   0.784758 0.857246 0.474624 -0.089773
C67   C     C_R   0.704542 0.267382 0.473297 -0.217957
C68   C     C_R   0.187207 0.856350 0.600552 -0.175268
C69   C     C_R   0.748202 0.699165 0.520144 -0.069890
C70   C     C_R   0.262494 0.339075 0.521846 -0.070797
C71   C     C_R   0.232634 0.791741 0.402222 -0.176331
C72   C     C_R   0.788140 0.247739 0.531989 -0.233940
C73   C     C_R   0.705362 0.748692 0.520694 0.006179
C74   C     C_R   0.299110 0.281012 0.523913 0.006249
C75   C     C_R   0.265535 0.857733 0.402298 0.017707
C76   C     C_R   0.756032 0.183518 0.529459 0.080997
C77   C     C_R   0.209279 0.242462 0.479488 0.002580
C78   C     C_R   0.827621 0.807302 0.474727 0.012150
C79   C     C_R   0.736552 0.331769 0.476188 0.073012
C80   C     C_R   0.148884 0.796265 0.601593 0.010708
C81   C     C_R   0.723946 0.827784 0.499038 0.135295
C82   C     C_R   0.290642 0.204416 0.502276 0.151495
C83   C     C_R   0.253402 0.877117 0.500747 0.095164
C84   C     C_R   0.714819 0.194178 0.499237 0.162862
C85   C     C_R   0.218635 0.319564 0.499020 0.104444
C86   C     C_R   0.807968 0.728762 0.498978 0.170926
C87   C     C_R   0.778247 0.320964 0.505465 0.150888
C88   C     C_R   0.180417 0.752947 0.502728 0.112405
H1    H     H_    0.304975 0.157876 0.772502 0.166533
H2    H     H_    0.692810 0.840762 0.235574 0.160706
H3    H     H_    0.719614 0.104410 0.167100 0.179653
H4    H     H_    0.308965 0.837046 0.759013 0.158091
H5    H     H_    0.779988 0.594071 0.837283 0.178554
H6    H     H_    0.218158 0.389925 0.172231 0.170607
H7    H     H_    0.220304 0.598943 0.165394 0.177156
H8    H     H_    0.807009 0.339328 0.762531 0.154062
H9    H     H_    0.553033 0.099432 0.161461 0.198839
H10   H     H_    0.478516 0.838156 0.764178 0.171338
H11   H     H_    0.476925 0.160655 0.769996 0.176001
H12   H     H_    0.520914 0.836711 0.235948 0.175532
H13   H     H_    0.054537 0.594381 0.158993 0.191079
H14   H     H_    0.978271 0.338576 0.764915 0.169100
H15   H     H_    0.949804 0.603807 0.835116 0.193024
H16   H     H_    0.050477 0.392749 0.165428 0.187756
H17   H     H_    0.240898 0.124751 0.464933 0.145092
H18   H     H_    0.798222 0.918414 0.455908 0.158952
H19   H     H_    0.671142 0.273851 0.451836 0.129855
H20   H     H_    0.163739 0.887253 0.676815 0.218782
H21   H     H_    0.735422 0.637580 0.536032 0.160568
H22   H     H_    0.267823 0.398962 0.537836 0.166171
H23   H     H_    0.243115 0.775997 0.325967 0.181795
H24   H     H_    0.821683 0.241040 0.553165 0.120056
H25   H     H_    0.288826 0.714540 0.816154 0.145985
H26   H     H_    0.789058 0.122346 0.986092 0.153080
H27   H     H_    0.711674 0.718475 0.181977 0.145697
H28   H     H_    0.290101 0.281861 0.818034 0.148190
H29   H     H_    0.788308 0.215859 0.816435 0.141077
H30   H     H_    0.290690 0.622863 0.986125 0.149330
H31   H     H_    0.287433 0.376768 0.990746 0.149430
H32   H     H_    0.710742 0.623699 0.012407 0.153880
H33   H     H_    0.382344 0.720527 0.880639 0.163941
H34   H     H_    0.672257 0.177175 0.984859 0.167027
H35   H     H_    0.619646 0.721071 0.114393 0.168595
H36   H     H_    0.377267 0.275034 0.894358 0.165811
H37   H     H_    0.880577 0.221535 0.883336 0.165264
H38   H     H_    0.174175 0.669489 0.980093 0.169941
H39   H     H_    0.171637 0.314396 0.988870 0.169629
H40   H     H_    0.827577 0.675652 0.017281 0.166078
N1    N     N_R   0.388930 0.078160 0.705470 -0.045746
N2    N     N_R   0.611070 0.921840 0.294530 -0.049233
N3    N     N_R   0.611070 0.078160 0.294530 -0.060197
N4    N     N_R   0.388930 0.921840 0.705470 -0.042477
N5    N     N_R   0.888930 0.578160 0.705470 -0.065161
N6    N     N_R   0.111070 0.421840 0.294530 -0.055459
N7    N     N_R   0.111070 0.578160 0.294530 -0.063768
N8    N     N_R   0.888930 0.421840 0.705470 -0.048041
N9    N     N_R   0.580500 0.077840 0.556650 -0.122245
N10   N     N_R   0.419500 0.922160 0.443350 -0.119280
N11   N     N_R   0.419500 0.077840 0.443350 -0.119869
N12   N     N_R   0.580500 0.922160 0.556650 -0.123827
N13   N     N_R   0.080500 0.577840 0.556650 -0.106286
N14   N     N_R   0.919500 0.422160 0.443350 -0.116390
N15   N     N_R   0.919500 0.577840 0.443350 -0.112998
N16   N     N_R   0.080500 0.422160 0.556650 -0.119689
N17   N     N_R   0.626210 0.077590 0.443410 -0.121849
N18   N     N_R   0.373790 0.922410 0.556590 -0.119533
N19   N     N_R   0.373790 0.077590 0.556590 -0.120581
N20   N     N_R   0.626210 0.922410 0.443410 -0.122330
N21   N     N_R   0.126210 0.577590 0.443410 -0.105796
N22   N     N_R   0.873790 0.422410 0.556590 -0.121143
N23   N     N_R   0.873790 0.577590 0.556590 -0.109985
N24   N     N_R   0.126210 0.422410 0.443410 -0.119355
N25   N     N_R   0.554800 0.077270 0.294580 -0.060663
N26   N     N_R   0.445200 0.922730 0.705420 -0.045469
N27   N     N_R   0.445200 0.077270 0.705420 -0.046130
N28   N     N_R   0.554800 0.922730 0.294580 -0.046197
N29   N     N_R   0.054800 0.577270 0.294580 -0.065020
N30   N     N_R   0.945200 0.422730 0.705420 -0.046042
N31   N     N_R   0.945200 0.577270 0.705420 -0.064763
N32   N     N_R   0.054800 0.422730 0.294580 -0.056175
Ni1   Ni    Ni4+2 0.382710 0.000000 0.629850 0.300021
Ni2   Ni    Ni4+2 0.617290 0.000000 0.370150 0.274743
Ni3   Ni    Ni4+2 0.882710 0.500000 0.629850 0.275884
Ni4   Ni    Ni4+2 0.117290 0.500000 0.370150 0.267932
Ni5   Ni    Ni4+2 0.513020 0.000000 0.629850 0.301111
Ni6   Ni    Ni4+2 0.486980 0.000000 0.370150 0.283798
Ni7   Ni    Ni4+2 0.013020 0.500000 0.629850 0.289549
Ni8   Ni    Ni4+2 0.986980 0.500000 0.370150 0.268034
Cl1   Cl    Cl    0.585998 0.100056 0.725642 -0.568408
Cl2   Cl    Cl    0.423114 0.920130 0.268216 -0.614283
Cl3   Cl    Cl    0.421188 0.123117 0.272170 -0.588534
Cl4   Cl    Cl    0.585723 0.906029 0.726374 -0.546500
Cl5   Cl    Cl    0.088812 0.618187 0.714922 -0.578967
Cl6   Cl    Cl    0.914023 0.406965 0.274461 -0.601663
Cl7   Cl    Cl    0.927063 0.642065 0.275209 -0.603302
Cl8   Cl    Cl    0.086264 0.410912 0.725487 -0.567406
Cl9   Cl    Cl    0.766929 0.109293 0.272018 -0.589446
Cl10  Cl    Cl    0.234905 0.920510 0.731878 -0.611879
Cl11  Cl    Cl    0.232209 0.108203 0.723853 -0.576951
Cl12  Cl    Cl    0.768877 0.910300 0.273402 -0.586801
Cl13  Cl    Cl    0.259620 0.629455 0.279715 -0.614958
Cl14  Cl    Cl    0.731626 0.419290 0.726410 -0.594511
Cl15  Cl    Cl    0.745645 0.642985 0.725081 -0.614080
Cl16  Cl    Cl    0.268636 0.410330 0.274180 -0.590238
C89   C     C_1   0.643580 0.717293 0.541835 0.088942
N33   N     N_1   0.594163 0.692307 0.558746 -0.070620
C90   C     C_1   0.345240 0.300830 0.547109 0.082031
N34   N     N_1   0.382123 0.316534 0.565739 -0.074546
C91   C     C_1   0.288008 0.916366 0.319613 0.231782
N35   N     N_1   0.305276 0.963478 0.253671 0.001533
C92   C     C_1   0.766158 0.108166 0.557187 0.189483
N36   N     N_1   0.774161 0.047953 0.579793 -0.048511
C93   C     C_1   0.161390 0.221400 0.460255 0.073468
N37   N     N_1   0.123056 0.204641 0.444938 -0.067641
C94   C     C_1   0.890587 0.837083 0.450706 0.132746
N38   N     N_1   0.941037 0.860868 0.431453 -0.061442
C95   C     C_1   0.726088 0.407475 0.449776 0.191237
N39   N     N_1   0.717784 0.468157 0.428678 -0.045218
C96   C     C_1   0.075492 0.789412 0.698507 0.178206
N40   N     N_1   0.016566 0.784865 0.776124 -0.037031

loop_
_geom_bond_atom_site_label_1
_geom_bond_atom_site_label_2
_ccdc_geom_bond_type
C68   C80   A    
C22   H29   S    
N6    N32   A    
C72   H24   S    
C79   C95   S    
N25   Ni6   S    
C8    N8    A    
C18   C21   S    
C34   N18   A    
N7    Ni4   S    
C14   C56   S    
C11   H36   S    
C9    C51   S    
C59   C82   S    
C7    C55   A    
N14   N22   A    
C72   C76   A    
C10   H33   S    
C10   C52   S    
C36   Cl12  S    
C76   C84   A    
N9    Ni5   S    
C65   C82   A    
N13   N21   A    
C4    N4    A    
C47   N31   A    
C32   Cl8   S    
C5    N5    A    
N22   Ni3   S    
C48   N32   A    
C11   C19   D    
C43   H11   S    
C14   H37   S    
C4    C52   A    
N7    N29   A    
C15   C53   S    
C3    H3    S    
C75   C91   S    
C6    C54   A    
C1    N1    A    
C42   H10   S    
N17   Ni2   S    
C44   C50   A    
C48   H16   S    
C39   N23   A    
C40   N24   A    
C35   C59   A    
C73   C81   A    
C2    H2    S    
C77   C93   S    
N4    Ni1   S    
C28   N12   A    
C2    C50   A    
C69   H21   S    
C36   N20   A    
N31   Ni7   S    
C6    H6    S    
C8    H8    S    
C70   C74   A    
N4    N26   A    
N26   Ni5   S    
C69   C73   A    
C70   H22   S    
C47   C53   A    
N8    N30   A    
N2    Ni2   S    
C15   C23   D    
N16   N24   A    
C77   C85   A    
C67   C84   A    
C16   C24   D    
C8    C56   A    
N12   N20   A    
C91   N35   T    
C25   C57   A    
C66   H18   S    
C43   N27   A    
N5    Ni3   S    
N29   Ni8   S    
C79   C87   A    
C73   C89   S    
C28   Cl4   S    
C17   H26   S    
C41   N25   A    
C28   C60   A    
C35   Cl11  S    
C29   N13   A    
C66   C78   A    
N18   Ni1   S    
C29   C61   A    
N13   Ni7   S    
C47   H15   S    
N16   Ni7   S    
C33   Cl9   S    
C92   N36   T    
C44   N28   A    
C31   C63   A    
N3    N25   A    
C45   N29   A    
C32   C64   A    
N19   Ni1   S    
C37   N21   A    
C23   H32   S    
N1    N27   A    
C3    C51   A    
C43   C49   A    
C4    H4    S    
C31   Cl7   S    
N3    Ni2   S    
C26   N10   A    
C80   C96   S    
C27   N11   A    
C94   N38   T    
C71   H23   S    
N5    N31   A    
C48   C54   A    
N11   Ni6   S    
C25   N9    A    
C7    N7    A    
C21   H30   S    
C11   C49   S    
C61   C88   S    
C30   Cl6   S    
C65   C77   A    
C46   H14   S    
C60   C81   S    
N9    N17   A    
C12   C50   S    
C20   C23   S    
N28   Ni6   S    
C37   Cl13  S    
C12   C20   D    
C9    H34   S    
C57   C84   S    
N1    Ni1   S    
N21   Ni4   S    
C35   N19   A    
C26   C58   A    
C26   Cl2   S    
N24   Ni4   S    
C45   H13   S    
C13   H38   S    
N11   N19   A    
C67   H19   S    
C9    C17   D    
C41   C51   A    
C40   Cl16  S    
N23   Ni3   S    
C15   H40   S    
C30   C62   A    
C63   C86   S    
C3    N3    A    
N30   Ni7   S    
C34   Cl10  S    
C27   Cl3   S    
C64   C85   S    
C75   C83   A    
C72   C87   A    
C7    H7    S    
C37   C61   A    
C74   C90   S    
C74   C82   A    
C25   Cl1   S    
N12   Ni5   S    
C24   H31   S    
C1    H1    S    
N15   N23   A    
C42   N26   A    
C68   C83   A    
C29   Cl5   S    
C36   C60   A    
C30   N14   A    
C20   H27   S    
C5    H5    S    
C65   H17   S    
C33   C57   A    
C39   C63   A    
C62   C87   S    
C17   C22   S    
C38   Cl14  S    
N10   Ni6   S    
N10   N18   A    
N20   Ni2   S    
C14   C22   D    
C19   C24   S    
C5    C53   A    
C90   N34   T    
C80   C88   A    
C76   C92   S    
C27   C59   A    
C58   C83   S    
C13   C21   D    
C66   C81   A    
C71   C75   A    
C44   H12   S    
C78   C86   A    
C89   N33   T    
C12   H35   S    
C19   H28   S    
C10   C18   D    
C40   C64   A    
N27   Ni5   S    
C2    N2    A    
N6    Ni4   S    
C41   H9    S    
C78   C94   S    
N32   Ni8   S    
C31   N15   A    
C95   N39   T    
C16   H39   S    
C16   C54   S    
N15   Ni8   S    
C32   N16   A    
N14   Ni8   S    
C71   C88   A    
C96   N40   T    
C45   C55   A    
C6    N6    A    
C93   N37   T    
C46   C56   A    
C34   C58   A    
C18   H25   S    
N2    N28   A    
C68   H20   S    
C13   C55   S    
C70   C85   A    
C1    C49   A    
C38   N22   A    
C67   C79   A    
C39   Cl15  S    
C69   C86   A    
C33   N17   A    
C42   C52   A    
C38   C62   A    
N8    Ni3   S    
C46   N30   A    
