data_mof_unit_29293.cif
_audit_creation_date              2012-12-10T20:46:51-0500
_audit_creation_method            fapswitch 2.2
_symmetry_space_group_name_H-M    P1
_symmetry_Int_Tables_number       1
_space_group_crystal_system       triclinic
_cell_length_a                    12.821511
_cell_length_b                    8.923383
_cell_length_c                    8.167243
_cell_angle_alpha                 90.000021
_cell_angle_beta                  99.710521
_cell_angle_gamma                 90.000036
_cell_volume                      921.03655298

loop_
_atom_site_label
_atom_site_type_symbol
_atom_type_description
_atom_site_fract_x
_atom_site_fract_y
_atom_site_fract_z
_atom_type_partial_charge
C1    C     C_R   0.500000 0.218233 0.500000 0.942311
C2    C     C_R   0.880613 0.537813 0.714186 -0.269330
C3    C     C_R   0.138010 0.508068 0.584581 -0.256891
C4    C     C_R   0.861990 0.508067 0.415419 -0.256891
C5    C     C_R   0.032582 0.535471 0.577743 -0.021216
C6    C     C_R   0.967418 0.535470 0.422257 -0.021215
C7    C     C_1   0.500000 0.065234 0.500000 -0.196676
C8    C     C_1   0.500000 0.934704 0.500000 -0.203464
C9    C     C_3   0.897243 0.722353 0.117868 0.045064
C10   C     C_3   0.775619 0.713056 0.095426 -0.367725
C11   C     C_3   0.721812 0.842107 0.990729 -0.894042
C12   C     C_R   0.500000 0.781744 0.500000 0.933445
C13   C     C_3   0.102760 0.722354 0.882128 0.045062
C14   C     C_3   0.224384 0.713052 0.904580 -0.367719
C15   C     C_3   0.278191 0.842100 0.009282 -0.894037
C16   C     C_R   0.296722 0.500638 0.464421 0.902930
C17   C     C_R   0.703277 0.500638 0.535579 0.902929
C18   C     C_R   0.817194 0.511749 0.559008 -0.164076
C19   C     C_R   0.182805 0.511749 0.440992 -0.164077
C20   C     C_R   0.009767 0.552838 0.276040 0.527897
C21   C     C_R   0.990233 0.552839 0.723960 0.527894
C22   C     C_R   0.119387 0.537813 0.285814 -0.269331
H1    H     H_    0.815144 0.480034 0.296623 0.205721
H2    H     H_    0.634724 0.834049 0.983803 0.273294
H3    H     H_    0.739828 0.836407 0.862472 0.257553
H4    H     H_    0.083054 0.780155 0.992739 0.171270
H5    H     H_    0.072461 0.795792 0.773744 0.105640
H6    H     H_    0.252986 0.605769 0.965115 0.241743
H7    H     H_    0.249662 0.718334 0.781264 0.222784
H8    H     H_    0.250852 0.951354 0.952433 0.257968
H9    H     H_    0.365280 0.834039 0.016213 0.273294
H10   H     H_    0.260172 0.836400 0.137536 0.257553
H11   H     H_    0.184856 0.480035 0.703377 0.205720
H12   H     H_    0.845396 0.544771 0.824697 0.212231
H13   H     H_    0.154604 0.544770 0.175303 0.212232
H14   H     H_    0.916945 0.780147 0.007251 0.171274
H15   H     H_    0.927547 0.795794 0.226246 0.105640
H16   H     H_    0.747013 0.605775 0.034892 0.241744
H17   H     H_    0.750346 0.718340 0.218745 0.222785
H18   H     H_    0.749155 0.951360 0.047578 0.257969
N1    N     N_1   0.500020 0.500000 0.073640 -0.046728
N2    N     N_1   0.499980 0.500000 0.926360 -0.046728
O1    O     O_R   0.499990 0.285340 0.636850 -0.610681
O2    O     O_3   0.055569 0.576994 0.875511 -0.622629
O3    O     O_R   0.500010 0.714660 0.363150 -0.617225
O4    O     O_R   0.500010 0.285340 0.363150 -0.610681
O5    O     O_R   0.499990 0.714660 0.636850 -0.617224
O6    O     O_R   0.346350 0.500000 0.614250 -0.634308
O7    O     O_R   0.653650 0.500000 0.385750 -0.634306
O8    O     O_R   0.346360 0.500000 0.340500 -0.620629
O9    O     O_R   0.653640 0.500000 0.659500 -0.620629
O10   O     O_3   0.944431 0.576991 0.124489 -0.622628
Zn1   Zn    Zn3+2 0.499990 0.500000 0.682780 0.963571
Zn2   Zn    Zn3+2 0.500010 0.500000 0.317220 0.963570

loop_
_geom_bond_atom_site_label_1
_geom_bond_atom_site_label_2
_ccdc_geom_bond_type
C9    H14   S    
C3    C19   A    
O6    Zn1   S    
C2    C18   A    
C21   O2    S    
C6    C20   A    
C9    C10   S    
C8    C12   S    
C10   H16   S    
C4    C18   A    
C17   O9    A    
C2    C21   A    
C9    H15   S    
C17   C18   S    
C15   H10   S    
C20   O10   S    
C13   C14   S    
C15   H9    S    
C22   H13   S    
C10   H17   S    
N1    Zn2   S    
O4    Zn2   S    
O8    Zn2   S    
C9    O10   S    
C16   C19   S    
O5    Zn1   S    
C16   O8    A    
O3    Zn2   S    
C12   O5    A    
N2    Zn1   S    
C5    C6    A    
C1    O4    A    
C13   H4    S    
C10   C11   S    
C3    H11   S    
C14   H7    S    
C11   H18   S    
C3    C5    A    
C11   H2    S    
C7    C8    T    
C19   C22   A    
C5    C21   A    
C16   O6    A    
C15   H8    S    
C4    C6    A    
N1    N2    T    
C17   O7    A    
C4    H1    S    
C11   H3    S    
C14   C15   S    
C13   H5    S    
C14   H6    S    
C2    H12   S    
C1    C7    S    
O1    Zn1   S    
C1    O1    A    
C13   O2    S    
O7    Zn2   S    
C20   C22   A    
C12   O3    A    
O9    Zn1   S    
