data_mof_unit_29032.cif
_audit_creation_date              2012-12-10T16:37:27-0500
_audit_creation_method            fapswitch 2.2
_symmetry_space_group_name_H-M    P1
_symmetry_Int_Tables_number       1
_space_group_crystal_system       triclinic
_cell_length_a                    16.590872
_cell_length_b                    16.760825
_cell_length_c                    16.764303
_cell_angle_alpha                 65.132909
_cell_angle_beta                  65.658034
_cell_angle_gamma                 65.703956
_cell_volume                      3690.20141085

loop_
_atom_site_label
_atom_site_type_symbol
_atom_type_description
_atom_site_fract_x
_atom_site_fract_y
_atom_site_fract_z
_atom_type_partial_charge
C1    C     C_R   0.395728 0.055712 0.668199 -0.361828
C2    C     C_R   0.473068 0.700634 0.908421 -0.319055
C3    C     C_R   0.097517 0.550192 0.282515 -0.313838
C4    C     C_R   0.096368 0.387805 0.653552 -0.308474
C5    C     C_R   0.010904 0.159194 0.423679 0.997433
C6    C     C_R   0.043816 0.820231 0.560048 0.937516
C7    C     C_R   0.180048 0.440340 0.956701 0.941478
C8    C     C_R   0.820050 0.559900 0.041617 0.955789
C9    C     C_R   0.429326 0.981729 0.176162 1.049770
C10   C     C_R   0.560158 0.043184 0.820044 0.961348
C11   C     C_R   0.570193 0.823349 0.020116 1.053107
C12   C     C_R   0.526268 0.096425 0.297752 -0.314298
C13   C     C_R   0.438791 0.180005 0.959441 1.003059
C14   C     C_R   0.042023 0.560938 0.820028 0.981215
C15   C     C_R   0.011393 0.423778 0.158561 0.998811
C16   C     C_R   0.819999 0.043129 0.559823 1.016555
C17   C     C_R   0.180104 0.959509 0.439652 0.917438
C18   C     C_R   0.436270 0.083918 0.706810 0.496173
C19   C     C_R   0.477866 0.081151 0.256039 0.482336
C20   C     C_R   0.108945 0.701245 0.433520 0.484280
C21   C     C_R   0.093050 0.236194 0.499745 0.474947
C22   C     C_R   0.696347 0.443477 0.077296 0.498373
C23   C     C_R   0.104448 0.653164 0.384813 -0.314928
C24   C     C_R   0.303336 0.564115 0.899520 0.494114
C25   C     C_R   0.301094 0.930483 0.555833 0.513841
C26   C     C_R   0.696117 0.103514 0.435753 0.489703
C27   C     C_R   0.561082 0.292340 0.925101 0.501177
C28   C     C_R   0.522566 0.742234 0.922193 0.478339
C29   C     C_R   0.092331 0.501508 0.234882 0.474031
C30   C     C_R   0.102399 0.435306 0.701514 0.489828
C31   C     C_R   0.526819 0.061817 0.532675 0.029414
C32   C     C_R   0.437879 0.022463 0.447511 0.031827
C33   C     C_R   0.089551 0.522645 0.520956 0.024902
C34   C     C_R   0.099211 0.283925 0.547643 -0.311619
C35   C     C_R   0.080336 0.424281 0.422491 0.024819
C36   C     C_R   0.558812 0.551175 0.985931 0.029836
C37   C     C_R   0.469747 0.466145 0.946820 0.032886
C38   C     C_R   0.562064 0.073158 0.437534 0.042842
C39   C     C_R   0.405022 0.008317 0.543064 0.046819
C40   C     C_R   0.090071 0.429312 0.563120 0.043238
C41   C     C_R   0.088320 0.514823 0.377444 0.044963
C42   C     C_R   0.486600 0.605260 0.944231 0.043516
C43   C     C_R   0.552648 0.415506 0.971570 0.045558
C44   C     C_R   0.510881 0.063030 0.393450 0.042450
C45   C     C_R   0.657018 0.402294 0.050300 -0.341543
C46   C     C_R   0.442748 0.039316 0.582846 0.047654
C47   C     C_R   0.435224 0.561399 0.934203 0.044868
C48   C     C_R   0.590266 0.455432 0.002329 0.043736
C49   C     C_R   0.087709 0.379362 0.512988 0.044324
C50   C     C_R   0.092872 0.564354 0.426951 0.042048
C51   C     C_R   0.532243 0.076223 0.669970 0.011329
C52   C     C_R   0.422206 0.020317 0.309115 -0.040765
C53   C     C_R   0.089742 0.666571 0.530312 0.003798
C54   C     C_R   0.064909 0.284917 0.418811 -0.013357
C55   C     C_R   0.673144 0.540278 0.050835 0.006848
C56   C     C_R   0.352677 0.609523 0.908880 -0.338326
C57   C     C_R   0.333992 0.467046 0.920418 0.014501
C58   C     C_R   0.325257 0.955062 0.458976 0.033390
C59   C     C_R   0.665100 0.082624 0.532894 -0.036206
C60   C     C_R   0.465477 0.329235 0.931196 -0.026282
C61   C     C_R   0.577202 0.689703 0.983921 -0.043111
C62   C     C_R   0.065181 0.419836 0.283602 -0.015922
C63   C     C_R   0.086490 0.531829 0.666207 -0.035607
C64   C     C_R   0.585939 0.075430 0.719006 -0.223668
C65   C     C_R   0.390717 0.980422 0.270699 -0.160937
C66   C     C_R   0.079385 0.718633 0.585614 -0.233148
C67   C     C_R   0.338186 0.960524 0.596448 -0.354301
C68   C     C_R   0.041913 0.242839 0.374950 -0.175720
C69   C     C_R   0.719238 0.587080 0.064556 -0.209411
C70   C     C_R   0.282026 0.414346 0.924369 -0.210027
C71   C     C_R   0.280645 0.938761 0.412534 -0.199999
C72   C     C_R   0.718020 0.075765 0.586164 -0.147620
C73   C     C_R   0.412415 0.280469 0.930635 -0.146211
C74   C     C_R   0.609039 0.728719 0.022599 -0.166903
C75   C     C_R   0.042529 0.375352 0.241860 -0.172524
C76   C     C_R   0.075946 0.586992 0.718554 -0.149500
C77   C     C_R   0.673297 0.088410 0.672271 0.319824
C78   C     C_R   0.645766 0.096374 0.389862 -0.321259
C79   C     C_R   0.326198 0.932360 0.325207 0.313281
C80   C     C_R   0.089245 0.673184 0.673520 0.329492
C81   C     C_R   0.042583 0.284337 0.283814 0.301819
C82   C     C_R   0.674351 0.674908 0.069991 0.318909
C83   C     C_R   0.327154 0.326771 0.914721 0.318303
C84   C     C_R   0.574857 0.073600 0.578434 -0.080019
C85   C     C_R   0.396149 0.998138 0.405455 -0.082499
C86   C     C_R   0.087959 0.573843 0.572599 -0.080289
C87   C     C_R   0.068790 0.376865 0.375451 -0.075618
C88   C     C_R   0.601856 0.593449 0.008259 -0.084010
C89   C     C_R   0.599995 0.330100 0.955720 -0.349155
C90   C     C_R   0.422780 0.420847 0.933057 -0.080792
H1    H     H_    0.324383 0.055234 0.700988 0.135777
H2    H     H_    0.429365 0.743048 0.863829 0.135839
H3    H     H_    0.113664 0.613973 0.241512 0.132576
H4    H     H_    0.099842 0.316678 0.688946 0.130014
H5    H     H_    0.671489 0.149435 0.748584 0.368710
H6    H     H_    0.273344 0.840560 0.342159 0.366716
H7    H     H_    0.149352 0.750756 0.672767 0.367837
H8    H     H_    0.984214 0.240031 0.240149 0.369250
H9    H     H_    0.732761 0.660239 0.157011 0.341323
H10   H     H_    0.254186 0.330494 0.849086 0.376692
H11   H     H_    0.316374 0.129945 0.788865 0.324322
H12   H     H_    0.570923 0.140086 0.254904 0.134832
H13   H     H_    0.518748 0.171308 0.139774 0.327132
H14   H     H_    0.154068 0.791497 0.318991 0.333484
H15   H     H_    0.144647 0.117700 0.581638 0.320677
H16   H     H_    0.761236 0.324593 0.146978 0.318559
H17   H     H_    0.220349 0.680954 0.847749 0.330668
H18   H     H_    0.236767 0.861001 0.675391 0.319895
H19   H     H_    0.780629 0.153685 0.319173 0.320564
H20   H     H_    0.682090 0.211732 0.878926 0.327682
H21   H     H_    0.484483 0.857207 0.829311 0.326786
H22   H     H_    0.143626 0.583798 0.116370 0.321459
H23   H     H_    0.113813 0.686694 0.312520 0.134818
H24   H     H_    0.144118 0.319524 0.792349 0.327412
H25   H     H_    0.118996 0.242692 0.609577 0.130129
H26   H     H_    0.675794 0.328116 0.071121 0.134905
H27   H     H_    0.324394 0.682759 0.897153 0.132686
H28   H     H_    0.318299 0.941364 0.670591 0.135299
H29   H     H_    0.674363 0.107812 0.316669 0.132509
H30   H     H_    0.670961 0.297163 0.957365 0.141869
O1    O     O_R   0.982940 0.138950 0.510160 -0.592366
O2    O     O_R   0.982940 0.510160 0.138950 -0.604887
O3    O     O_R   0.861050 0.017060 0.489840 -0.600877
O4    O     O_R   0.138950 0.982940 0.510160 -0.572875
O5    O     O_R   0.867700 0.025880 0.612340 -0.562700
O6    O     O_R   0.132300 0.974120 0.387660 -0.598766
O7    O     O_R   0.025880 0.612340 0.867700 -0.552250
O8    O     O_R   0.974120 0.387660 0.132300 -0.608430
O9    O     O_R   0.612340 0.867700 0.025880 -0.575735
O10   O     O_R   0.387660 0.132300 0.974120 -0.564730
O11   O     O_R   0.387660 0.974120 0.132300 -0.577213
O12   O     O_R   0.017060 0.861050 0.489840 -0.583883
O13   O     O_R   0.612340 0.025880 0.867700 -0.611130
O14   O     O_R   0.132300 0.387660 0.974120 -0.604003
O15   O     O_R   0.867700 0.612340 0.025880 -0.607320
O16   O     O_R   0.974120 0.132300 0.387660 -0.603291
O17   O     O_R   0.025880 0.867700 0.612340 -0.602089
O18   O     O_3   0.718452 0.108740 0.711346 -0.717958
O19   O     O_3   0.303140 0.885980 0.290043 -0.723519
O20   O     O_3   0.106916 0.713860 0.718783 -0.702718
O21   O     O_3   0.048627 0.233734 0.233488 -0.725430
O22   O     O_3   0.699052 0.711360 0.113999 -0.727914
O23   O     O_R   0.138950 0.510160 0.982940 -0.560878
O24   O     O_3   0.287026 0.283176 0.894072 -0.700857
O25   O     O_3   0.381552 0.128072 0.773106 -0.727814
O26   O     O_3   0.478269 0.130907 0.166060 -0.764032
O27   O     O_3   0.142192 0.776863 0.385889 -0.770922
O28   O     O_3   0.125070 0.141501 0.525396 -0.754228
O29   O     O_3   0.752756 0.390500 0.134151 -0.747729
O30   O     O_3   0.231548 0.614509 0.860407 -0.726713
O31   O     O_3   0.246352 0.872059 0.609617 -0.778222
O32   O     O_3   0.769387 0.140666 0.385693 -0.742312
O33   O     O_3   0.617480 0.228093 0.878805 -0.770355
O34   O     O_R   0.861050 0.489840 0.017060 -0.587803
O35   O     O_3   0.524574 0.831234 0.870019 -0.764291
O36   O     O_3   0.124156 0.527457 0.140152 -0.750219
O37   O     O_3   0.134973 0.386002 0.777251 -0.776314
O38   O     O_R   0.510160 0.982940 0.138950 -0.610429
O39   O     O_R   0.489840 0.017060 0.861050 -0.565745
O40   O     O_R   0.489840 0.861050 0.017060 -0.611411
O41   O     O_R   0.510160 0.138950 0.982940 -0.589222
O42   O     O_R   0.017060 0.489840 0.861050 -0.606021
Zn1   Zn    Zn3+2 0.004880 0.004880 0.583590 1.054700
Zn2   Zn    Zn3+2 0.995120 0.995120 0.416410 1.039807
Zn3   Zn    Zn3+2 0.004880 0.583590 0.004880 1.052854
Zn4   Zn    Zn3+2 0.995120 0.416410 0.995120 1.035280
Zn5   Zn    Zn3+2 0.583590 0.004880 0.004880 1.047992
Zn6   Zn    Zn3+2 0.416410 0.995120 0.995120 1.065461

loop_
_geom_bond_atom_site_label_1
_geom_bond_atom_site_label_2
_ccdc_geom_bond_type
C27   O33   S    
C5    O16   A    
C79   O19   S    
C37   C43   A    
C65   C79   A    
C15   O2    A    
C30   O37   S    
C64   C77   A    
H9    O22   S    
C36   C42   A    
C16   C72   S    
C10   O13   A    
C82   O22   S    
C18   O25   S    
C7    C70   S    
C7    O23   A    
C54   C87   A    
C36   C88   A    
C38   C44   A    
H11   O25   S    
C1    C18   A    
C26   C78   A    
C37   C90   A    
C68   C81   A    
C52   C85   A    
C16   O3    A    
C74   C82   A    
C35   C49   A    
C27   C60   A    
O13   Zn5   S    
C83   O24   S    
C17   O6    A    
C54   C68   A    
C63   C76   A    
C40   C49   A    
O1    Zn1   S    
C5    O1    A    
C60   C73   A    
O39   Zn6   S    
C56   H27   S    
C32   C39   A    
C55   C88   A    
C3    C29   A    
O23   Zn3   S    
C69   C82   A    
O42   Zn4   S    
H17   O30   S    
C35   C87   A    
C19   C52   A    
C4    C40   A    
C24   C57   A    
C34   C49   A    
C31   C46   A    
C25   C67   A    
O38   Zn5   S    
C28   O35   S    
C13   O10   A    
O14   Zn4   S    
C36   C48   A    
C53   C86   A    
C57   C70   A    
C37   C47   A    
C8    O34   A    
C43   C48   A    
H7    O20   S    
C59   C72   A    
O4    Zn1   S    
C28   C61   A    
C81   O21   S    
C22   O29   S    
C1    H1    S    
O2    Zn3   S    
C30   C63   A    
C8    O15   A    
O8    Zn4   S    
H14   O27   S    
O5    Zn1   S    
H6    O19   S    
C5    C68   S    
O6    Zn2   S    
C11   O9    A    
C71   C79   A    
C11   O40   A    
C9    O11   A    
O15   Zn3   S    
C33   C40   A    
C57   C90   A    
O9    Zn5   S    
C19   O26   S    
C21   O28   S    
H19   O32   S    
C59   C84   A    
C7    O14   A    
C6    O12   A    
H10   O24   S    
C89   H30   S    
O17   Zn1   S    
C8    C69   S    
C75   C81   A    
C23   C50   A    
C21   C34   A    
C38   C78   A    
C33   C50   A    
C80   O20   S    
H15   O28   S    
C31   C84   A    
C14   C76   S    
C14   O42   A    
C33   C86   A    
O12   Zn2   S    
H24   O37   S    
C12   H12   S    
C72   C77   A    
C70   C83   A    
C61   C88   A    
C23   H23   S    
H18   O31   S    
C17   O4    A    
C20   C23   A    
O7    Zn3   S    
C32   C44   A    
C20   O27   S    
C3    H3    S    
C43   C89   A    
C77   O18   S    
C2    H2    S    
C53   C66   A    
O41   Zn5   S    
C35   C41   A    
C24   O30   S    
C39   C46   A    
C4    H4    S    
C16   O5    A    
C13   C73   S    
O11   Zn6   S    
C17   C71   S    
C15   O8    A    
C29   O36   S    
C63   C86   A    
C61   C74   A    
C62   C75   A    
C25   C58   A    
C58   C85   A    
C41   C50   A    
C15   C75   S    
O16   Zn2   S    
C45   C48   A    
C29   C62   A    
C3    C41   A    
H5    O18   S    
C39   C67   A    
C10   C64   S    
C51   C64   A    
C76   C80   A    
C20   C53   A    
C11   C74   S    
C13   O41   A    
C22   C55   A    
C60   C90   A    
C18   C51   A    
C24   C56   A    
C66   C80   A    
C62   C87   A    
C31   C38   A    
C25   O31   S    
C55   C69   A    
C6    O17   A    
C26   O32   S    
C78   H29   S    
C34   H25   S    
H8    O21   S    
H20   O33   S    
O3    Zn2   S    
C45   H26   S    
C21   C54   A    
C9    O38   A    
C2    C42   A    
C32   C85   A    
C51   C84   A    
C12   C19   A    
C27   C89   A    
C42   C47   A    
O40   Zn6   S    
C1    C46   A    
C67   H28   S    
C9    C65   S    
C58   C71   A    
C14   O7    A    
O10   Zn6   S    
C6    C66   S    
C22   C45   A    
C12   C44   A    
H22   O36   S    
H16   O29   S    
O34   Zn4   S    
C26   C59   A    
C2    C28   A    
H21   O35   S    
C10   O39   A    
C73   C83   A    
C4    C30   A    
C52   C65   A    
H13   O26   S    
C47   C56   A    
