data_mof_unit_28909.cif
_audit_creation_date              2012-12-11T16:35:24-0500
_audit_creation_method            fapswitch 2.2
_symmetry_space_group_name_H-M    P1
_symmetry_Int_Tables_number       1
_space_group_crystal_system       triclinic
_cell_length_a                    6.963621
_cell_length_b                    17.867075
_cell_length_c                    19.423969
_cell_angle_alpha                 108.913266
_cell_angle_beta                  89.774731
_cell_angle_gamma                 90.590566
_cell_volume                      2286.12140028

loop_
_atom_site_label
_atom_site_type_symbol
_atom_type_description
_atom_site_fract_x
_atom_site_fract_y
_atom_site_fract_z
_atom_type_partial_charge
O1    O     O_R   0.505700 0.440210 0.561730 -0.538863
O2    O     O_R   0.169350 0.406300 0.412660 -0.534969
O3    O     O_R   0.005650 0.559790 0.438270 -0.538918
C1    C     C_R   0.339384 0.384940 0.383829 0.877210
O4    O     O_R   0.175560 0.430650 0.559600 -0.547486
O5    O     O_R   0.011900 0.584320 0.586250 -0.537830
C2    C     C_R   0.344019 0.417524 0.582735 0.707165
O6    O     O_R   0.499450 0.415680 0.413750 -0.526357
O7    O     O_3   0.341370 0.550390 0.508570 -0.371226
V1    V     V_3+5 0.063940 0.490650 0.498410 1.430054
O8    O     O_R   0.682570 0.593700 0.587340 -0.541755
C3    C     C_R   0.851988 0.616634 0.614982 0.685573
O9    O     O_R   0.676370 0.569350 0.440400 -0.544894
C4    C     C_R   0.845888 0.584807 0.419564 0.691544
V2    V     V_3+5 0.564750 0.509350 0.501590 1.438284
O10   O     O_3   0.837190 0.449610 0.491430 -0.371076
C5    C     C_R   0.036492 0.668028 0.275912 0.208297
C6    C     C_R   0.025274 0.629339 0.328124 -0.218225
H1    H     H_    0.146252 0.595534 0.335240 0.139595
C7    C     C_R   0.858778 0.632269 0.369641 -0.077858
C8    C     C_R   0.705363 0.678815 0.361286 -0.187209
H2    H     H_    0.575587 0.683176 0.393218 0.132360
C9    C     C_R   0.719380 0.721558 0.312501 -0.208783
H3    H     H_    0.601534 0.759503 0.309718 0.118319
C10   C     C_R   0.883460 0.716095 0.268400 0.100663
C11   C     C_R   0.729978 0.771451 0.178391 -0.181352
H4    H     H_    0.596396 0.743261 0.185632 0.113919
C12   C     C_R   0.732393 0.822384 0.136009 0.131711
C13   C     C_R   0.907083 0.858254 0.124216 -0.074829
C14   C     C_R   0.065724 0.848111 0.163158 -0.263801
H5    H     H_    0.185604 0.884211 0.164249 0.151240
C15   C     C_R   0.061253 0.802445 0.209246 -0.097590
H6    H     H_    0.186846 0.802355 0.241871 0.132298
C16   C     C_R   0.893608 0.761764 0.216268 0.100955
H7    H     H_    0.592441 0.659891 0.931633 0.114292
C17   C     C_R   0.073402 0.890942 0.748168 -0.143926
C18   C     C_R   0.144930 0.897365 0.683231 -0.121798
C19   C     C_R   0.124474 0.834724 0.618796 -0.119886
C20   C     C_R   0.032489 0.765112 0.618777 -0.130461
C21   C     C_R   0.960488 0.756238 0.684003 0.070444
C22   C     C_R   0.981264 0.820650 0.750194 0.068095
C23   C     C_R   0.865305 0.685403 0.683646 -0.184492
C24   C     C_R   0.790372 0.679394 0.749775 0.069539
C25   C     C_R   0.811212 0.743798 0.815973 0.072545
C26   C     C_R   0.906516 0.814598 0.816317 -0.186638
C27   C     C_R   0.697931 0.609171 0.751799 -0.144457
C28   C     C_R   0.626316 0.602769 0.816742 -0.122016
C29   C     C_R   0.646874 0.665408 0.881192 -0.120849
C30   C     C_R   0.739074 0.734973 0.881210 -0.130523
H8    H     H_    0.090235 0.942016 0.796414 0.111347
H9    H     H_    0.215272 0.951558 0.682852 0.120284
H10   H     H_    0.178803 0.840298 0.568367 0.115659
H11   H     H_    0.016862 0.718903 0.566869 0.106527
H12   H     H_    0.680857 0.558166 0.703530 0.103969
H13   H     H_    0.555797 0.548601 0.817099 0.119646
H14   H     H_    0.754725 0.781182 0.933119 0.098759
H15   H     H_    0.624091 0.469734 0.183966 0.122505
C31   C     C_R   0.260021 0.220646 0.378349 0.109602
C32   C     C_R   0.164956 0.149164 0.373287 0.202254
C33   C     C_R   0.119949 0.095903 0.304882 0.155245
C34   C     C_R   0.205700 0.105936 0.242989 -0.271849
C35   C     C_R   0.310234 0.175563 0.246733 0.009523
C36   C     C_R   0.309449 0.238647 0.314041 0.027696
C37   C     C_R   0.413781 0.183778 0.185728 -0.143035
C38   C     C_R   0.483660 0.259850 0.189192 0.033342
C39   C     C_R   0.442994 0.327412 0.251299 0.055642
C40   C     C_R   0.359316 0.316487 0.315068 -0.165967
C41   C     C_R   0.582280 0.270971 0.129213 -0.150419
C42   C     C_R   0.639154 0.345578 0.129372 -0.156153
C43   C     C_R   0.589198 0.411556 0.186795 -0.156120
C44   C     C_R   0.486456 0.403904 0.246311 0.187759
H16   H     H_    0.182865 0.059606 0.192158 0.140551
H17   H     H_    0.614504 0.222881 0.080411 0.131174
H18   H     H_    0.714935 0.352511 0.082997 0.127248
C45   C     C_R   0.537412 0.321237 0.716530 -0.147378
H19   H     H_    0.670351 0.322883 0.745669 0.103367
C46   C     C_R   0.525558 0.366583 0.669880 -0.165708
H20   H     H_    0.650498 0.400595 0.663967 0.115699
C47   C     C_R   0.354577 0.369005 0.632294 -0.052435
C48   C     C_R   0.195691 0.324550 0.642560 -0.176816
H21   H     H_    0.061922 0.324625 0.614328 0.117051
C49   C     C_R   0.208416 0.278120 0.688375 -0.138226
H22   H     H_    0.084293 0.243146 0.693056 0.100640
C50   C     C_R   0.379429 0.275848 0.726372 0.089451
C51   C     C_R   0.230700 0.214274 0.814741 -0.145526
H23   H     H_    0.094220 0.240758 0.810294 0.101224
C52   C     C_R   0.242545 0.168289 0.860840 -0.164214
H24   H     H_    0.114253 0.159987 0.889338 0.123791
C53   C     C_R   0.417477 0.134389 0.870788 -0.056139
C54   C     C_R   0.580238 0.147468 0.832999 -0.163035
H25   H     H_    0.716913 0.121715 0.838753 0.118036
C55   C     C_R   0.567835 0.192557 0.785985 -0.141635
H26   H     H_    0.695463 0.199256 0.756475 0.098729
C56   C     C_R   0.392829 0.226935 0.776166 0.088704
O11   O     O_R   0.273230 0.084330 0.086440 -0.538727
O12   O     O_R   0.596660 0.069390 0.940470 -0.544426
O13   O     O_R   0.760270 0.915710 0.913690 -0.535174
C57   C     C_R   0.427938 0.084682 0.919260 0.687375
O14   O     O_R   0.603330 0.093680 0.087390 -0.538373
O15   O     O_R   0.766990 0.940160 0.061660 -0.534186
C58   C     C_R   0.433214 0.115028 0.116597 0.688633
O16   O     O_R   0.266510 0.059870 0.938470 -0.540194
O17   O     O_3   0.431050 0.949630 0.991510 -0.370887
V3    V     V_3+5 0.708490 0.009340 0.001580 1.399286
O18   O     O_R   0.096270 0.930570 0.059390 -0.545969
C59   C     C_R   0.924920 0.912733 0.078875 0.671785
O19   O     O_R   0.089600 0.906290 0.912460 -0.537485
C60   C     C_R   0.920073 0.883328 0.884955 0.695588
V4    V     V_3+5 0.207670 0.990600 0.998190 1.398642
O20   O     O_3   0.935250 0.050360 0.008480 -0.367228
N1    N     N_3   0.200372 0.655644 0.228866 -0.698810
H27   H     H_    0.208652 0.595157 0.200107 0.229772
H28   H     H_    0.323093 0.671642 0.261298 0.218137
N2    N     N_3   0.315704 0.272331 0.448576 -0.683701
H29   H     H_    0.192593 0.286268 0.480819 0.228015
H30   H     H_    0.411050 0.242666 0.471907 0.222620
N3    N     N_3   0.112694 0.130201 0.437378 -0.684179
H31   H     H_    0.021449 0.173865 0.469427 0.222942
H32   H     H_    0.236768 0.128951 0.467049 0.229857
C61   C     C_3   0.983865 0.027478 0.297841 -0.314397
C62   C     C_3   0.780877 0.055816 0.323083 -0.725069
H33   H     H_    0.777969 0.092820 0.381175 0.245585
H34   H     H_    0.722904 0.090622 0.289806 0.218703
H35   H     H_    0.685905 0.003813 0.316882 0.210936
H36   H     H_    0.972709 0.990299 0.240349 0.160189
H37   H     H_    0.038690 0.990240 0.329373 0.198921
N4    N     N_3   0.410158 0.474377 0.296799 -0.695256
H38   H     H_    0.319066 0.498366 0.267057 0.208933
H39   H     H_    0.523222 0.514504 0.315741 0.234127
C63   C     C_3   0.543043 0.849503 0.117964 -0.329062
C64   C     C_3   0.508829 0.934288 0.169794 -0.688690
H40   H     H_    0.640167 0.971576 0.181924 0.222714
H41   H     H_    0.406298 0.964395 0.144587 0.211976
H42   H     H_    0.453666 0.932653 0.223028 0.187932
H43   H     H_    0.535650 0.845070 0.059793 0.191593
H44   H     H_    0.428396 0.808806 0.124115 0.160754

loop_
_geom_bond_atom_site_label_1
_geom_bond_atom_site_label_2
_ccdc_geom_bond_type
C25   C30   A    
C14   C15   A    
C52   H24   S    
C63   H43   S    
C1    O6    A    
C64   H42   S    
N2    H29   S    
C46   H20   S    
C61   C62   S    
C11   H4    S    
C35   C36   A    
C2    C47   S    
C17   C18   A    
C18   C19   A    
N3    H32   S    
C51   H23   S    
C19   C20   A    
C18   H9    S    
C61   H37   S    
C45   C50   A    
C19   H10   S    
V2    O10   S    
O15   V3    S    
C6    H1    S    
C62   H35   S    
C3    C23   S    
O13   C60   A    
O8    V2    S    
C11   C16   A    
C28   C29   A    
C41   C42   A    
O12   C57   A    
C35   C37   A    
C9    H3    S    
C33   C61   S    
C43   C44   A    
O1    V2    S    
H15   C43   S    
O7    V1    S    
C6    C7    A    
C26   C60   S    
C10   C16   S    
C21   C23   A    
O14   V3    S    
C32   C33   A    
C32   N3    S    
O9    C4    A    
O19   V4    S    
C44   N4    S    
C17   C22   A    
C42   C43   A    
H7    C29   S    
C5    N1    S    
O5    C3    A    
C46   C47   A    
C37   C58   S    
C36   C40   A    
C51   C52   A    
C4    C7    S    
C48   C49   A    
O11   V4    S    
C20   C21   A    
O4    C2    A    
C61   H36   S    
C41   H17   S    
C57   O16   A    
C33   C34   A    
C15   C16   A    
O2    C1    A    
C45   H19   S    
N4    H39   S    
C13   C14   A    
C51   C56   A    
C54   C55   A    
C39   C44   A    
C14   H5    S    
O19   C60   A    
C38   C41   A    
C27   H12   S    
C55   C56   A    
C5    C6    A    
C42   H18   S    
N1    H28   S    
C50   C56   S    
C45   C46   A    
C62   H33   S    
O3    C4    A    
C34   H16   S    
C21   C22   A    
O14   C58   A    
C38   C39   A    
O6    V2    S    
C49   C50   A    
O9    V2    S    
C24   C25   A    
C13   C59   S    
C23   C24   A    
N4    H38   S    
O2    V1    S    
C17   H8    S    
C25   C26   A    
C28   H13   S    
C31   C36   A    
O12   V3    S    
O18   V4    S    
C27   C28   A    
C12   C13   A    
N1    H27   S    
O1    C2    A    
C11   C12   A    
C63   H44   S    
C48   H21   S    
C64   H41   S    
O5    V1    S    
C1    C40   S    
N2    H30   S    
O8    C3    A    
C30   H14   S    
O18   C59   A    
O15   C59   A    
C53   C57   S    
O17   V4    S    
C5    C10   A    
C15   H6    S    
C8    C9    A    
C63   C64   S    
C31   C32   A    
O4    V1    S    
O3    V1    S    
V1    O10   S    
N3    H31   S    
C37   C38   A    
V3    O20   S    
C54   H25   S    
C20   H11   S    
C29   C30   A    
C55   H26   S    
C39   C40   A    
C12   C63   S    
C9    C10   A    
O7    V2    S    
C34   C35   A    
C24   C27   A    
C62   H34   S    
O13   V3    S    
C47   C48   A    
O11   C58   A    
C7    C8    A    
C49   H22   S    
V4    O20   S    
O17   V3    S    
C31   N2    S    
C52   C53   A    
C22   C26   A    
O16   V4    S    
C53   C54   A    
C8    H2    S    
C64   H40   S    
