data_mof_unit_11351.cif
_audit_creation_date              2013-03-05T16:22:36-0500
_audit_creation_method            fapswitch 2.2
_symmetry_space_group_name_H-M    P1
_symmetry_Int_Tables_number       1
_space_group_crystal_system       triclinic
_cell_length_a                    9.899563
_cell_length_b                    10.588064
_cell_length_c                    17.079476
_cell_angle_alpha                 90.96177
_cell_angle_beta                  86.725934
_cell_angle_gamma                 91.833046
_cell_volume                      1786.18558071

loop_
_atom_site_label
_atom_site_type_symbol
_atom_site_description
_atom_site_fract_x
_atom_site_fract_y
_atom_site_fract_z
_atom_type_partial_charge
O1    O     O_R   0.383390 0.686040 0.500000 -0.581845
O2    O     O_R   0.616610 0.313960 0.500000 -0.585436
O3    O     O_R   0.616650 0.686050 0.499970 -0.600333
O4    O     O_R   0.383350 0.313950 0.500030 -0.561584
C1    C     C_R   0.501693 0.741730 0.499757 0.923552
C2    C     C_R   0.498406 0.258247 0.500422 0.977461
O5    O     O_R   0.369590 0.500020 0.615820 -0.623186
O6    O     O_R   0.630410 0.499980 0.384180 -0.674027
O7    O     O_R   0.602840 0.500020 0.615790 -0.579277
O8    O     O_R   0.397160 0.499980 0.384210 -0.567900
C3    C     C_R   0.482771 0.497497 0.651728 0.983656
C4    C     C_R   0.517114 0.501598 0.348323 0.900236
Zn1   Zn    Zn3+2 0.344250 0.499990 0.500020 1.093321
Zn2   Zn    Zn3+2 0.655750 0.500010 0.499980 1.063894
C5    C     C_R   0.479323 0.486853 0.736545 -0.227656
C6    C     C_R   0.521069 0.509523 0.263450 -0.268545
C7    C     C_R   0.582366 0.553104 0.775944 0.210315
C8    C     C_R   0.421788 0.438605 0.223878 0.245989
C9    C     C_R   0.603007 0.525630 0.853549 0.197518
C10   C     C_R   0.405117 0.460234 0.145063 0.197308
C11   C     C_R   0.512742 0.441727 0.894035 -0.097226
C12   C     C_R   0.494551 0.544754 0.104422 -0.133487
C13   C     C_R   0.406813 0.378513 0.856703 0.258647
C14   C     C_R   0.594918 0.614692 0.142580 0.331899
C15   C     C_R   0.390038 0.398840 0.776853 -0.215217
C16   C     C_R   0.608414 0.598892 0.223329 -0.222103
C17   C     C_2   0.513476 0.439043 0.978848 -0.039232
C18   C     C_2   0.495484 0.546572 0.019545 -0.060579
H1    H     H_    0.487656 0.636223 0.990292 0.216002
H2    H     H_    0.521734 0.349367 0.007958 0.219355
C19   C     C_3   0.468579 0.955829 0.429524 -0.224421
C20   C     C_3   0.532332 0.044033 0.570934 -0.195157
C21   C     C_3   0.588673 0.044205 0.446439 0.241678
C22   C     C_3   0.412108 0.955722 0.554038 0.270984
C23   C     C_3   0.496625 0.123553 0.501096 -0.220388
C24   C     C_3   0.504025 0.876397 0.499363 -0.230980
C25   C     C_3   0.374040 0.035536 0.484556 -0.069066
C26   C     C_3   0.626641 0.964286 0.515809 -0.088204
H3    H     H_    0.269693 0.058708 0.472434 0.277975
H4    H     H_    0.731033 0.941184 0.527819 0.280641
C27   C     C_3   0.955820 0.611841 0.509907 0.274308
C28   C     C_3   0.044180 0.388157 0.490079 0.286681
C29   C     C_3   0.055429 0.568093 0.444869 0.208445
C30   C     C_3   0.944603 0.431925 0.555134 0.222966
N1    N     N_3   0.136700 0.499970 0.500060 -0.210086
N2    N     N_3   0.863300 0.500030 0.499940 -0.213561
C31   C     C_3   0.043135 0.544156 0.565878 -0.274777
C32   C     C_3   0.956867 0.455854 0.434107 -0.294696
N3    N     N_R   0.667452 0.647812 0.736712 0.262883
O9    O     O_R   0.798553 0.642565 0.736745 -0.238547
O10   O     O_R   0.613788 0.740348 0.701577 -0.286377
N4    N     N_R   0.335513 0.346086 0.264250 0.263361
O11   O     O_R   0.204610 0.350666 0.262117 -0.234392
O12   O     O_R   0.387833 0.255885 0.302200 -0.287176
N5    N     N_R   0.904562 0.738110 0.521599 0.239420
O13   O     O_R   0.929996 0.823611 0.468579 -0.296739
O14   O     O_R   0.844037 0.768840 0.588360 -0.250993
N6    N     N_R   0.095341 0.261796 0.478597 0.247042
O15   O     O_R   0.070466 0.176730 0.531948 -0.275674
O16   O     O_R   0.154993 0.230443 0.411715 -0.255066
C33   C     C_2   0.093037 0.590534 0.642605 0.721374
H5    H     H_    0.136510 0.525160 0.681398 0.057829
O17   O     O_2   0.081582 0.700621 0.663062 -0.402586
C34   C     C_2   0.906950 0.410069 0.357252 0.723866
H6    H     H_    0.863331 0.475810 0.318692 0.072011
O18   O     O_2   0.918517 0.300147 0.336443 -0.396393
C35   C     C_2   0.705992 0.681002 0.266423 0.510709
H7    H     H_    0.686539 0.703766 0.328019 0.048302
O19   O     O_2   0.810112 0.724111 0.234117 -0.406528
C36   C     C_2   0.281678 0.323828 0.738023 0.483581
H8    H     H_    0.186390 0.301678 0.769922 0.172914
O20   O     O_2   0.298447 0.281299 0.671500 -0.571971
N7    N     N_R   0.317242 0.292587 0.900209 0.214199
O21   O     O_R   0.363858 0.190922 0.929167 -0.271017
O22   O     O_R   0.191286 0.320212 0.915505 -0.262981
N8    N     N_R   0.681546 0.702479 0.098889 0.253335
O23   O     O_R   0.803624 0.671475 0.075667 -0.190121
O24   O     O_R   0.633553 0.807172 0.075018 -0.273486
N9    N     N_R   0.298300 0.395095 0.105570 0.244403
O25   O     O_R   0.286050 0.272401 0.107010 -0.221630
O26   O     O_R   0.214576 0.458590 0.066716 -0.238191
N10   N     N_R   0.713381 0.585847 0.892543 0.242471
O27   O     O_R   0.796459 0.518031 0.929082 -0.249201
O28   O     O_R   0.727800 0.708447 0.894425 -0.228325
N11   N     N_R   0.686469 0.093099 0.386672 0.233625
O29   O     O_R   0.811869 0.059695 0.385816 -0.223621
O30   O     O_R   0.646951 0.162289 0.330662 -0.307677
N12   N     N_R   0.314545 0.906779 0.613885 0.236371
O31   O     O_R   0.189062 0.939803 0.614730 -0.217912
O32   O     O_R   0.354327 0.837663 0.669859 -0.316711
C37   C     C_2   0.437980 0.909807 0.348937 0.694957
H9    H     H_    0.505741 0.846511 0.317212 -0.024273
O33   O     O_2   0.337686 0.944819 0.318204 -0.393616
C38   C     C_2   0.565614 0.088234 0.651537 0.661927
H10   H     H_    0.499710 0.151394 0.684635 0.070451
O34   O     O_2   0.666557 0.051661 0.680901 -0.405475
N13   N     N_R   0.120942 0.646769 0.383766 0.254692
O35   O     O_R   0.110125 0.617283 0.310147 -0.314584
O36   O     O_R   0.185961 0.750190 0.402756 -0.297441
N14   N     N_R   0.879289 0.353030 0.616188 0.254111
O37   O     O_R   0.892474 0.380910 0.689828 -0.348501
O38   O     O_R   0.813680 0.250013 0.597069 -0.300498

loop_
_geom_bond_atom_site_label_1
_geom_bond_atom_site_label_2
_geom_bond_distance
_ccdc_geom_bond_type
C20   C38   1.497697 S    
N5    O13   1.299949 A    
C22   C25   1.539357 S    
C27   C29   1.519104 S    
N7    O21   1.300775 A    
C28   N6    1.451965 S    
N13   O35   1.299994 A    
C8    N4    1.437500 S    
Zn2   N2    2.054609 S    
N11   O29   1.300853 A    
O5    C3    1.308889 A    
O1    C1    1.294080 A    
C16   C35   1.495549 S    
N8    O24   1.300653 A    
C18   H1    1.087062 S    
C9    C11   1.401810 A    
C14   C16   1.406461 A    
C5    C15   1.422311 A    
N6    O16   1.298676 A    
C1    C24   1.425433 S    
C2    C23   1.425922 S    
O4    Zn1   2.019591 S    
C33   O17   1.218127 D    
C21   N11   1.456059 S    
C27   N5    1.451780 S    
C21   C23   1.527459 S    
C3    C5    1.453261 S    
C4    C6    1.451643 S    
C30   N2    1.484271 S    
N3    O10   1.300679 A    
C27   N2    1.486966 S    
C19   C21   1.526924 S    
C36   H8    1.083092 S    
C20   C26   1.547370 S    
C9    N10   1.438139 S    
C29   C32   1.528741 S    
C22   C24   1.526749 S    
C30   C31   1.528455 S    
N1    C31   1.493871 S    
C11   C17   1.449760 S    
C12   C18   1.449600 S    
C17   H2    1.086678 S    
N7    O22   1.300826 A    
O2    C2    1.293190 A    
C28   C30   1.519166 S    
C13   N7    1.435943 S    
N13   O36   1.298234 A    
N4    O12   1.300493 A    
N11   O30   1.299793 A    
C6    C16   1.419273 A    
N2    C32   1.494020 S    
C35   H7    1.083162 S    
C20   C23   1.535416 S    
N8    O23   1.300714 A    
O4    C2    1.299695 A    
C7    N3    1.438083 S    
C37   H9    1.080627 S    
N9    O26   1.301063 A    
C14   N8    1.433674 S    
C28   C32   1.527023 S    
N6    O15   1.299964 A    
C19   C25   1.547579 S    
C35   O19   1.220089 D    
C28   N1    1.487013 S    
C20   C22   1.527432 S    
O7    Zn2   2.017025 S    
C37   O33   1.219974 D    
O7    C3    1.305946 A    
O6    C4    1.308946 A    
N14   O38   1.298143 A    
C27   C31   1.526969 S    
C38   H10   1.079594 S    
C22   N12   1.455734 S    
C38   O34   1.220071 D    
C29   N1    1.484150 S    
O3    Zn2   2.019590 S    
O8    C4    1.304616 A    
C10   C12   1.402318 A    
N10   O27   1.301119 A    
N10   O28   1.301434 A    
N5    O14   1.298840 A    
C12   C14   1.403933 A    
O1    Zn1   1.995457 S    
N4    O11   1.300947 A    
Zn1   N1    2.054609 S    
C5    C7    1.415003 A    
O6    Zn2   2.007806 S    
C10   N9    1.438066 S    
C23   C25   1.542380 S    
C29   N13   1.456360 S    
N12   O32   1.299808 A    
O3    C1    1.298512 A    
O8    Zn1   2.017025 S    
C31   C33   1.496421 S    
C19   C37   1.496429 S    
C21   C26   1.538151 S    
C34   H6    1.082496 S    
C11   C13   1.404041 A    
C25   H3    1.101126 S    
C26   H4    1.100897 S    
C30   N14   1.456333 S    
C24   C26   1.541490 S    
N14   O37   1.299954 A    
C7    C9    1.389565 A    
C8    C10   1.389185 A    
C13   C15   1.404224 A    
C33   H5    1.081827 S    
O2    Zn2   1.995459 S    
C32   C34   1.496551 S    
N9    O25   1.301393 A    
O5    Zn1   2.007806 S    
N12   O31   1.300444 A    
C6    C8    1.413587 A    
N3    O9    1.300831 A    
C17   C18   1.335426 D    
C19   C24   1.534164 S    
C36   O20   1.219552 D    
C15   C36   1.493465 S    
C34   O18   1.218193 D    
