data_mof_unit_62497.cif
_audit_creation_date              2012-12-10T18:00:57-0500
_audit_creation_method            fapswitch 2.2
_symmetry_space_group_name_H-M    P1
_symmetry_Int_Tables_number       1
_space_group_crystal_system       triclinic
_cell_length_a                    30.68015
_cell_length_b                    30.718787
_cell_length_c                    24.772837
_cell_angle_alpha                 90.000111
_cell_angle_beta                  128.346997
_cell_angle_gamma                 90.0
_cell_volume                      18310.5602509

loop_
_atom_site_label
_atom_site_type_symbol
_atom_type_description
_atom_site_fract_x
_atom_site_fract_y
_atom_site_fract_z
_atom_type_partial_charge
C1    C     C_R   0.809675 0.809377 0.500783 0.868010
C2    C     C_R   0.190321 0.809377 0.499211 0.867938
C3    C     C_R   0.309679 0.309378 0.500790 0.867900
C4    C     C_R   0.690325 0.309377 0.499217 0.868006
C5    C     C_R   0.645546 0.749969 0.291370 -0.020348
C6    C     C_R   0.354453 0.749970 0.708630 -0.020342
C7    C     C_R   0.145539 0.249962 0.291370 -0.020347
C8    C     C_R   0.854463 0.249962 0.708629 -0.020361
C9    C     C_R   0.465112 0.749973 0.930041 0.405870
C10   C     C_R   0.534887 0.749973 0.069959 0.405866
C11   C     C_R   0.965121 0.249958 0.930041 0.405829
C12   C     C_R   0.034883 0.249959 0.069959 0.405832
C13   C     C_R   0.841956 0.848090 0.444976 0.015985
C14   C     C_R   0.157962 0.848039 0.554969 0.016052
C15   C     C_R   0.342083 0.348011 0.445060 0.016074
C16   C     C_R   0.658057 0.348100 0.555032 0.015962
C17   C     C_R   0.842480 0.843311 0.501270 -0.172758
C18   C     C_R   0.157518 0.843313 0.498729 -0.172850
C19   C     C_R   0.342481 0.343315 0.501270 -0.172889
C20   C     C_R   0.657520 0.343311 0.498729 -0.172722
C21   C     C_R   0.868272 0.875463 0.553084 0.471908
C22   C     C_R   0.131806 0.875511 0.446986 0.471953
C23   C     C_R   0.368144 0.375541 0.552969 0.472042
C24   C     C_R   0.631717 0.375456 0.446904 0.471960
C25   C     C_R   0.901101 0.907460 0.552933 -0.302238
C26   C     C_R   0.098972 0.907505 0.447134 -0.302312
C27   C     C_R   0.400980 0.407534 0.552823 -0.302488
C28   C     C_R   0.598888 0.407454 0.447056 -0.302397
C29   C     C_R   0.904906 0.908927 0.499268 -0.161203
C30   C     C_R   0.095090 0.908924 0.500735 -0.161121
C31   C     C_R   0.404910 0.408924 0.499261 -0.161051
C32   C     C_R   0.595096 0.408929 0.500732 -0.161183
C33   C     C_R   0.872198 0.880659 0.443613 0.137315
C34   C     C_R   0.127722 0.880607 0.556338 0.137291
C35   C     C_R   0.372322 0.380579 0.443688 0.137312
C36   C     C_R   0.627816 0.380669 0.556395 0.137351
C37   C     C_3   0.888474 0.851786 0.410246 -0.441555
C38   C     C_3   0.111345 0.851703 0.589563 -0.441711
C39   C     C_3   0.388756 0.351658 0.410543 -0.441796
C40   C     C_3   0.611558 0.351801 0.589786 -0.441517
C41   C     C_3   0.855196 0.815928 0.411892 -0.444955
C42   C     C_3   0.144620 0.815847 0.587911 -0.444785
C43   C     C_3   0.355483 0.315802 0.412199 -0.444718
C44   C     C_3   0.644834 0.315943 0.588140 -0.445006
C45   C     C_R   0.683642 0.749986 0.367393 0.801697
C46   C     C_R   0.316357 0.749986 0.632607 0.801604
C47   C     C_R   0.183640 0.249983 0.367393 0.802025
C48   C     C_R   0.816361 0.249983 0.632607 0.802110
C49   C     C_R   0.837276 0.769226 0.744638 -0.268441
C50   C     C_R   0.162794 0.769113 0.255369 -0.268461
C51   C     C_R   0.337207 0.269113 0.744631 -0.268459
C52   C     C_R   0.662770 0.269149 0.255366 -0.268543
C53   C     C_R   0.871921 0.768138 0.816950 0.515585
C54   C     C_R   0.128150 0.768016 0.183058 0.515613
C55   C     C_R   0.371849 0.268014 0.816942 0.515613
C56   C     C_R   0.628127 0.268052 0.183055 0.515597
C57   C     C_R   0.925134 0.748955 0.853925 -0.036360
C58   C     C_R   0.074875 0.748944 0.146080 -0.036377
C59   C     C_R   0.425121 0.248934 0.853920 -0.036407
C60   C     C_R   0.574875 0.248938 0.146078 -0.036402
C61   C     C_R   0.941424 0.729578 0.817559 -0.236883
C62   C     C_R   0.058521 0.729678 0.182443 -0.236877
C63   C     C_R   0.441469 0.229661 0.817555 -0.236870
C64   C     C_R   0.558546 0.229631 0.182445 -0.236875
C65   C     C_R   0.905816 0.729333 0.745759 -0.176173
C66   C     C_R   0.094126 0.729432 0.254244 -0.176125
C67   C     C_R   0.405865 0.229419 0.745755 -0.176170
C68   C     C_R   0.594152 0.229388 0.254245 -0.176110
C69   C     C_R   0.853584 0.749417 0.708622 -0.086638
C70   C     C_R   0.146420 0.749412 0.291382 -0.086612
C71   C     C_R   0.353577 0.249408 0.708618 -0.086678
C72   C     C_R   0.646420 0.249410 0.291381 -0.086674
C73   C     C_R   0.035947 0.748814 0.069923 0.439266
C74   C     C_R   0.964062 0.748819 0.930083 0.439254
C75   C     C_R   0.535944 0.248804 0.069920 0.439217
C76   C     C_R   0.464052 0.248802 0.930079 0.439219
C77   C     C_R   0.678514 0.632590 0.556944 0.012170
C78   C     C_R   0.321427 0.632482 0.443142 0.012247
C79   C     C_R   0.178309 0.132955 0.557229 0.011887
C80   C     C_R   0.821748 0.133054 0.442695 0.011807
C81   C     C_R   0.656090 0.658257 0.498852 -0.169909
C82   C     C_R   0.343913 0.658256 0.501148 -0.170067
C83   C     C_R   0.156101 0.158263 0.498854 -0.169365
C84   C     C_R   0.843896 0.158264 0.501144 -0.169220
C85   C     C_R   0.598451 0.656737 0.444610 0.471323
C86   C     C_R   0.401584 0.656826 0.555268 0.471403
C87   C     C_R   0.098579 0.156434 0.444199 0.471045
C88   C     C_R   0.901384 0.156352 0.555911 0.470976
C89   C     C_R   0.690301 0.690733 0.499407 0.867686
C90   C     C_R   0.309704 0.690733 0.500601 0.867583
C91   C     C_R   0.190319 0.190735 0.499437 0.867977
C92   C     C_R   0.809676 0.190736 0.500555 0.868056
C93   C     C_R   0.566524 0.623904 0.444854 -0.302392
C94   C     C_R   0.433508 0.623986 0.555029 -0.302464
C95   C     C_R   0.066641 0.123623 0.444461 -0.302047
C96   C     C_R   0.933326 0.123547 0.555645 -0.301977
C97   C     C_R   0.591325 0.594932 0.500683 -0.161514
C98   C     C_R   0.408664 0.594921 0.499308 -0.161374
C99   C     C_R   0.091292 0.094964 0.500653 -0.161958
C100  C     C_R   0.908717 0.094973 0.499356 -0.162083
C101  C     C_R   0.646546 0.601665 0.558127 0.138051
C102  C     C_R   0.353388 0.601555 0.441950 0.138039
C103  C     C_R   0.146322 0.102031 0.558377 0.138111
C104  C     C_R   0.853741 0.102130 0.441557 0.138117
C105  C     C_3   0.693630 0.570021 0.596681 -0.440123
C106  C     C_3   0.306368 0.569843 0.403660 -0.440474
C107  C     C_3   0.193617 0.070623 0.597812 -0.439066
C108  C     C_3   0.806391 0.070785 0.401889 -0.438754
C109  C     C_3   0.728763 0.604143 0.595245 -0.454107
C110  C     C_3   0.271242 0.603965 0.405107 -0.453789
C111  C     C_3   0.228772 0.104744 0.596418 -0.455182
C112  C     C_3   0.771230 0.104906 0.403271 -0.455467
C113  C     C_R   0.440458 0.559686 0.499888 0.824477
C114  C     C_R   0.559540 0.559690 0.500111 0.824485
C115  C     C_R   0.940468 0.059703 0.499893 0.824584
C116  C     C_R   0.059534 0.059700 0.500108 0.824581
C117  C     C_R   0.940316 0.940569 0.499934 0.824311
C118  C     C_R   0.059682 0.940568 0.500066 0.824302
C119  C     C_R   0.440318 0.440568 0.499933 0.824205
C120  C     C_R   0.559684 0.440570 0.500066 0.824209
C121  C     C_R   0.816184 0.749873 0.632616 0.828888
C122  C     C_R   0.183817 0.749873 0.367385 0.828810
C123  C     C_R   0.316182 0.249871 0.632615 0.828772
C124  C     C_R   0.683818 0.249872 0.367384 0.828872
C125  C     C_R   0.611420 0.786092 0.254688 -0.185840
C126  C     C_R   0.388579 0.786093 0.745312 -0.185709
C127  C     C_R   0.111408 0.286082 0.254685 -0.186269
C128  C     C_R   0.888591 0.286083 0.745315 -0.186399
C129  C     C_R   0.575842 0.786265 0.182743 -0.156356
C130  C     C_R   0.424156 0.786266 0.817258 -0.156338
C131  C     C_R   0.075830 0.286252 0.182739 -0.156411
C132  C     C_R   0.924170 0.286252 0.817260 -0.156431
C133  C     C_R   0.572885 0.749963 0.146079 0.055769
C134  C     C_R   0.427113 0.749964 0.853921 0.055774
C135  C     C_R   0.072877 0.249950 0.146079 0.055755
C136  C     C_R   0.927127 0.249949 0.853921 0.055749
C137  C     C_R   0.606597 0.713652 0.182817 -0.154121
C138  C     C_R   0.393401 0.713652 0.817183 -0.154107
C139  C     C_R   0.106590 0.213640 0.182820 -0.154166
C140  C     C_R   0.893416 0.213638 0.817179 -0.154178
C141  C     C_R   0.642969 0.713827 0.254756 -0.168536
C142  C     C_R   0.357029 0.713828 0.745244 -0.168651
C143  C     C_R   0.142963 0.213818 0.254760 -0.168125
C144  C     C_R   0.857041 0.213816 0.745240 -0.168015
Cu1   Cu    Cu3+1 0.780910 0.719090 0.500000 0.947100
Cu2   Cu    Cu3+1 0.219090 0.719090 0.500000 0.946994
Cu3   Cu    Cu3+1 0.280910 0.219090 0.500000 0.947261
Cu4   Cu    Cu3+1 0.719090 0.219090 0.500000 0.947378
Cu5   Cu    Cu3+1 0.719070 0.780890 0.500010 0.953642
Cu6   Cu    Cu3+1 0.280930 0.780890 0.499990 0.953792
Cu7   Cu    Cu3+1 0.219070 0.280890 0.500010 0.953501
Cu8   Cu    Cu3+1 0.780930 0.280890 0.499990 0.953361
Cu9   Cu    Cu3+1 0.465760 0.500000 0.431570 0.947247
Cu10  Cu    Cu3+1 0.534240 0.500000 0.568430 0.947248
Cu11  Cu    Cu3+1 0.965760 0.000000 0.431570 0.947058
Cu12  Cu    Cu3+1 0.034240 0.000000 0.568430 0.947069
H1    H     H_    0.612703 0.814452 0.281619 0.147572
H2    H     H_    0.387296 0.814453 0.718382 0.147562
H3    H     H_    0.112690 0.314443 0.281612 0.147580
H4    H     H_    0.887306 0.314445 0.718387 0.147593
H5    H     H_    0.881322 0.788514 0.446659 0.210625
H6    H     H_    0.118483 0.788465 0.553060 0.210616
H7    H     H_    0.381626 0.288439 0.447097 0.210614
H8    H     H_    0.618710 0.288523 0.553387 0.210624
H9    H     H_    0.797571 0.785680 0.716723 0.162604
H10   H     H_    0.202553 0.785483 0.283289 0.162568
H11   H     H_    0.297450 0.285488 0.716713 0.162614
H12   H     H_    0.702509 0.285550 0.283283 0.162622
H13   H     H_    0.981732 0.714175 0.844777 0.170638
H14   H     H_    0.018162 0.714360 0.155223 0.170630
H15   H     H_    0.481824 0.214337 0.844772 0.170653
H16   H     H_    0.518208 0.214280 0.155228 0.170654
H17   H     H_    0.919575 0.713945 0.719337 0.164877
H18   H     H_    0.080319 0.714131 0.280665 0.164841
H19   H     H_    0.419670 0.214114 0.719333 0.164856
H20   H     H_    0.580363 0.214056 0.280667 0.164874
H21   H     H_    0.523150 0.620242 0.400765 0.175760
H22   H     H_    0.476920 0.620393 0.599041 0.175657
H23   H     H_    0.023398 0.119723 0.400114 0.176093
H24   H     H_    0.976533 0.119583 0.600061 0.176188
H25   H     H_    0.707242 0.563619 0.649277 0.198878
H26   H     H_    0.292646 0.563347 0.351034 0.198905
H27   H     H_    0.206857 0.064528 0.650303 0.198770
H28   H     H_    0.793253 0.064771 0.349428 0.198743
H29   H     H_    0.686085 0.540438 0.566044 0.187985
H30   H     H_    0.314053 0.540313 0.434462 0.187940
H31   H     H_    0.186541 0.040863 0.567730 0.188088
H32   H     H_    0.813342 0.040980 0.431822 0.188125
H33   H     H_    0.762588 0.617413 0.646993 0.194893
H34   H     H_    0.237311 0.617141 0.353336 0.194890
H35   H     H_    0.262235 0.118324 0.648083 0.194876
H36   H     H_    0.737864 0.118569 0.351629 0.194874
H37   H     H_    0.550171 0.814632 0.155810 0.149395
H38   H     H_    0.449827 0.814633 0.844191 0.149389
H39   H     H_    0.050157 0.314618 0.155803 0.149398
H40   H     H_    0.949841 0.314619 0.844196 0.149404
H41   H     H_    0.741587 0.594421 0.563688 0.210243
H42   H     H_    0.258563 0.594296 0.436837 0.210235
H43   H     H_    0.242083 0.094845 0.565444 0.210257
H44   H     H_    0.757788 0.094962 0.434088 0.210263
H45   H     H_    0.605372 0.685284 0.155949 0.151414
H46   H     H_    0.394626 0.685284 0.844050 0.151412
H47   H     H_    0.105368 0.185271 0.155956 0.151424
H48   H     H_    0.894641 0.185268 0.844044 0.151427
H49   H     H_    0.668648 0.685467 0.281735 0.151781
H50   H     H_    0.331350 0.685468 0.718264 0.151763
H51   H     H_    0.168644 0.185459 0.281742 0.151847
H52   H     H_    0.831362 0.185456 0.718258 0.151866
H53   H     H_    0.924740 0.930130 0.595465 0.175716
H54   H     H_    0.075393 0.930213 0.404648 0.175661
H55   H     H_    0.424526 0.430266 0.595280 0.175605
H56   H     H_    0.575239 0.430117 0.404518 0.175690
H57   H     H_    0.870090 0.862715 0.357251 0.202363
H58   H     H_    0.129685 0.862583 0.642565 0.202381
H59   H     H_    0.370442 0.362510 0.357538 0.202386
H60   H     H_    0.629950 0.362738 0.642780 0.202359
H61   H     H_    0.933922 0.845200 0.443964 0.186205
H62   H     H_    0.065887 0.845148 0.555766 0.186202
H63   H     H_    0.434219 0.345122 0.444385 0.186190
H64   H     H_    0.566111 0.345210 0.556082 0.186195
H65   H     H_    0.817643 0.806196 0.359857 0.197953
H66   H     H_    0.182127 0.806066 0.639949 0.197952
H67   H     H_    0.318002 0.305993 0.360159 0.197943
H68   H     H_    0.682395 0.306219 0.640174 0.197950
N1    N     N_R   0.517190 0.711950 0.034281 -0.235308
N2    N     N_R   0.482809 0.711950 0.965719 -0.235308
N3    N     N_R   0.017191 0.211936 0.034281 -0.235308
N4    N     N_R   0.982816 0.211935 0.965719 -0.235306
N5    N     N_R   0.482996 0.787998 0.965719 -0.240635
N6    N     N_R   0.517002 0.787998 0.034282 -0.240635
N7    N     N_R   0.983000 0.287983 0.965718 -0.240653
N8    N     N_R   0.017000 0.287984 0.034281 -0.240651
N9    N     N_R   0.019818 0.748462 0.964492 -0.241885
N10   N     N_R   0.980191 0.748603 0.035514 -0.241867
N11   N     N_R   0.519807 0.248539 0.964484 -0.241907
N12   N     N_R   0.480188 0.248502 0.035515 -0.241904
N13   N     N_R   0.055026 0.748571 0.033006 -0.189266
N14   N     N_R   0.944983 0.748717 0.967001 -0.189223
N15   N     N_R   0.555019 0.248650 0.032998 -0.189204
N16   N     N_R   0.444977 0.248611 0.967001 -0.189197
O1    O     O_R   0.821190 0.768980 0.500000 -0.591933
O2    O     O_R   0.178810 0.768980 0.500000 -0.591973
O3    O     O_R   0.321190 0.268980 0.500000 -0.592020
O4    O     O_R   0.678810 0.268980 0.500000 -0.591971
O5    O     O_R   0.483700 0.545120 0.557760 -0.588633
O6    O     O_R   0.516300 0.545120 0.442240 -0.588670
O7    O     O_R   0.983700 0.045120 0.557760 -0.588837
O8    O     O_R   0.016300 0.045120 0.442240 -0.588806
O9    O     O_R   0.925990 0.954920 0.442210 -0.585164
O10   O     O_R   0.074010 0.954920 0.557790 -0.585151
O11   O     O_R   0.425990 0.454920 0.442210 -0.585139
O12   O     O_R   0.574010 0.454920 0.557790 -0.585158
O13   O     O_R   0.983760 0.954940 0.557800 -0.586115
O14   O     O_R   0.016240 0.954940 0.442200 -0.586103
O15   O     O_R   0.483760 0.454940 0.557800 -0.586114
O16   O     O_R   0.516240 0.454940 0.442200 -0.586142
O17   O     O_R   0.768960 0.821170 0.500020 -0.577509
O18   O     O_R   0.231040 0.821170 0.499980 -0.577404
O19   O     O_R   0.268960 0.321170 0.500020 -0.577289
O20   O     O_R   0.731040 0.321170 0.499980 -0.577446
O21   O     O_R   0.726180 0.723900 0.400140 -0.592029
O22   O     O_R   0.273820 0.723900 0.599860 -0.592053
O23   O     O_R   0.226180 0.223900 0.400140 -0.591919
O24   O     O_R   0.773820 0.223900 0.599860 -0.591899
O25   O     O_R   0.673950 0.776090 0.400160 -0.585586
O26   O     O_R   0.326050 0.776090 0.599840 -0.585526
O27   O     O_R   0.173950 0.276090 0.400160 -0.585837
O28   O     O_R   0.826050 0.276090 0.599840 -0.585888
O29   O     O_R   0.731010 0.678810 0.499990 -0.592036
O30   O     O_R   0.268990 0.678810 0.500010 -0.592101
O31   O     O_R   0.231010 0.178810 0.499990 -0.591786
O32   O     O_R   0.768990 0.178810 0.500010 -0.591723
O33   O     O_R   0.678790 0.731000 0.500010 -0.582198
O34   O     O_R   0.321210 0.731000 0.499990 -0.582008
O35   O     O_R   0.178790 0.231000 0.500010 -0.582859
O36   O     O_R   0.821210 0.231000 0.499990 -0.583037
O37   O     O_R   0.826030 0.723890 0.599860 -0.594136
O38   O     O_R   0.173970 0.723890 0.400140 -0.594143
O39   O     O_R   0.326030 0.223890 0.599860 -0.594190
O40   O     O_R   0.673970 0.223890 0.400140 -0.594177
O41   O     O_R   0.773800 0.776080 0.599870 -0.585515
O42   O     O_R   0.226200 0.776080 0.400130 -0.585451
O43   O     O_R   0.273800 0.276080 0.599870 -0.585359
O44   O     O_R   0.726200 0.276080 0.400130 -0.585414
O45   O     O_R   0.425940 0.545090 0.442170 -0.587002
O46   O     O_R   0.574060 0.545090 0.557830 -0.587016
O47   O     O_R   0.925940 0.045090 0.442170 -0.587052
O48   O     O_R   0.074060 0.045090 0.557830 -0.587037
O49   O     O_3   0.856317 0.789636 0.851679 -0.560991
C145  C     C_3   0.811646 0.767174 0.841569 -0.291868
H69   H     H_    0.804279 0.781252 0.876516 0.201523
H70   H     H_    0.821206 0.731967 0.854527 0.154866
H71   H     H_    0.772725 0.771254 0.788048 0.145217
O50   O     O_3   0.143828 0.789403 0.148332 -0.560988
C146  C     C_3   0.188416 0.766803 0.158434 -0.291859
H72   H     H_    0.195844 0.780806 0.123505 0.201515
H73   H     H_    0.178721 0.731611 0.145446 0.154892
H74   H     H_    0.227349 0.770823 0.211961 0.145195
O51   O     O_3   0.356171 0.289402 0.851666 -0.560958
C147  C     C_3   0.311585 0.266800 0.841568 -0.291956
H75   H     H_    0.304159 0.280802 0.876499 0.201510
H76   H     H_    0.321281 0.231608 0.854556 0.154834
H77   H     H_    0.272650 0.270819 0.788041 0.145225
O52   O     O_3   0.643781 0.289476 0.148330 -0.560971
C148  C     C_3   0.688390 0.266916 0.158425 -0.291951
H78   H     H_    0.695802 0.280948 0.123495 0.201510
H79   H     H_    0.678729 0.231722 0.145432 0.154838
H80   H     H_    0.727321 0.270946 0.211952 0.145226
O53   O     O_3   0.575493 0.683397 0.387813 -0.573740
C149  C     C_3   0.537209 0.712007 0.382877 -0.293567
H81   H     H_    0.524116 0.736489 0.342452 0.191592
H82   H     H_    0.556272 0.730018 0.431899 0.155947
H83   H     H_    0.499280 0.694444 0.367202 0.150402
O54   O     O_3   0.424598 0.683584 0.611973 -0.573637
C150  C     C_3   0.462797 0.712171 0.616679 -0.293415
H84   H     H_    0.475905 0.736738 0.657004 0.191532
H85   H     H_    0.443650 0.730082 0.567557 0.155870
H86   H     H_    0.500730 0.694610 0.632362 0.150363
O55   O     O_3   0.075813 0.182753 0.387097 -0.574127
C151  C     C_3   0.037234 0.211436 0.381353 -0.293985
H87   H     H_    0.024196 0.235624 0.340590 0.191762
H88   H     H_    0.056000 0.229788 0.430023 0.156286
H89   H     H_    0.999318 0.193860 0.365702 0.150584
O56   O     O_3   0.924097 0.182578 0.613094 -0.574218
C152  C     C_3   0.962749 0.211283 0.619049 -0.294136
H90   H     H_    0.975771 0.235392 0.659903 0.191819
H91   H     H_    0.944059 0.229726 0.570474 0.156359
H92   H     H_    0.000663 0.193706 0.634691 0.150625
O57   O     O_3   0.867312 0.871762 0.608045 -0.571270
C153  C     C_3   0.839233 0.907929 0.608513 -0.277998
H93   H     H_    0.832523 0.901922 0.647030 0.194520
H94   H     H_    0.797586 0.912579 0.557701 0.153578
H95   H     H_    0.864467 0.938081 0.624175 0.152336
O58   O     O_3   0.132846 0.871862 0.392083 -0.571212
C154  C     C_3   0.160981 0.908039 0.391748 -0.277959
H96   H     H_    0.167772 0.902061 0.353299 0.194493
H97   H     H_    0.202595 0.912666 0.442613 0.153527
H98   H     H_    0.135752 0.938194 0.376078 0.152307
O59   O     O_3   0.367055 0.371923 0.607838 -0.571143
C155  C     C_3   0.338916 0.408117 0.608120 -0.278014
H99   H     H_    0.332059 0.402152 0.646511 0.194484
H100  H     H_    0.297333 0.412763 0.557223 0.153456
H101  H     H_    0.364177 0.438258 0.623839 0.152251
O60   O     O_3   0.632669 0.371744 0.391938 -0.571263
C156  C     C_3   0.660686 0.407932 0.391399 -0.278077
H102  H     H_    0.667440 0.401901 0.352928 0.194540
H103  H     H_    0.702310 0.412654 0.442214 0.153499
H104  H     H_    0.635381 0.438052 0.375631 0.152322

loop_
_geom_bond_atom_site_label_1
_geom_bond_atom_site_label_2
_ccdc_geom_bond_type
C99   C103  A    
C111  H35   S    
C55   C59   A    
C145  H71   S    
C38   H62   S    
C77   C101  A    
Cu5   O25   S    
C136  C140  A    
C68   H20   S    
C133  C137  A    
C24   O60   S    
C121  O37   A    
C123  O39   A    
C78   C102  A    
C29   C33   A    
C100  C104  A    
C94   H22   S    
N9    N13   A    
C113  O45   A    
Cu2   Cu6   S    
C109  H41   S    
C115  O47   A    
O56   C152  S    
C12   C135  S    
C3    C19   S    
C9    N2    A    
C92   O36   A    
C16   C44   S    
C108  C112  S    
C45   O25   A    
C4    O20   A    
C49   C69   A    
C40   H64   S    
C89   O33   A    
C90   O30   A    
C100  C115  S    
C51   C71   A    
C38   H58   S    
Cu10  O15   S    
C25   C29   A    
C62   H14   S    
C131  H39   S    
C153  H93   S    
C108  H28   S    
C27   C31   A    
C151  H89   S    
C120  O12   A    
C28   C32   A    
C155  H99   S    
C106  H30   S    
C118  O10   A    
C99   C116  S    
C154  H97   S    
C62   C66   A    
C12   N3    A    
O54   C150  S    
C98   C102  A    
C127  H3    S    
C110  H34   S    
C17   C21   A    
C135  C139  A    
C13   C33   A    
N5    N6    A    
C52   C72   A    
Cu9   O11   S    
C78   C82   A    
N3    N4    A    
Cu3   O3    S    
C68   C72   A    
Cu9   O6    S    
C80   C112  S    
C96   H24   S    
C156  H104  S    
C53   O49   S    
C73   N10   A    
C23   O59   S    
C129  C133  A    
C125  C129  A    
Cu9   O45   S    
C61   H13   S    
Cu3   O23   S    
C147  H75   S    
C47   O27   A    
C11   N7    A    
C108  H32   S    
Cu1   O37   S    
Cu6   O34   S    
Cu12  O7    S    
C57   C61   A    
C83   C91   S    
C59   C63   A    
C39   H59   S    
C60   C64   A    
C50   C70   A    
C11   C136  S    
C138  H46   S    
C66   C70   A    
Cu10  O12   S    
C3    O19   A    
C95   C99   A    
C142  H50   S    
C127  C131  A    
C154  H96   S    
C4    C20   S    
C61   C65   A    
Cu11  Cu12  S    
C126  C130  A    
C66   H18   S    
C103  C107  S    
C112  H44   S    
C49   C53   A    
C51   H11   S    
C155  H101  S    
C7    C143  A    
C124  O40   A    
Cu7   O19   S    
C146  H73   S    
Cu8   O28   S    
C21   C25   A    
C64   C68   A    
C71   C123  S    
C140  H48   S    
C113  O5    A    
C10   N6    A    
C152  H91   S    
C139  C143  A    
C8    C128  A    
C148  H79   S    
C87   C95   A    
C51   C55   A    
C147  H77   S    
C12   N8    A    
C82   C86   A    
C79   C103  A    
C121  O41   A    
C122  O38   A    
C124  O44   A    
C30   C34   A    
C90   O34   A    
C93   H21   S    
O58   C154  S    
C114  O46   A    
C30   C118  S    
C151  H88   S    
C74   N14   A    
Cu3   Cu7   S    
C119  O11   A    
C70   C122  S    
C45   O21   A    
C132  C136  A    
C40   H60   S    
O49   C145  S    
C75   N12   A    
C26   H54   S    
Cu4   O24   S    
C77   C109  S    
C2    O2    A    
Cu5   O17   S    
C54   O50   S    
C55   O51   S    
C26   C30   A    
Cu1   O21   S    
C72   C124  S    
C156  H103  S    
C93   C97   A    
Cu12  O13   S    
C105  C109  S    
C150  H86   S    
Cu5   O41   S    
C18   C22   A    
C125  H1    S    
C107  C111  S    
Cu4   Cu8   S    
C14   C34   A    
C42   H6    S    
C52   H12   S    
C1    C17   S    
C13   C17   A    
C15   C43   S    
C16   C36   A    
C84   C88   A    
C137  H45   S    
C96   C100  A    
Cu10  O46   S    
C37   C41   S    
C77   C81   A    
C41   H65   S    
C40   C44   S    
O60   C156  S    
C87   O55   S    
C5    C125  A    
Cu4   O4    S    
C84   C92   S    
C105  H25   S    
C97   C114  S    
Cu2   O38   S    
Cu7   O35   S    
C59   C76   S    
C4    O4    A    
C81   C85   A    
C43   H67   S    
Cu8   O44   S    
C58   C62   A    
C83   C87   A    
C88   C96   A    
C41   H5    S    
C110  H42   S    
C75   N15   A    
C10   C133  S    
C37   H61   S    
C80   C84   A    
C13   C41   S    
C130  C134  A    
C15   C19   A    
C50   C54   A    
C153  H94   S    
C80   C104  A    
C155  H100  S    
C54   C58   A    
O50   C146  S    
C92   O32   A    
Cu11  O14   S    
Cu12  O10   S    
C94   C98   A    
C129  H37   S    
C145  H69   S    
N10   N14   A    
Cu3   O31   S    
C143  H51   S    
C116  O8    A    
C67   H19   S    
C153  H95   S    
C50   H10   S    
C10   N1    A    
C44   H68   S    
C6    C142  A    
Cu6   O26   S    
C1    O17   A    
C81   C89   S    
C150  H84   S    
C37   H57   S    
C147  H76   S    
C115  O7    A    
Cu11  O9    S    
C11   N4    A    
C24   C28   A    
C6    C126  A    
C138  C142  A    
C146  H72   S    
C117  O9    A    
C98   C113  S    
C85   O53   S    
O53   C149  S    
C5    C45   S    
C33   C37   S    
C56   C60   A    
C7    C47   S    
C64   H16   S    
C35   C39   S    
O51   C147  S    
C8    C48   S    
C49   H9    S    
C112  H36   S    
C63   H15   S    
O59   C155  S    
Cu10  O5    S    
Cu2   O30   S    
C46   O26   A    
C74   N9    A    
C122  O42   A    
C31   C119  S    
Cu7   O27   S    
Cu8   O36   S    
C31   C35   A    
C32   C36   A    
C104  C108  S    
C39   H63   S    
C137  C141  A    
C149  H81   S    
C53   C57   A    
N11   N15   A    
C140  C144  A    
C130  H38   S    
C119  O15   A    
C154  H98   S    
C28   H56   S    
C60   C75   S    
C131  C135  A    
C82   C90   S    
C76   N16   A    
C91   O35   A    
C139  H47   S    
C79   C83   A    
C114  O6    A    
C56   O52   S    
C65   C69   A    
Cu2   O22   S    
C67   C71   A    
C152  H90   S    
O55   C151  S    
Cu4   O40   S    
C22   O58   S    
C148  H78   S    
C22   C26   A    
C123  O43   A    
C44   H8    S    
Cu1   Cu5   S    
Cu5   O33   S    
C144  H52   S    
C149  H83   S    
C43   H7    S    
C2    C18   S    
O57   C153  S    
C14   C18   A    
C19   C23   A    
Cu11  O8    S    
C89   O29   A    
C9    N5    A    
C38   C42   S    
C91   O31   A    
C48   O28   A    
C107  H31   S    
Cu1   O29   S    
Cu6   O42   S    
C105  H29   S    
C106  H26   S    
C118  O14   A    
C111  H43   S    
C20   C24   A    
C109  H33   S    
Cu4   O32   S    
C116  O48   A    
C23   C27   A    
C86   C94   A    
C88   O56   S    
C16   C20   A    
C14   C42   S    
C9    C134  S    
C117  O13   A    
C32   C120  S    
C128  C132  A    
C15   C35   A    
C86   O54   S    
C146  H74   S    
C141  H49   S    
C126  H2    S    
C101  C105  S    
C63   C67   A    
C150  H85   S    
C36   C40   S    
C39   C43   S    
C47   O23   A    
C29   C117  S    
C48   O24   A    
N12   N16   A    
C107  H27   S    
C57   C74   S    
C152  H92   S    
C120  O16   A    
C73   N13   A    
Cu7   O43   S    
Cu8   O20   S    
C5    C141  A    
C85   C93   A    
C69   C121  S    
C148  H80   S    
C27   H55   S    
N1    N2    A    
Cu1   O1    S    
C78   C110  S    
C3    O3    A    
C25   H53   S    
C1    O1    A    
C95   H23   S    
O52   C148  S    
C2    O18   A    
Cu9   O16   S    
Cu2   O2    S    
Cu11  O47   S    
C149  H82   S    
C21   O57   S    
Cu12  O48   S    
C128  H4    S    
C106  C110  S    
C6    C46   S    
C65   H17   S    
C34   C38   S    
C134  C138  A    
Cu3   O39   S    
C46   O22   A    
C79   C111  S    
C7    C127  A    
C151  H87   S    
C156  H102  S    
C42   H66   S    
Cu6   O18   S    
C102  C106  S    
C76   N11   A    
C145  H70   S    
C8    C144  A    
N7    N8    A    
C132  H40   S    
Cu9   Cu10  S    
C97   C101  A    
C52   C56   A    
C58   C73   S    
