data_mof_unit_22012.cif
_audit_creation_date              2012-12-10T17:33:45-0500
_audit_creation_method            fapswitch 2.2
_symmetry_space_group_name_H-M    P1
_symmetry_Int_Tables_number       1
_space_group_crystal_system       triclinic
_cell_length_a                    11.686919
_cell_length_b                    12.330634
_cell_length_c                    13.178823
_cell_angle_alpha                 116.626318
_cell_angle_beta                  77.906742
_cell_angle_gamma                 101.015527
_cell_volume                      1649.78481639

loop_
_atom_site_label
_atom_site_type_symbol
_atom_type_description
_atom_site_fract_x
_atom_site_fract_y
_atom_site_fract_z
_atom_type_partial_charge
C1    C     C_R   0.509467 0.854922 0.286602 0.765357
C2    C     C_R   0.459817 0.228293 0.834722 -0.047906
C3    C     C_R   0.583558 0.815780 0.084980 -0.188182
C4    C     C_R   0.605554 0.737190 0.969853 -0.146941
C5    C     C_R   0.564543 0.613929 0.932000 -0.188271
C6    C     C_R   0.496137 0.567065 0.008925 0.073619
C7    C     C_R   0.461795 0.650449 0.123554 0.060839
C8    C     C_R   0.460410 0.440306 0.975918 0.065326
C9    C     C_R   0.382287 0.400349 0.053722 0.151517
C10   C     C_R   0.338257 0.485454 0.160976 -0.248317
C11   C     C_R   0.375816 0.608724 0.194774 -0.206114
C12   C     C_R   0.715704 0.999477 0.499735 0.818822
C13   C     C_R   0.501289 0.351605 0.868276 -0.255357
C14   C     C_R   0.384813 0.189782 0.912921 -0.203247
C15   C     C_R   0.514501 0.773325 0.163451 -0.107917
C16   C     C_R   0.673658 0.332646 0.311937 0.384989
C17   C     C_R   0.344763 0.761171 0.647643 0.087736
C18   C     C_R   0.310847 0.664743 0.679031 -0.260039
C19   C     C_R   0.368546 0.559865 0.621503 -0.166074
C20   C     C_R   0.461842 0.550068 0.531272 0.018990
C21   C     C_R   0.493356 0.651355 0.502607 0.237065
C22   C     C_R   0.525195 0.444550 0.469463 -0.155199
C23   C     C_R   0.483350 0.145150 0.713434 0.794241
C24   C     C_R   0.614745 0.439082 0.375563 -0.038906
C25   C     C_R   0.643279 0.539466 0.347481 0.397170
C26   C     C_R   0.586675 0.644497 0.414450 -0.301785
C27   C     C_R   0.503509 0.343535 0.497622 0.028402
C28   C     C_R   0.650431 0.239768 0.348629 -0.046693
C29   C     C_R   0.284300 0.000384 0.500085 0.817416
C30   C     C_1   0.837344 0.998902 0.499723 -0.176151
C31   C     C_1   0.939984 0.999229 0.499662 0.007169
C32   C     C_1   0.060017 0.000087 0.499647 0.003331
C33   C     C_1   0.162663 0.000626 0.499756 -0.182244
C34   C     C_R   0.346904 0.275514 0.022366 -0.199638
Cu1   Cu    Cu3+1 0.526510 0.098270 0.475420 0.935822
Cu2   Cu    Cu3+1 0.473490 0.901730 0.524580 0.925749
H1    H     H_    0.351758 0.094428 0.888056 0.149288
H2    H     H_    0.437357 0.339889 0.566721 0.136140
H3    H     H_    0.299471 0.842212 0.692558 0.122925
H4    H     H_    0.337552 0.488045 0.649193 0.134973
H5    H     H_    0.239432 0.671162 0.748007 0.146228
H6    H     H_    0.620490 0.720432 0.395543 0.213856
H7    H     H_    0.274541 0.456638 0.219290 0.158562
H8    H     H_    0.287206 0.244579 0.081414 0.140146
H9    H     H_    0.564725 0.375859 0.807644 0.149427
H10   H     H_    0.623211 0.909621 0.112978 0.147398
H11   H     H_    0.586081 0.558504 0.841603 0.133188
H12   H     H_    0.658072 0.771294 0.909959 0.144075
H13   H     H_    0.334149 0.670601 0.276546 0.185989
H14   H     H_    0.697552 0.159937 0.303297 0.143604
N1    N     N_R   0.566700 0.246290 0.438210 -0.204347
N2    N     N_R   0.434010 0.754320 0.561170 -0.192728
O1    O     O_R   0.533340 0.972510 0.318140 -0.580393
O2    O     O_R   0.488570 0.806530 0.359650 -0.609751
O3    O     O_R   0.685190 0.083000 0.479260 -0.567529
O4    O     O_R   0.640410 0.917020 0.520770 -0.586598
O5    O     O_R   0.511430 0.193470 0.640350 -0.583826
O6    O     O_R   0.466660 0.027490 0.681860 -0.588650
O7    O     O_R   0.359590 0.082980 0.479230 -0.571970
O8    O     O_R   0.314810 0.917000 0.520740 -0.582148
O9    O     O_3   0.736505 0.540428 0.262723 -0.526818
C35   C     C_3   0.696562 0.556596 0.176734 0.096594
H15   H     H_    0.676188 0.651631 0.208263 0.136694
H16   H     H_    0.617370 0.491614 0.146772 0.136976
C36   C     C_3   0.793083 0.534233 0.074591 -0.756218
H17   H     H_    0.814092 0.438815 0.036650 0.248871
H18   H     H_    0.763162 0.550182 0.008281 0.200194
H19   H     H_    0.873673 0.597370 0.101898 0.249903
O10   O     O_3   0.759086 0.321176 0.218465 -0.528346
C37   C     C_3   0.714671 0.234811 0.116515 0.078802
H20   H     H_    0.663847 0.280441 0.087319 0.157918
H21   H     H_    0.656188 0.156168 0.126197 0.106026
C38   C     C_3   0.817093 0.182753 0.023827 -0.786797
H22   H     H_    0.864578 0.130671 0.048940 0.240047
H23   H     H_    0.783605 0.120425 0.941644 0.198856
H24   H     H_    0.879575 0.257173 0.011385 0.254856

loop_
_geom_bond_atom_site_label_1
_geom_bond_atom_site_label_2
_ccdc_geom_bond_type
C16   C28   A    
C23   O6    A    
C21   C26   A    
C8    C13   A    
Cu1   O1    S    
C38   H22   S    
C19   C20   A    
C7    C11   A    
C5    H11   S    
C11   H13   S    
Cu2   O6    S    
C5    C6    A    
C28   N1    A    
C27   H2    S    
C29   C33   S    
Cu1   O7    S    
C18   C19   A    
C17   H3    S    
C2    C13   A    
C1    O1    A    
C35   H16   S    
C28   H14   S    
Cu1   Cu2   S    
C8    C9    A    
C36   H18   S    
C37   H20   S    
C1    C15   S    
C9    C10   A    
Cu2   N2    S    
C7    C15   A    
C16   C24   A    
C38   H23   S    
O10   C37   S    
C17   N2    A    
C27   N1    A    
Cu1   O3    S    
C29   O7    A    
C34   H8    S    
C24   C25   A    
C19   H4    S    
C18   H5    S    
C6    C8    A    
C25   C26   A    
C1    O2    A    
C35   H15   S    
Cu2   O4    S    
C31   C32   S    
C29   O8    A    
C36   H19   S    
C37   C38   S    
C17   C18   A    
C25   O9    S    
C12   O4    A    
C20   C22   A    
C22   C27   A    
Cu1   N1    S    
C9    C34   A    
C38   H24   S    
C22   C24   A    
C3    C4    A    
C3    C15   A    
C26   H6    S    
C4    H12   S    
C23   O5    A    
C35   C36   S    
C12   C30   S    
C10   H7    S    
C16   O10   S    
C4    C5    A    
Cu2   O8    S    
C14   C34   A    
C6    C7    A    
C3    H10   S    
Cu1   O5    S    
C32   C33   T    
C14   H1    S    
C13   H9    S    
C30   C31   T    
O9    C35   S    
C2    C14   A    
C12   O3    A    
Cu2   O2    S    
C10   C11   A    
C20   C21   A    
C36   H17   S    
C2    C23   S    
C37   H21   S    
C21   N2    A    
