data_mof_unit_14510.cif
_audit_creation_date              2013-03-05T15:53:24-0500
_audit_creation_method            fapswitch 2.2
_symmetry_space_group_name_H-M    P1
_symmetry_Int_Tables_number       1
_space_group_crystal_system       triclinic
_cell_length_a                    10.680719
_cell_length_b                    10.715352
_cell_length_c                    16.932273
_cell_angle_alpha                 98.752749
_cell_angle_beta                  98.641462
_cell_angle_gamma                 61.340815
_cell_volume                      1673.96128849

loop_
_atom_site_label
_atom_site_type_symbol
_atom_site_description
_atom_site_fract_x
_atom_site_fract_y
_atom_site_fract_z
_atom_type_partial_charge
O1    O     O_R   0.751220 0.499230 0.435170 -0.523610
O2    O     O_R   0.477220 0.727600 0.436870 -0.508787
C1    C     C_R   0.355107 0.773958 0.398572 0.554623
O3    O     O_R   0.258650 0.745120 0.411470 -0.514444
O4    O     O_R   0.297070 0.467240 0.395960 -0.518171
C2    C     C_R   0.370557 0.346843 0.358852 0.532630
O5    O     O_R   0.488830 0.252610 0.387790 -0.492674
O6    O     O_R   0.724400 0.302390 0.420980 -0.488927
C3    C     C_R   0.779205 0.375438 0.402878 0.551138
O7    O     O_R   0.752100 0.501210 0.612190 -0.512160
O8    O     O_R   0.478040 0.729440 0.600970 -0.505590
C4    C     C_R   0.357353 0.769613 0.627663 0.606117
O9    O     O_R   0.259530 0.747110 0.588490 -0.466948
O10   O     O_R   0.297880 0.469080 0.560050 -0.487122
C5    C     C_R   0.365368 0.344296 0.583395 0.573649
O11   O     O_R   0.489720 0.254590 0.564810 -0.504417
O12   O     O_R   0.725220 0.304230 0.585080 -0.472149
C6    C     C_R   0.772343 0.380741 0.630014 0.594928
Cr1   Cr    Cr6+3 0.608340 0.611040 0.520430 1.044475
Cr2   Cr    Cr6+3 0.287650 0.601120 0.489350 1.059376
Cr3   Cr    Cr6+3 0.604040 0.287870 0.490280 1.077641
O13   O     O_3   0.500010 0.500010 0.500020 -0.274376
C7    C     C_1   0.343665 0.336399 0.275116 -0.041635
C8    C     C_1   0.331629 0.326498 0.203894 -0.026903
C9    C     C_3   0.780687 0.255952 0.206038 0.220354
C10   C     C_3   0.695253 0.397178 0.255221 -0.111017
H1    H     H_    0.580323 0.443750 0.265114 0.116485
C11   C     C_3   0.819427 0.347136 0.322033 0.029178
C12   C     C_3   0.901843 0.204237 0.273539 -0.129460
C13   C     C_3   0.975655 0.274454 0.237433 -0.161547
C14   C     C_3   0.892583 0.417366 0.287608 -0.124444
C15   C     C_3   0.769914 0.466797 0.219687 -0.160537
C16   C     C_3   0.851889 0.324901 0.170171 0.047989
H2    H     H_    0.950476 0.099600 0.298732 0.131263
H3    H     H_    0.090479 0.226656 0.227035 0.112172
H4    H     H_    0.940489 0.482394 0.323250 0.139256
H5    H     H_    0.719786 0.571720 0.194692 0.135313
C17   C     C_3   0.413428 0.711660 0.201645 -0.149701
C18   C     C_3   0.287918 0.741407 0.248861 -0.105756
H6    H     H_    0.248332 0.664079 0.253201 0.136703
H7    H     H_    0.472392 0.613662 0.161902 0.120436
C19   C     C_3   0.346696 0.812422 0.319517 0.059324
C20   C     C_3   0.473757 0.781279 0.273692 -0.114320
C21   C     C_3   0.382868 0.929406 0.241231 -0.116576
C22   C     C_3   0.257238 0.958799 0.288992 -0.157087
C23   C     C_3   0.197284 0.888917 0.217728 -0.105489
C24   C     C_3   0.323585 0.858074 0.171009 0.057368
H8    H     H_    0.586130 0.739705 0.300639 0.141201
H9    H     H_    0.422289 0.006252 0.235545 0.156428
H10   H     H_    0.198579 0.056504 0.328984 0.113139
H11   H     H_    0.083571 0.930648 0.193078 0.160386
C25   C     C_3   0.430872 0.225312 0.765253 -0.137729
C26   C     C_3   0.374962 0.373258 0.736229 0.169283
H12   H     H_    0.537801 0.165836 0.797783 0.179268
C27   C     C_3   0.323553 0.320701 0.654852 -0.000513
C28   C     C_3   0.378936 0.172073 0.683188 -0.150016
C29   C     C_3   0.231865 0.226135 0.713786 0.155723
C30   C     C_3   0.174751 0.373862 0.683173 -0.124495
C31   C     C_3   0.227846 0.424956 0.765884 0.172475
C32   C     C_3   0.283026 0.277267 0.795744 0.007045
H13   H     H_    0.438608 0.067953 0.648148 0.151988
H14   H     H_    0.070207 0.432574 0.648303 0.155748
C33   C     C_1   0.812913 0.345101 0.710567 0.080465
C34   C     C_1   0.837885 0.318838 0.779272 0.089475
C35   C     C_1   0.340886 0.807514 0.710689 0.076718
C36   C     C_1   0.317463 0.833242 0.779835 0.098852
O14   O     O_R   0.171830 0.913880 0.057510 -0.506943
O15   O     O_R   0.940690 0.186050 0.054730 -0.472076
C37   C     C_R   0.890720 0.311096 0.090115 0.565989
O16   O     O_R   0.920470 0.405720 0.075010 -0.520000
O17   O     O_R   0.196690 0.370460 0.084120 -0.507364
C38   C     C_R   0.319092 0.299467 0.120218 0.570738
O18   O     O_R   0.412990 0.180750 0.091610 -0.431963
O19   O     O_R   0.366620 0.943130 0.065760 -0.506370
C39   C     C_R   0.293988 0.892767 0.089061 0.546749
O20   O     O_R   0.160510 0.906330 0.879210 -0.438764
O21   O     O_R   0.930190 0.179050 0.889450 -0.466114
C40   C     C_R   0.881581 0.301118 0.861908 0.586133
O22   O     O_R   0.909140 0.398170 0.896710 -0.506521
O23   O     O_R   0.186190 0.363460 0.918830 -0.452840
C41   C     C_R   0.276190 0.251113 0.877297 0.596802
O24   O     O_R   0.401670 0.173200 0.913310 -0.496976
O25   O     O_R   0.356120 0.936130 0.900470 -0.526911
C42   C     C_R   0.282483 0.881093 0.860150 0.607922
Cr4   Cr    Cr6+3 0.054020 0.052700 0.970850 1.125617
Cr5   Cr    Cr6+3 0.059230 0.375120 0.993390 1.086093
Cr6   Cr    Cr6+3 0.374950 0.061200 0.992340 1.099578
O26   O     O_3   0.162740 0.163010 0.985530 -0.320275
Br1   Br    Br    0.482284 0.477840 0.758876 -0.545666
N1    N     N_R   0.152543 0.145600 0.697608 0.036619
O27   O     O_R   0.116337 0.111210 0.623995 -0.355629
O28   O     O_R   0.114003 0.111199 0.756374 -0.405752
Br2   Br    Br    0.116873 0.612099 0.820365 -0.406289
N2    N     N_R   0.717997 0.168229 0.162530 0.073788
O29   O     O_R   0.676220 0.102004 0.202133 -0.338512
O30   O     O_R   0.704730 0.154197 0.084544 -0.313072

loop_
_geom_bond_atom_site_label_1
_geom_bond_atom_site_label_2
_geom_bond_distance
_ccdc_geom_bond_type
C21   H9    1.110597 S    
C30   H14   1.110105 S    
O25   Cr6   1.945854 S    
Cr6   O26   1.982090 S    
C1    C19   1.437354 S    
C10   C15   1.551060 S    
O11   Cr3   2.056272 S    
C27   C28   1.536270 S    
O20   C42   1.279181 A    
C41   O24   1.304270 A    
C26   C31   1.531503 S    
O4    Cr2   1.946177 S    
O21   C40   1.288176 A    
C25   C26   1.533670 S    
O8    Cr1   1.938124 S    
C10   H1    1.110273 S    
C13   H3    1.110104 S    
O4    C2    1.267050 A    
C11   C12   1.528196 S    
C14   H4    1.110287 S    
C13   C14   1.543163 S    
O23   C41   1.305105 A    
Cr5   O26   1.986876 S    
C6    C33   1.419918 S    
C5    O11   1.263318 A    
C28   C29   1.533586 S    
O18   Cr6   2.066421 S    
O23   Cr5   1.937051 S    
C25   C32   1.544126 S    
O25   C42   1.262331 A    
O15   C37   1.266886 A    
C7    C8    1.187296 T    
O19   Cr6   1.942650 S    
C20   H8    1.109777 S    
C13   C16   1.544766 S    
C21   C24   1.536334 S    
C16   C37   1.442368 S    
O21   Cr4   1.945377 S    
C31   C32   1.538420 S    
Cr3   O13   1.986781 S    
O15   Cr4   1.940117 S    
C37   O16   1.267600 A    
C25   H12   1.110643 S    
O12   C6    1.263017 A    
C18   C19   1.536209 S    
C26   C27   1.533087 S    
C9    C12   1.532456 S    
O14   Cr4   2.064749 S    
O1    Cr1   2.056763 S    
C29   N1    1.448139 S    
O10   Cr2   1.942861 S    
Cr1   O13   1.987142 S    
O1    C3    1.263298 A    
C17   H7    1.109094 S    
O19   C39   1.267681 A    
C18   H6    1.111152 S    
C40   O22   1.253140 A    
O6    C3    1.271096 A    
C29   C32   1.533780 S    
C30   C31   1.551933 S    
O5    Cr3   2.067177 S    
C12   H2    1.108715 S    
O12   Cr3   1.946843 S    
C19   C22   1.516916 S    
C5    C27   1.446063 S    
C20   C21   1.546292 S    
C12   C13   1.554076 S    
O17   Cr5   1.947660 S    
C32   C41   1.469153 S    
N1    O28   1.294479 A    
C14   C15   1.544908 S    
O7    Cr1   2.064692 S    
O6    Cr3   1.937624 S    
C15   H5    1.108659 S    
N2    O30   1.300063 A    
C17   C24   1.518319 S    
C18   C23   1.531641 S    
Cr2   O13   1.982501 S    
C26   Br1   1.919918 S    
O14   C39   1.258218 A    
C19   C20   1.535706 S    
N1    O27   1.300392 A    
C1    O3    1.264142 A    
O16   Cr5   2.055584 S    
C21   C22   1.548182 S    
C8    C38   1.401600 S    
Cr4   O26   1.986893 S    
C23   C24   1.538898 S    
O9    Cr2   2.063228 S    
O2    Cr1   1.946195 S    
O10   C5    1.270602 A    
C34   C40   1.418205 S    
C11   C14   1.533296 S    
C38   O18   1.262301 A    
O8    C4    1.278585 A    
C2    O5    1.263531 A    
C4    C35   1.415712 S    
C10   C11   1.542044 S    
C15   C16   1.528739 S    
O2    C1    1.261266 A    
C9    C10   1.528560 S    
C24   C39   1.440819 S    
C17   C20   1.551714 S    
C29   C30   1.541093 S    
C17   C18   1.540274 S    
C25   C28   1.547468 S    
C22   H10   1.108934 S    
O7    C6    1.278835 A    
C2    C7    1.401953 S    
C23   H11   1.110314 S    
N2    O29   1.300284 A    
C36   C42   1.417256 S    
C33   C34   1.199196 T    
O3    Cr2   2.062484 S    
C22   C23   1.542580 S    
C9    N2    1.455803 S    
O17   C38   1.268414 A    
C4    O9    1.254775 A    
C35   C36   1.197070 T    
C27   C30   1.535543 S    
C28   H13   1.110442 S    
C31   Br2   1.939799 S    
O20   Cr4   2.059084 S    
O22   Cr5   2.065265 S    
O24   Cr6   2.060206 S    
C3    C11   1.440748 S    
C9    C16   1.518978 S    
