data_mof_unit_65036.cif
_audit_creation_date              2012-12-11T15:02:49-0500
_audit_creation_method            fapswitch 2.2
_symmetry_space_group_name_H-M    P1
_symmetry_Int_Tables_number       1
_space_group_crystal_system       triclinic
_cell_length_a                    13.265996
_cell_length_b                    13.271884
_cell_length_c                    26.784409
_cell_angle_alpha                 96.617995
_cell_angle_beta                  96.864414
_cell_angle_gamma                 61.213328
_cell_volume                      4094.35092614

loop_
_atom_site_label
_atom_site_type_symbol
_atom_type_description
_atom_site_fract_x
_atom_site_fract_y
_atom_site_fract_z
_atom_type_partial_charge
C1    C     C_R   0.378985 0.723060 0.434868 0.543931
C2    C     C_1   0.331849 0.341210 0.268068 0.019741
C3    C     C_1   0.345166 0.348347 0.321004 -0.033437
C4    C     C_1   0.363052 0.356886 0.365935 -0.003507
C5    C     C_3   0.937356 0.284907 0.272091 -0.093686
C6    C     C_3   0.904482 0.209481 0.231888 -0.113505
C7    C     C_1   0.892855 0.293585 0.102851 0.010297
C8    C     C_1   0.774255 0.364783 0.390019 -0.006331
C9    C     C_3   0.879741 0.386360 0.237079 -0.118849
C10   C     C_3   0.846578 0.311238 0.197644 0.091458
C11   C     C_3   0.762965 0.431076 0.260429 -0.102781
C12   C     C_R   0.394741 0.373298 0.417864 0.541574
C13   C     C_3   0.821057 0.328879 0.294510 -0.000647
C14   C     C_3   0.732798 0.354457 0.220968 0.264492
C15   C     C_3   0.787609 0.253380 0.255370 -0.101065
C16   C     C_1   0.865617 0.302653 0.144783 0.006595
C17   C     C_1   0.801771 0.344154 0.347608 -0.052303
C18   C     C_3   0.412250 0.869333 0.270085 -0.079112
C19   C     C_3   0.451549 0.768624 0.228698 -0.122362
C20   C     C_1   0.307246 0.885940 0.100827 0.017154
C21   C     C_1   0.362403 0.771870 0.388146 -0.007183
C22   C     C_3   0.300715 0.938191 0.236960 0.192955
C23   C     C_R   0.724696 0.399118 0.437147 0.543405
C24   C     C_3   0.339887 0.838188 0.196393 0.058010
C25   C     C_3   0.237182 0.886733 0.260983 -0.085230
C26   C     C_3   0.348845 0.817124 0.293241 0.020597
C27   C     C_3   0.276745 0.786058 0.219806 -0.124021
C28   C     C_3   0.388559 0.715927 0.252889 -0.110523
C29   C     C_1   0.327461 0.857460 0.143222 -0.007849
C30   C     C_1   0.354317 0.798690 0.346098 -0.048646
C31   C     C_3   0.328494 0.245545 0.720588 -0.131156
C32   C     C_3   0.415069 0.251894 0.763604 -0.088859
C33   C     C_1   0.296392 0.309646 0.887622 -0.004287
C34   C     C_R   0.381450 0.724573 0.575479 0.545867
C35   C     C_1   0.361550 0.359392 0.603513 0.008326
C36   C     C_3   0.226113 0.332999 0.751563 -0.117157
C37   C     C_3   0.312860 0.339935 0.793709 0.007875
C38   C     C_3   0.224160 0.434919 0.727402 -0.130248
C39   C     C_3   0.326073 0.347112 0.697167 0.078914
C40   C     C_3   0.310351 0.442073 0.770632 -0.090910
C41   C     C_3   0.410357 0.353836 0.739746 0.272516
C42   C     C_1   0.304986 0.328807 0.846186 -0.050159
C43   C     C_1   0.341150 0.351722 0.644831 -0.007989
C44   C     C_1   0.888542 0.294697 0.864836 -0.005691
C45   C     C_R   0.395498 0.375854 0.558116 0.548088
C46   C     C_1   0.860714 0.306498 0.820514 -0.044156
C47   C     C_1   0.837628 0.320438 0.768216 0.001427
C48   C     C_1   0.820583 0.333835 0.723657 0.016831
C49   C     C_1   0.798144 0.352738 0.671762 -0.021846
C50   C     C_1   0.771224 0.373067 0.628025 0.003782
C51   C     C_1   0.293387 0.893791 0.863152 -0.005587
C52   C     C_1   0.313094 0.866169 0.819491 -0.040965
C53   C     C_1   0.330723 0.842648 0.767587 0.000382
C54   C     C_1   0.342842 0.824740 0.722996 0.003296
C55   C     C_1   0.355355 0.800901 0.670707 -0.034898
C56   C     C_R   0.724144 0.403616 0.577654 0.545437
C57   C     C_1   0.366332 0.772741 0.626460 -0.001138
C58   C     C_R   0.941650 0.278311 0.056454 0.550065
C59   C     C_R   0.288100 0.271409 0.073235 0.551834
C60   C     C_R   0.271035 0.936873 0.053750 0.550919
C61   C     C_R   0.936721 0.279459 0.915965 0.542987
C62   C     C_R   0.281695 0.274302 0.933074 0.544618
C63   C     C_R   0.262731 0.941052 0.913316 0.541782
C64   C     C_1   0.305566 0.303244 0.125005 0.021614
C65   C     C_1   0.315327 0.321131 0.169865 -0.003821
C66   C     C_1   0.323883 0.334074 0.222784 0.031756
Cr1   Cr    Cr6+3 0.585520 0.589730 0.508860 1.038894
Cr2   Cr    Cr6+3 0.329140 0.580910 0.495080 1.038890
Cr3   Cr    Cr6+3 0.585350 0.329380 0.496090 1.044027
Cr4   Cr    Cr6+3 0.077110 0.074680 0.982320 1.044127
Cr5   Cr    Cr6+3 0.079190 0.334150 0.996330 1.042013
Cr6   Cr    Cr6+3 0.334370 0.081620 0.994860 1.048663
H1    H     H_    0.962853 0.118724 0.219409 0.137021
H2    H     H_    0.221932 0.751194 0.198506 0.119452
H3    H     H_    0.149520 0.936171 0.274835 0.119868
H4    H     H_    0.494430 0.178333 0.779085 0.118897
H5    H     H_    0.334929 0.165828 0.699506 0.118281
H6    H     H_    0.305184 0.521407 0.791605 0.117667
H7    H     H_    0.145634 0.508948 0.711699 0.120101
H8    H     H_    0.149119 0.324583 0.757447 0.126859
H9    H     H_    0.021731 0.256315 0.294208 0.161318
H10   H     H_    0.748556 0.199973 0.263390 0.118900
H11   H     H_    0.703642 0.521873 0.272480 0.109106
H12   H     H_    0.917804 0.440513 0.228853 0.127125
H13   H     H_    0.539106 0.719579 0.214731 0.125055
H14   H     H_    0.466689 0.904600 0.291409 0.132662
H15   H     H_    0.424939 0.623807 0.260381 0.116433
O1    O     O_R   0.700650 0.499560 0.456090 -0.505846
O2    O     O_R   0.338920 0.475010 0.540740 -0.495693
O3    O     O_R   0.494530 0.302750 0.544370 -0.498597
O4    O     O_R   0.682350 0.343320 0.552170 -0.488696
O5    O     O_3   0.500010 0.500010 0.500010 -0.255412
O6    O     O_R   0.170670 0.959150 0.034900 -0.504841
O7    O     O_R   0.983710 0.178390 0.033850 -0.490534
O8    O     O_R   0.965940 0.354890 0.046440 -0.504827
O9    O     O_R   0.187770 0.326880 0.051460 -0.495962
O10   O     O_R   0.362310 0.174000 0.055490 -0.495944
O11   O     O_R   0.326800 0.983030 0.039600 -0.488842
O12   O     O_R   0.479220 0.682850 0.457510 -0.494752
O13   O     O_R   0.165220 0.960770 0.926060 -0.505348
O14   O     O_R   0.978660 0.179890 0.932950 -0.494299
O15   O     O_R   0.960490 0.356500 0.937600 -0.504223
O16   O     O_R   0.182720 0.328380 0.950570 -0.495643
O17   O     O_R   0.356860 0.175610 0.946640 -0.505593
O18   O     O_R   0.321740 0.984530 0.938700 -0.495118
O19   O     O_3   0.163560 0.163490 0.991170 -0.256323
O20   O     O_R   0.304230 0.696360 0.445090 -0.505767
O21   O     O_R   0.337790 0.472640 0.439840 -0.495819
O22   O     O_R   0.493310 0.300190 0.435520 -0.505251
O23   O     O_R   0.681220 0.340950 0.451270 -0.496189
O24   O     O_R   0.701870 0.502110 0.564940 -0.505582
O25   O     O_R   0.480360 0.685220 0.558410 -0.492767
O26   O     O_R   0.305450 0.698920 0.553940 -0.502971
Br1   Br    Br    0.236955 0.099458 0.224804 -0.585309
O27   O     O_3   0.507160 0.364461 0.732055 -0.687422
H16   H     H_    0.545148 0.366148 0.766106 0.320169
O28   O     O_3   0.626679 0.390599 0.192987 -0.694083
H17   H     H_    0.569145 0.413130 0.218143 0.313503

loop_
_geom_bond_atom_site_label_1
_geom_bond_atom_site_label_2
_ccdc_geom_bond_type
C1    C21   S    
C34   O25   A    
C18   C26   S    
C24   C27   S    
C1    O12   A    
Cr4   O14   S    
C39   C41   S    
Cr6   O11   S    
C53   C54   T    
C34   O26   A    
Cr1   O1    S    
C18   H14   S    
C33   C42   T    
C36   C37   S    
Cr4   O7    S    
C37   C40   S    
C60   O11   A    
C38   C39   S    
C11   C14   S    
Cr5   O8    S    
C38   H7    S    
O27   H16   S    
C8    C23   S    
C18   C19   S    
C37   C42   S    
C24   C29   S    
C6    C15   S    
C54   C55   S    
Cr3   O22   S    
C56   O4    A    
C31   C32   S    
C44   C46   T    
C33   C62   S    
C22   C25   S    
C32   H4    S    
C34   C57   S    
C32   C41   S    
Cr2   O20   S    
C20   C60   S    
C27   H2    S    
C45   O2    A    
C9    C10   S    
C56   O24   A    
C5    C13   S    
Cr1   O12   S    
Cr2   O26   S    
C20   C29   T    
C60   O6    A    
C41   O27   S    
C19   H13   S    
C12   O22   A    
Cr4   O13   S    
C31   H5    S    
C15   H10   S    
C62   O17   A    
Cr6   O10   S    
C51   C52   T    
Cr4   O6    S    
C51   C63   S    
C36   H8    S    
C12   O21   A    
C40   C41   S    
C39   C43   S    
Cr5   O9    S    
Cr6   O17   S    
C11   H11   S    
C25   C26   S    
C50   C56   S    
C25   H3    S    
C61   O14   A    
C58   O8    A    
C5    C9    S    
C63   O13   A    
C45   O3    A    
C5    H9    S    
Cr3   O23   S    
C47   C48   T    
C14   C15   S    
C14   O28   S    
C28   H15   S    
Cr2   O2    S    
C59   C64   S    
C32   C37   S    
C19   C28   S    
C9    C11   S    
C1    O20   A    
Cr1   O24   S    
C48   C49   S    
Cr5   O15   S    
Cr6   O19   S    
C26   C30   S    
C23   O1    A    
C55   C57   T    
Cr4   O19   S    
C59   O10   A    
C22   C24   S    
C4    C12   S    
C59   O9    A    
C3    C4    T    
Cr3   O5    S    
C35   C43   T    
C52   C53   S    
C6    H1    S    
C62   O16   A    
C23   O23   A    
Cr5   O16   S    
C46   C47   S    
C7    C16   T    
C7    C58   S    
C18   C22   S    
C2    C66   T    
C6    C10   S    
C44   C61   S    
C25   C27   S    
C21   C30   T    
C26   C28   S    
C8    C17   T    
C13   C17   S    
C64   C65   T    
C13   C15   S    
C61   O15   A    
C58   O7    A    
C10   C16   S    
O28   H17   S    
C38   C40   S    
C11   C13   S    
C5    C6    S    
C36   C38   S    
Cr1   O5    S    
Cr2   O5    S    
C31   C39   S    
C19   C24   S    
C40   H6    S    
C65   C66   S    
C63   O18   A    
C9    H12   S    
Cr1   O25   S    
C22   Br1   S    
Cr6   O18   S    
C49   C50   T    
Cr5   O19   S    
C27   C28   S    
C31   C36   S    
C2    C3    S    
Cr2   O21   S    
Cr3   O4    S    
Cr3   O3    S    
C10   C14   S    
C35   C45   S    
