data_mof_unit_68274.cif
_audit_creation_date              2012-12-11T18:15:37-0500
_audit_creation_method            fapswitch 2.2
_symmetry_space_group_name_H-M    P1
_symmetry_Int_Tables_number       1
_space_group_crystal_system       triclinic
_cell_length_a                    20.113599
_cell_length_b                    20.927374
_cell_length_c                    8.425356
_cell_angle_alpha                 90.121514
_cell_angle_beta                  92.059831
_cell_angle_gamma                 89.932656
_cell_volume                      3544.13967459

loop_
_atom_site_label
_atom_site_type_symbol
_atom_type_description
_atom_site_fract_x
_atom_site_fract_y
_atom_site_fract_z
_atom_type_partial_charge
Ba1   Ba    Ba6+2 0.999980 0.452130 0.155200 1.852594
Ba2   Ba    Ba6+2 0.999980 0.547870 0.655200 1.832207
Ba3   Ba    Ba6+2 0.499980 0.952130 0.155200 1.852646
Ba4   Ba    Ba6+2 0.499980 0.047870 0.655200 1.832185
C1    C     C_3   0.938385 0.150267 0.350534 0.326202
C2    C     C_R   0.108260 0.667185 0.196001 -0.283934
C3    C     C_R   0.608185 0.832284 0.695866 -0.255116
C4    C     C_R   0.608260 0.167187 0.196003 -0.283938
C5    C     C_R   0.121201 0.282371 0.588940 -0.050521
C6    C     C_R   0.121613 0.716698 0.088884 -0.042809
C7    C     C_R   0.621208 0.782371 0.588939 -0.050990
C8    C     C_R   0.621614 0.216699 0.088884 -0.042791
C9    C     C_R   0.171287 0.237395 0.628420 0.327187
C10   C     C_R   0.172419 0.760845 0.127182 0.300345
C11   C     C_R   0.671297 0.737398 0.628417 0.328039
C12   C     C_3   0.935506 0.847916 0.857576 0.332087
C13   C     C_R   0.672421 0.260846 0.127181 0.300354
C14   C     C_R   0.209493 0.243461 0.771598 -0.002022
C15   C     C_R   0.209414 0.755924 0.272262 -0.060622
C16   C     C_R   0.709511 0.743472 0.771580 -0.002112
C17   C     C_R   0.709416 0.255924 0.272262 -0.060607
C18   C     C_R   0.201366 0.298061 0.872502 -0.068363
C19   C     C_R   0.201073 0.701774 0.373798 -0.080644
C20   C     C_R   0.701380 0.798070 0.872489 -0.068599
C21   C     C_R   0.701074 0.201774 0.373799 -0.080600
C22   C     C_R   0.797109 0.697135 0.951183 -0.124673
C23   C     C_3   0.438394 0.650263 0.350323 0.326140
C24   C     C_R   0.796203 0.303347 0.452270 -0.073390
C25   C     C_R   0.297093 0.197124 0.951197 -0.124512
C26   C     C_R   0.296196 0.803351 0.452280 -0.073387
C27   C     C_R   0.787842 0.749762 0.053824 -0.028096
C28   C     C_R   0.786578 0.251380 0.556102 -0.018362
C29   C     C_R   0.287829 0.249752 0.053835 -0.028016
C30   C     C_R   0.286568 0.751386 0.556116 -0.018307
C31   C     C_R   0.846195 0.649067 0.994242 -0.035736
C32   C     C_R   0.845440 0.351503 0.494279 0.017464
C33   C     C_R   0.346187 0.149062 0.994246 -0.035791
C34   C     C_3   0.435496 0.347908 0.857551 0.332078
C35   C     C_R   0.345431 0.851508 0.494292 0.017450
C36   C     C_R   0.883161 0.656162 0.137381 -0.211176
C37   C     C_R   0.881075 0.345843 0.639272 -0.232508
C38   C     C_R   0.383157 0.156160 0.137379 -0.211201
C39   C     C_R   0.381053 0.845857 0.639304 -0.232424
C40   C     C_3   0.983149 0.194130 0.843904 0.643835
C41   C     C_3   0.987687 0.809460 0.357233 0.581773
C42   C     C_3   0.483115 0.694161 0.843686 0.643605
C43   C     C_3   0.487683 0.309455 0.357225 0.581771
C44   C     C_R   0.870254 0.706120 0.241505 0.067423
C45   C     C_R   0.150125 0.345361 0.829477 0.085416
C46   C     C_R   0.867247 0.296995 0.744597 0.029566
C47   C     C_R   0.370248 0.206116 0.241506 0.067451
C48   C     C_R   0.367220 0.797014 0.744636 0.029568
C49   C     C_R   0.822230 0.751008 0.202184 0.001955
C50   C     C_R   0.820027 0.251504 0.705451 0.013719
C51   C     C_R   0.322220 0.251001 0.202190 0.001927
C52   C     C_R   0.320008 0.751516 0.705477 0.013755
C53   C     C_R   0.757828 0.695518 0.810267 -0.027494
C54   C     C_R   0.756548 0.304690 0.312499 0.034549
C55   C     C_R   0.257802 0.195500 0.810295 -0.027394
C56   C     C_R   0.149936 0.654450 0.330243 0.079660
C57   C     C_R   0.256544 0.804691 0.312503 0.034561
C58   C     C_3   0.044189 0.156964 0.908332 0.606272
C59   C     C_3   0.038698 0.858489 0.424491 0.665821
C60   C     C_3   0.544284 0.657136 0.907950 0.606029
C61   C     C_3   0.538685 0.358493 0.424475 0.665815
C62   C     C_3   0.759315 0.516366 0.987043 0.617587
C63   C     C_3   0.778899 0.511389 0.475558 0.566214
C64   C     C_3   0.259331 0.016338 0.987031 0.617640
C65   C     C_3   0.278898 0.011392 0.475540 0.566113
C66   C     C_3   0.691707 0.548431 0.958955 0.254959
C67   C     C_R   0.650132 0.845364 0.829472 0.085637
C68   C     C_3   0.708641 0.494362 0.524214 0.223326
C69   C     C_3   0.191710 0.048386 0.959001 0.255198
C70   C     C_3   0.208643 0.994360 0.524208 0.223400
C71   C     C_3   0.204609 0.526945 0.035277 0.641147
C72   C     C_3   0.207619 0.475022 0.536347 0.634759
C73   C     C_3   0.704603 0.026946 0.035283 0.641146
C74   C     C_3   0.707622 0.975024 0.536349 0.634753
C75   C     C_3   0.273847 0.558396 0.065190 0.961387
C76   C     C_3   0.277426 0.443988 0.565924 0.988263
C77   C     C_3   0.773840 0.058398 0.065203 0.961414
C78   C     C_R   0.649935 0.154451 0.330244 0.079668
C79   C     C_3   0.777431 0.943993 0.565928 0.988287
C80   C     C_3   0.971834 0.214978 0.376791 0.381287
C81   C     C_3   0.970487 0.783790 0.882422 0.393788
C82   C     C_3   0.471836 0.714973 0.376638 0.381300
C83   C     C_3   0.470481 0.283784 0.882398 0.393821
C84   C     C_R   0.246070 0.301651 0.007865 0.410029
C85   C     C_R   0.244825 0.699260 0.511337 0.411212
C86   C     C_R   0.746082 0.801660 0.007855 0.409994
C87   C     C_R   0.744828 0.199257 0.511333 0.411185
C88   C     C_R   0.108179 0.332284 0.695866 -0.255432
Cl1   Cl    Cl    0.644334 0.547294 0.133515 -0.596038
Cl2   Cl    Cl    0.339922 0.500974 0.620203 -0.508479
Cl3   Cl    Cl    0.827994 0.009095 0.182976 -0.525933
Cl4   Cl    Cl    0.839926 0.000982 0.620191 -0.508544
Cl5   Cl    Cl    0.265147 0.373232 0.105290 -0.553327
Cl6   Cl    Cl    0.260722 0.629401 0.618916 -0.559916
Cl7   Cl    Cl    0.765149 0.873240 0.105297 -0.553290
Cl8   Cl    Cl    0.760716 0.129401 0.618928 -0.560066
Cl9   Cl    Cl    0.745092 0.434329 0.017258 -0.524652
Cl10  Cl    Cl    0.779704 0.592498 0.416278 -0.676993
Cl11  Cl    Cl    0.245152 0.934288 0.017155 -0.524558
Cl12  Cl    Cl    0.706954 0.419271 0.622257 -0.619275
Cl13  Cl    Cl    0.279693 0.092500 0.416240 -0.677193
Cl14  Cl    Cl    0.144262 0.047037 0.133431 -0.595757
Cl15  Cl    Cl    0.206962 0.919273 0.622270 -0.619193
Cl16  Cl    Cl    0.152691 0.581327 0.933288 -0.689309
Cl17  Cl    Cl    0.154917 0.418805 0.441887 -0.692547
Cl18  Cl    Cl    0.652686 0.081327 0.933288 -0.689293
Cl19  Cl    Cl    0.654922 0.918805 0.441892 -0.692584
Cl20  Cl    Cl    0.328005 0.509086 0.182935 -0.525974
H1    H     H_    0.944064 0.250897 0.303670 -0.001832
H2    H     H_    0.689904 0.531598 0.604944 0.075537
H3    H     H_    0.162644 0.023526 0.863296 0.163072
H4    H     H_    0.189903 0.031603 0.604917 0.075253
H5    H     H_    0.182950 0.514192 0.149439 -0.002502
H6    H     H_    0.187332 0.489367 0.651181 0.011976
H7    H     H_    0.682942 0.014193 0.149441 -0.002519
H8    H     H_    0.687335 0.989370 0.651183 0.011982
H9    H     H_    0.968771 0.228290 0.503854 -0.058920
H10   H     H_    0.967407 0.769507 0.008777 -0.040827
H11   H     H_    0.468727 0.728287 0.503687 -0.059308
H12   H     H_    0.943813 0.747785 0.807079 -0.007537
H13   H     H_    0.467392 0.269495 0.008745 -0.040819
H14   H     H_    0.886543 0.152761 0.392070 0.082142
H15   H     H_    0.883647 0.844038 0.898008 0.064627
H16   H     H_    0.386529 0.652765 0.391713 0.082106
H17   H     H_    0.383635 0.344025 0.897967 0.064613
H18   H     H_    0.068713 0.365698 0.664963 0.073292
H19   H     H_    0.068701 0.633911 0.165092 0.079131
H20   H     H_    0.568716 0.865695 0.664967 0.073233
H21   H     H_    0.568700 0.133913 0.165095 0.079129
H22   H     H_    0.812506 0.787185 0.290197 0.143442
H23   H     H_    0.444093 0.750892 0.303464 -0.001604
H24   H     H_    0.810455 0.215928 0.794688 0.140034
H25   H     H_    0.312496 0.287177 0.290204 0.143446
H26   H     H_    0.310438 0.715937 0.794708 0.140026
H27   H     H_    0.920400 0.620940 0.171554 0.055116
H28   H     H_    0.918302 0.381072 0.673385 0.046591
H29   H     H_    0.420401 0.120941 0.171545 0.055122
H30   H     H_    0.418280 0.881087 0.673419 0.046571
H31   H     H_    0.763123 0.655125 0.732054 0.183609
H32   H     H_    0.761532 0.344890 0.235454 0.212696
H33   H     H_    0.263090 0.155101 0.732093 0.183443
H34   H     H_    0.443816 0.247780 0.807034 -0.007522
H35   H     H_    0.261527 0.844893 0.235460 0.212695
H36   H     H_    0.936637 0.138482 0.221697 0.065904
H37   H     H_    0.933751 0.860202 0.729222 0.066064
H38   H     H_    0.436709 0.638467 0.221492 0.066071
H39   H     H_    0.433746 0.360198 0.729200 0.066066
H40   H     H_    0.002297 0.234363 0.772180 -0.068632
H41   H     H_    0.015653 0.770303 0.299583 -0.110933
H42   H     H_    0.502136 0.734407 0.771813 -0.069154
H43   H     H_    0.515655 0.270297 0.299597 -0.110891
H44   H     H_    0.027986 0.124007 0.003163 0.114401
H45   H     H_    0.698240 0.598577 0.924289 -0.016761
H46   H     H_    0.011457 0.895565 0.490954 0.108528
H47   H     H_    0.528192 0.624076 0.002668 0.114689
H48   H     H_    0.511437 0.395570 0.490911 0.108497
H49   H     H_    0.784535 0.536527 0.095111 0.029756
H50   H     H_    0.814420 0.504928 0.577006 0.053677
H51   H     H_    0.284549 0.036493 0.095106 0.029648
H52   H     H_    0.314422 0.004939 0.576985 0.053746
H53   H     H_    0.257977 0.650617 0.069125 0.305670
H54   H     H_    0.261459 0.358308 0.644536 0.270413
H55   H     H_    0.757974 0.150621 0.069103 0.305688
H56   H     H_    0.674270 0.491726 0.418946 0.198811
H57   H     H_    0.761475 0.858314 0.644559 0.270382
H58   H     H_    0.345567 0.592617 0.944795 0.323406
H59   H     H_    0.338838 0.389067 0.457485 0.307441
H60   H     H_    0.845568 0.092606 0.944825 0.323320
H61   H     H_    0.838843 0.889069 0.457496 0.307445
H62   H     H_    0.950346 0.062151 0.411569 0.374810
H63   H     H_    0.943258 0.935579 0.926476 0.366303
H64   H     H_    0.450315 0.562153 0.411448 0.374841
H65   H     H_    0.443235 0.435569 0.926471 0.366261
H66   H     H_    0.081046 0.148922 0.698818 0.319197
H67   H     H_    0.198221 0.098575 0.924655 -0.017040
H68   H     H_    0.094751 0.856362 0.240828 0.304252
H69   H     H_    0.580516 0.649128 0.697694 0.319345
H70   H     H_    0.594757 0.356358 0.240854 0.304236
H71   H     H_    0.147173 0.178512 0.454746 0.347772
H72   H     H_    0.150881 0.819197 0.952180 0.370323
H73   H     H_    0.647199 0.678530 0.454688 0.347865
H74   H     H_    0.650889 0.319192 0.952163 0.370311
H75   H     H_    0.934030 0.115377 0.801749 0.341568
H76   H     H_    0.924126 0.875684 0.292972 0.341419
H77   H     H_    0.434144 0.615301 0.801873 0.341378
H78   H     H_    0.174269 0.991714 0.418949 0.198834
H79   H     H_    0.424106 0.375659 0.292934 0.341424
H80   H     H_    0.122801 0.175687 0.040471 0.348871
H81   H     H_    0.108236 0.795983 0.473080 0.275021
H82   H     H_    0.623050 0.675955 0.039390 0.348724
H83   H     H_    0.608224 0.295994 0.473117 0.275046
H84   H     H_    0.662589 0.523505 0.863441 0.163132
O1    O     O_2   0.130070 0.404060 0.104920 -0.372968
O2    O     O_3   0.950200 0.786594 0.483079 -0.650521
O3    O     O_3   0.446516 0.714839 0.973564 -0.649051
O4    O     O_3   0.450192 0.286593 0.483069 -0.650551
O5    O     O_3   0.924190 0.533610 0.949240 -0.471827
O6    O     O_3   0.924190 0.466390 0.449240 -0.497302
O7    O     O_3   0.424190 0.033610 0.949240 -0.471834
O8    O     O_3   0.424190 0.966390 0.449240 -0.497305
O9    O     O_3   0.075780 0.466370 0.861070 -0.481391
O10   O     O_3   0.075780 0.533630 0.361070 -0.479085
O11   O     O_3   0.575780 0.966370 0.861070 -0.481411
O12   O     O_2   0.130070 0.595940 0.604920 -0.379056
O13   O     O_3   0.575780 0.033630 0.361070 -0.479087
O14   O     O_3   0.022320 0.344950 0.359800 -0.470593
O15   O     O_3   0.022320 0.655050 0.859800 -0.470364
O16   O     O_3   0.522320 0.844950 0.359800 -0.470613
O17   O     O_3   0.522320 0.155050 0.859800 -0.470368
O18   O     O_2   0.130663 0.291801 0.257576 -0.381485
O19   O     O_2   0.129390 0.709638 0.756202 -0.390702
O20   O     O_2   0.630670 0.791811 0.257592 -0.381352
O21   O     O_2   0.629388 0.209641 0.756201 -0.390714
O22   O     O_3   0.209829 0.473354 0.937104 -0.552886
O23   O     O_2   0.630070 0.904060 0.104920 -0.372943
O24   O     O_3   0.210754 0.527496 0.434372 -0.559910
O25   O     O_3   0.709826 0.973357 0.937109 -0.552897
O26   O     O_3   0.710754 0.027498 0.434371 -0.559909
O27   O     O_3   0.038301 0.211494 0.331051 -0.582345
O28   O     O_3   0.037057 0.788838 0.838670 -0.548532
O29   O     O_3   0.538321 0.711488 0.331034 -0.582110
O30   O     O_3   0.537055 0.288840 0.838679 -0.548543
O31   O     O_2   0.869860 0.403670 0.205810 -0.407869
O32   O     O_2   0.869860 0.596330 0.705810 -0.431224
O33   O     O_2   0.369860 0.903670 0.205810 -0.407886
O34   O     O_2   0.630070 0.095940 0.604920 -0.379042
O35   O     O_2   0.369860 0.096330 0.705810 -0.431196
O36   O     O_3   0.977590 0.344880 0.951200 -0.486507
O37   O     O_3   0.977590 0.655120 0.451200 -0.490056
O38   O     O_3   0.477590 0.844880 0.951200 -0.486391
O39   O     O_3   0.477590 0.155120 0.451200 -0.490069
O40   O     O_2   0.865893 0.300560 0.073047 -0.457455
O41   O     O_2   0.867133 0.700709 0.569313 -0.437474
O42   O     O_2   0.365908 0.800538 0.073124 -0.457608
O43   O     O_2   0.367130 0.200706 0.569313 -0.437439
O44   O     O_3   0.267448 0.616311 0.147961 -0.784725
O45   O     O_3   0.795179 0.476057 0.341978 -0.597758
O46   O     O_3   0.274740 0.400108 0.691222 -0.766680
O47   O     O_3   0.767438 0.116318 0.147953 -0.784729
O48   O     O_3   0.774748 0.900118 0.691237 -0.766670
O49   O     O_3   0.303919 0.568751 0.920154 -0.624191
O50   O     O_3   0.297705 0.413104 0.427990 -0.639724
O51   O     O_3   0.803917 0.068746 0.920172 -0.624221
O52   O     O_3   0.797708 0.913105 0.427999 -0.639728
O53   O     O_3   0.973913 0.102920 0.434820 -0.618234
O54   O     O_3   0.969514 0.895839 0.943557 -0.602560
O55   O     O_3   0.473878 0.602921 0.434729 -0.618464
O56   O     O_3   0.797238 0.520504 0.850685 -0.660239
O57   O     O_3   0.469495 0.395832 0.943550 -0.602641
O58   O     O_3   0.072400 0.120026 0.788674 -0.695254
O59   O     O_3   0.072021 0.889591 0.302904 -0.629584
O60   O     O_3   0.572656 0.620361 0.788196 -0.696069
O61   O     O_3   0.572011 0.389588 0.302885 -0.629675
O62   O     O_3   0.185208 0.187032 0.528749 -0.686307
O63   O     O_3   0.189574 0.807878 0.021813 -0.652484
O64   O     O_3   0.685215 0.687028 0.528762 -0.686053
O65   O     O_3   0.689578 0.307879 0.021813 -0.652497
O66   O     O_3   0.942739 0.155526 0.743967 -0.712858
O67   O     O_3   0.295179 0.976056 0.341966 -0.597776
O68   O     O_3   0.945427 0.838486 0.242441 -0.724275
O69   O     O_3   0.442732 0.655447 0.743964 -0.712828
O70   O     O_3   0.445426 0.338471 0.242413 -0.724292
O71   O     O_3   0.091101 0.200409 0.971993 -0.751892
O72   O     O_3   0.084442 0.829549 0.531773 -0.635862
O73   O     O_3   0.591035 0.700681 0.971830 -0.751256
O74   O     O_3   0.584426 0.329565 0.531783 -0.635879
O75   O     O_3   0.297238 0.020509 0.850656 -0.660305
O76   O     O_3   0.946515 0.214841 0.973689 -0.649298
P1    P     P_3+3 0.136530 0.426510 0.931350 1.125781
P2    P     P_3+3 0.915226 0.712242 0.433836 1.019881
P3    P     P_3+3 0.412793 0.790359 0.934620 1.018693
P4    P     P_3+3 0.415222 0.212238 0.433834 1.019879
P5    P     P_3+3 0.078329 0.717457 0.888231 1.074966
P6    P     P_3+3 0.078745 0.282620 0.387005 1.057709
P7    P     P_3+3 0.578328 0.217459 0.888232 1.074943
P8    P     P_3+3 0.578748 0.782621 0.387008 1.057771
P9    P     P_3+3 0.136530 0.573490 0.431350 1.120067
P10   P     P_3+3 0.636530 0.926510 0.931350 1.125800
P11   P     P_3+3 0.636530 0.073490 0.431350 1.120067
P12   P     P_3+3 0.863410 0.426100 0.379280 1.036210
P13   P     P_3+3 0.863410 0.573900 0.879280 0.981658
P14   P     P_3+3 0.363410 0.926100 0.379280 1.036186
P15   P     P_3+3 0.363410 0.073900 0.879280 0.981638
P16   P     P_3+3 0.912802 0.290353 0.934603 1.018515

loop_
_geom_bond_atom_site_label_1
_geom_bond_atom_site_label_2
_ccdc_geom_bond_type
Ba3   O13   S    
Ba3   P14   S    
O3    P3    S    
O37   P2    S    
O17   P7    S    
C29   C51   A    
C80   H1    S    
O39   P4    S    
C83   H34   S    
C68   H2    S    
Ba3   O7    S    
C77   O51   S    
C15   C19   A    
O41   P2    D    
Ba2   O6    S    
C64   Cl11  S    
O35   P15   D    
O56   P13   S    
C33   P15   S    
H64   O55   S    
C63   O45   S    
O6    P12   S    
O12   P9    D    
C65   O67   S    
O27   P6    S    
C62   C66   S    
C3    C7    A    
C79   O48   S    
O8    P14   S    
Ba2   O15   S    
O14   P6    S    
C60   O60   S    
C75   Cl20  S    
C4    C78   A    
C75   O49   S    
C43   C61   S    
O25   P10   S    
C29   C84   A    
C15   C57   A    
C81   O28   S    
Ba1   Ba2   S    
C42   O3    S    
C10   O63   S    
Ba3   O38   S    
C40   O66   S    
C77   Cl3   S    
C39   C48   A    
Ba4   O8    S    
C28   C87   A    
C78   P11   S    
C36   H27   S    
O9    P1    S    
Ba4   P11   S    
C52   H26   S    
C81   H12   S    
C36   C44   A    
C63   C68   S    
C27   C86   A    
C33   C38   A    
C5    C9    A    
C37   H28   S    
C23   O55   S    
Ba2   O37   S    
C70   Cl15  S    
C70   H78   S    
C48   C52   A    
C7    C11   A    
C74   C79   S    
Ba3   P10   S    
C59   O59   S    
C69   H3    S    
C25   C55   A    
C25   C29   A    
C58   H44   S    
C72   Cl17  S    
O23   P10   D    
C71   H5    S    
C8    C13   A    
C31   P13   S    
H58   O49   S    
O24   P9    S    
O40   P16   D    
C18   C84   A    
C87   Cl8   S    
C48   P3    S    
C59   O72   S    
C63   Cl10  S    
Ba1   P1    S    
C84   Cl5   S    
C38   C47   A    
C40   O76   S    
H71   O62   S    
C4    H21   S    
C45   P1    S    
C22   C27   A    
H74   O65   S    
O67   P14   S    
O43   P4    D    
O31   P12   D    
Ba3   O8    S    
O20   P8    D    
C62   Cl9   S    
H77   O69   S    
C32   C37   A    
C44   C49   A    
Ba2   O5    S    
C75   O44   S    
O36   P16   S    
C61   H48   S    
C30   C52   A    
Ba1   O6    S    
O32   P13   D    
C5    C88   A    
C28   C50   A    
C22   C53   A    
H68   O59   S    
Ba2   P9    S    
C35   P14   S    
C65   C70   S    
C19   C56   A    
C42   H42   S    
C62   O56   S    
C21   C87   A    
Ba4   P15   S    
C86   Cl7   S    
C26   C30   A    
H59   O50   S    
Ba2   O32   S    
O28   P5    S    
H72   O63   S    
Ba4   O35   S    
C2    C56   A    
C24   C28   A    
C66   Cl1   S    
C32   P12   S    
C64   O75   S    
C6    C10   A    
H82   O73   S    
C1    C80   S    
C65   Cl13  S    
O26   P11   S    
H63   O54   S    
C35   C39   A    
C68   Cl12  S    
C71   O22   S    
C40   C58   S    
C41   O2    S    
O4    P4    S    
C85   Cl6   S    
O34   P11   D    
C41   C59   S    
C13   C17   A    
O38   P3    S    
C62   H49   S    
C74   Cl19  S    
C11   C16   A    
O15   P5    S    
H80   O71   S    
Ba4   O34   S    
C37   C46   A    
C1    H14   S    
C23   C82   S    
C74   H8    S    
C9    O62   S    
C34   H17   S    
C61   O74   S    
H69   O60   S    
C1    O53   S    
C58   O71   S    
O1    P1    D    
C23   H16   S    
C14   C55   A    
H73   O64   S    
C73   C77   S    
C4    C8    A    
C83   O30   S    
C50   H24   S    
C38   H29   S    
C19   C85   A    
C81   H10   S    
O10   P9    S    
Ba2   O9    S    
C46   C50   A    
C27   C49   A    
Ba1   O10   S    
C8    P7    S    
C3    H20   S    
C12   H37   S    
C51   H25   S    
C74   O26   S    
Ba2   P13   S    
C40   H40   S    
C9    C14   A    
C79   O52   S    
C73   O25   S    
C82   H11   S    
O33   P14   D    
O22   P1    S    
H55   O47   S    
C18   C45   A    
C12   C81   S    
H54   O46   S    
Ba4   O39   S    
C76   O50   S    
C5    P6    S    
C41   H41   S    
C20   C67   A    
C45   C88   A    
C76   Cl2   S    
O42   P3    D    
O5    P13   S    
C34   H39   S    
C83   H13   S    
C63   H50   S    
H61   O52   S    
Ba4   O11   S    
C47   P4    S    
C71   Cl16  S    
C64   H51   S    
O7    P15   S    
Ba3   O16   S    
C58   O58   S    
H70   O61   S    
C17   C21   A    
C61   O61   S    
H53   O44   S    
C12   O54   S    
Ba4   O17   S    
C46   P16   S    
Ba1   O14   S    
C14   C18   A    
H81   O72   S    
Ba4   O7    S    
C10   C15   A    
O2    P2    S    
C67   P10   S    
Ba1   O1    S    
C49   H22   S    
C72   C76   S    
C2    H19   S    
C73   H7    S    
C80   O27   S    
C20   C86   A    
C2    C6    A    
Ba1   P12   S    
C59   H46   S    
C24   C54   A    
H62   O53   S    
O75   P15   S    
H66   O58   S    
C43   O70   S    
O45   P12   S    
C23   H38   S    
H65   O57   S    
Ba1   O5    S    
H76   O68   S    
H75   O66   S    
O76   P16   S    
O13   P11   S    
C34   C83   S    
C66   H45   S    
C77   O47   S    
O18   P6    D    
C31   C36   A    
C57   H35   S    
C30   C85   A    
C17   C54   A    
C70   H4    S    
O11   P10   S    
C3    C67   A    
Ba1   O36   S    
Ba1   O31   S    
C69   Cl14  S    
C21   C78   A    
C43   H43   S    
C72   O24   S    
C42   O69   S    
C79   Cl4   S    
C41   O68   S    
C60   H47   S    
H79   O70   S    
O29   P8    S    
C76   O46   S    
C26   C35   A    
H60   O51   S    
C47   C51   A    
O30   P7    S    
C56   P9    S    
C6    P5    S    
C13   O65   S    
C73   Cl18  S    
C43   O4    S    
C12   H15   S    
C72   H6    S    
Ba3   O33   S    
C60   O73   S    
C64   C69   S    
C69   H67   S    
C54   H32   S    
C22   C31   A    
O21   P7    D    
C34   O57   S    
Ba2   O12   S    
C24   C32   A    
C53   H31   S    
Ba3   O23   S    
C7    P8    S    
O19   P5    D    
C26   C57   A    
C25   C33   A    
C68   H56   S    
C1    H36   S    
C82   O29   S    
C88   H18   S    
C39   H30   S    
H57   O48   S    
C42   C60   S    
C66   H84   S    
C16   C53   A    
H83   O74   S    
C71   C75   S    
C82   H23   S    
C16   C20   A    
C11   O64   S    
Ba3   Ba4   S    
C65   H52   S    
O16   P8    S    
C80   H9    S    
C55   H33   S    
C44   P2    S    
