data_mof_unit_10458.cif
_audit_creation_date              2013-03-05T16:35:52-0500
_audit_creation_method            fapswitch 2.2
_symmetry_space_group_name_H-M    P1
_symmetry_Int_Tables_number       1
_space_group_crystal_system       triclinic
_cell_length_a                    23.501653
_cell_length_b                    9.076694
_cell_length_c                    7.784664
_cell_angle_alpha                 90.132502
_cell_angle_beta                  89.978939
_cell_angle_gamma                 89.938665
_cell_volume                      1660.5980996

loop_
_atom_site_label
_atom_site_type_symbol
_atom_site_description
_atom_site_fract_x
_atom_site_fract_y
_atom_site_fract_z
_atom_type_partial_charge
O1    O     O_R   0.500000 0.288390 0.642760 -0.579063
O2    O     O_R   0.500000 0.711610 0.357240 -0.578918
O3    O     O_R   0.500000 0.711610 0.642760 -0.576792
O4    O     O_R   0.500000 0.288390 0.357240 -0.574373
C1    C     C_R   0.499815 0.220036 0.499877 0.828610
C2    C     C_R   0.499965 0.779961 0.500115 0.833478
O5    O     O_R   0.417880 0.500000 0.642820 -0.577592
O6    O     O_R   0.582120 0.500000 0.357180 -0.576569
O7    O     O_R   0.582120 0.500000 0.642820 -0.573607
O8    O     O_R   0.417880 0.500000 0.357180 -0.577668
C3    C     C_R   0.209212 0.504991 0.500498 0.279628
C4    C     C_R   0.790939 0.507156 0.501591 0.282738
C5    C     C_R   0.390947 0.500180 0.500030 0.838932
C6    C     C_R   0.609077 0.500143 0.499949 0.832321
Cu1   Cu    Cu3+1 0.500000 0.500000 0.669080 1.003507
Cu2   Cu    Cu3+1 0.500000 0.500000 0.330920 1.002104
C7    C     C_R   0.299485 0.634457 0.463380 0.090126
C8    C     C_R   0.702080 0.372124 0.542219 0.087138
C9    C     C_R   0.298558 0.370659 0.537149 0.090411
C10   C     C_R   0.700240 0.633708 0.458535 0.087200
C11   C     C_R   0.328499 0.501741 0.500118 -0.111753
C12   C     C_R   0.671515 0.501480 0.499841 -0.102777
C13   C     C_R   0.880481 0.552860 0.645617 0.540271
C14   C     C_R   0.119636 0.464155 0.354838 0.541380
C15   C     C_R   0.880414 0.465952 0.355316 0.541443
C16   C     C_R   0.119730 0.550241 0.645471 0.540972
N1    N     N_R   0.852064 0.509100 0.500716 -0.462220
N2    N     N_R   0.148072 0.506551 0.500262 -0.462371
C17   C     C_R   0.940063 0.464495 0.352213 -0.025616
C18   C     C_R   0.060076 0.553111 0.648026 -0.026006
C19   C     C_R   0.940143 0.554519 0.648066 -0.025908
C20   C     C_R   0.059982 0.463469 0.352024 -0.025897
C21   C     C_R   0.970047 0.509335 0.500061 -0.014692
C22   C     C_R   0.030086 0.508716 0.500008 -0.014617
C23   C     C_R   0.970299 0.418893 0.205737 -0.176959
C24   C     C_R   0.029838 0.599122 0.794333 -0.176869
C25   C     C_R   0.970475 0.599862 0.794335 -0.176824
C26   C     C_R   0.029656 0.418424 0.205628 -0.176927
C27   C     C_1   0.499839 0.065398 0.499829 -0.173704
C28   C     C_1   0.499893 0.934593 0.500154 -0.175362
C29   C     C_R   0.239311 0.635656 0.461489 0.180091
C30   C     C_R   0.762146 0.375722 0.544770 0.167342
C31   C     C_R   0.238384 0.372731 0.539423 0.179682
C32   C     C_R   0.760450 0.636164 0.457936 0.180219
N3    N     N_1   0.500000 0.500000 0.076820 -0.043468
N4    N     N_1   0.500000 0.500000 0.923180 -0.042571
O9    O     O_2   0.850993 0.594302 0.786463 -0.508410
O10   O     O_2   0.149108 0.422656 0.213977 -0.507445
O11   O     O_2   0.850859 0.424353 0.214783 -0.509264
O12   O     O_2   0.149291 0.590714 0.786431 -0.507469
H1    H     H_    0.948221 0.383215 0.090861 0.193467
H2    H     H_    0.051919 0.634638 0.909268 0.193489
H3    H     H_    0.948467 0.635888 0.909287 0.193371
H4    H     H_    0.051661 0.382414 0.090667 0.193613
C33   C     C_3   0.207247 0.775654 0.417511 -0.776129
H5    H     H_    0.160475 0.761809 0.413114 0.228980
H6    H     H_    0.216376 0.861597 0.515377 0.224895
H7    H     H_    0.220372 0.815009 0.288494 0.239054
C34   C     C_3   0.795312 0.238250 0.592760 -0.766964
H8    H     H_    0.786716 0.149499 0.498036 0.223730
H9    H     H_    0.841971 0.254712 0.596111 0.227742
H10   H     H_    0.782571 0.200716 0.722772 0.238694
C35   C     C_3   0.205333 0.234512 0.583663 -0.775753
H11   H     H_    0.158674 0.250922 0.588453 0.228780
H12   H     H_    0.213770 0.148089 0.485731 0.225393
H13   H     H_    0.218246 0.194451 0.712578 0.239109
C36   C     C_3   0.792150 0.775747 0.410640 -0.776183
H14   H     H_    0.782073 0.863914 0.504965 0.224305
H15   H     H_    0.839005 0.763036 0.409383 0.229167
H16   H     H_    0.779628 0.811384 0.279628 0.239495
C37   C     C_3   0.334008 0.772845 0.428351 -0.824761
H17   H     H_    0.308281 0.873326 0.407836 0.234159
H18   H     H_    0.362408 0.795772 0.539217 0.218746
H19   H     H_    0.360425 0.756496 0.311600 0.242677
C38   C     C_3   0.671535 0.228799 0.582866 -0.811096
H20   H     H_    0.685803 0.141144 0.493052 0.226235
H21   H     H_    0.681046 0.194870 0.716692 0.242124
H22   H     H_    0.624711 0.235129 0.570561 0.217262
C39   C     C_3   0.332107 0.230497 0.572084 -0.826174
H23   H     H_    0.305673 0.131412 0.592761 0.234313
H24   H     H_    0.360320 0.206040 0.461110 0.218832
H25   H     H_    0.358669 0.245518 0.688691 0.242676
C40   C     C_3   0.665399 0.770533 0.417588 -0.821543
H26   H     H_    0.690892 0.870507 0.392892 0.230388
H27   H     H_    0.639184 0.750457 0.301312 0.244166
H28   H     H_    0.636833 0.796525 0.527255 0.217859

loop_
_geom_bond_atom_site_label_1
_geom_bond_atom_site_label_2
_geom_bond_distance
_ccdc_geom_bond_type
C33   H5    1.107053 S    
C35   H12   1.110243 S    
C8    C38   1.520381 S    
O7    C6    1.279786 A    
O3    C2    1.273252 A    
C31   C35   1.516503 S    
N3    N4    1.196037 T    
O1    C1    1.272385 A    
C24   C25   1.395147 A    
C9    C11   1.413182 A    
C16   O12   1.349440 S    
Cu1   Cu2   2.632463 S    
C17   C21   1.409229 A    
C29   C33   1.516550 S    
C4    C30   1.413333 A    
C8    C30   1.412209 A    
C19   C21   1.409325 A    
C3    C31   1.415305 A    
O1    Cu1   1.931146 S    
C20   C26   1.404634 A    
O2    Cu2   1.931146 S    
C24   H2    1.083112 S    
C25   H3    1.083125 S    
O5    Cu1   1.940829 S    
C35   H13   1.110465 S    
C34   H8    1.109599 S    
O6    Cu2   1.940827 S    
O2    C2    1.272305 A    
C10   C32   1.415228 A    
C9    C31   1.414416 A    
C7    C29   1.414310 A    
C15   C17   1.402106 A    
C34   H9    1.107178 S    
C13   O9    1.349415 S    
C18   C22   1.409237 A    
C4    N1    1.436682 S    
C36   H14   1.110154 S    
C14   O10   1.349461 S    
C23   C26   1.394989 A    
C27   C28   1.187284 T    
C37   H18   1.110659 S    
C35   H11   1.107067 S    
C7    C11   1.413448 A    
C19   C25   1.404680 A    
C36   H15   1.107126 S    
C13   C19   1.402382 A    
O4    Cu2   1.932089 S    
C38   H20   1.109493 S    
C14   C20   1.402165 A    
C39   H25   1.110098 S    
C40   H26   1.105106 S    
C26   H4    1.083116 S    
C21   C22   1.411018 A    
C5    C11   1.467689 S    
C9    C39   1.521096 S    
C38   H21   1.109789 S    
C40   H27   1.109949 S    
C10   C12   1.415260 A    
C16   C18   1.402312 A    
C13   N1    1.369395 A    
C1    C27   1.403596 S    
C23   H1    1.083129 S    
C2    C28   1.403551 S    
C10   C40   1.521288 S    
O3    Cu1   1.932088 S    
C39   H24   1.110683 S    
C34   H10   1.109799 S    
O6    C6    1.279492 A    
C8    C12   1.415481 A    
C14   N2    1.369443 A    
O4    C1    1.273221 A    
O8    C5    1.279358 A    
Cu2   N3    1.978082 S    
C37   H19   1.110078 S    
C7    C37   1.521189 S    
C15   N1    1.369422 A    
C17   C23   1.404659 A    
C16   N2    1.369507 A    
C18   C24   1.404710 A    
C36   H16   1.110371 S    
C6    C12   1.467462 S    
C33   H6    1.110272 S    
O7    Cu1   1.940677 S    
C37   H17   1.105642 S    
C4    C32   1.414314 A    
O8    Cu2   1.940680 S    
C33   H7    1.110469 S    
C3    N2    1.436940 S    
C3    C29   1.415102 A    
C38   H22   1.106095 S    
C15   O11   1.349469 S    
C39   H23   1.105669 S    
O5    C5    1.279359 A    
C40   H28   1.110628 S    
C30   C34   1.518009 S    
C32   C36   1.516489 S    
Cu1   N4    1.978082 S    
C20   C22   1.409274 A    
