data_mof_unit_27629.cif
_audit_creation_date              2012-12-10T19:14:20-0500
_audit_creation_method            fapswitch 2.2
_symmetry_space_group_name_H-M    P1
_symmetry_Int_Tables_number       1
_space_group_crystal_system       triclinic
_cell_length_a                    10.63044
_cell_length_b                    9.671682
_cell_length_c                    19.228764
_cell_angle_alpha                 90.0033
_cell_angle_beta                  89.873595
_cell_angle_gamma                 90.06537
_cell_volume                      1976.98456353

loop_
_atom_site_label
_atom_site_type_symbol
_atom_type_description
_atom_site_fract_x
_atom_site_fract_y
_atom_site_fract_z
_atom_type_partial_charge
C1    C     C_R   0.257583 0.500228 0.501358 0.878371
C2    C     C_R   0.528302 0.506013 0.069669 0.310637
C3    C     C_R   0.488936 0.625034 0.818052 -0.141253
C4    C     C_R   0.549580 0.382885 0.817702 -0.142631
C5    C     C_R   0.481296 0.623121 0.746205 -0.172597
C6    C     C_R   0.540668 0.380580 0.745780 -0.137827
C7    C     C_R   0.506625 0.500798 0.709828 -0.020144
C8    C     C_R   0.523095 0.504988 0.854122 0.092755
C9    C     C_3   0.072888 0.651592 0.513133 -0.421905
C10   C     C_3   0.073177 0.411639 0.564385 -0.428634
C11   C     C_3   0.929752 0.652749 0.515408 0.275122
C12   C     C_3   0.929075 0.400550 0.561018 0.275943
C13   C     C_3   0.071254 0.443757 0.433187 -0.417200
C14   C     C_3   0.121366 0.501427 0.502954 0.058280
C15   C     C_3   0.878654 0.502035 0.504327 0.003754
C16   C     C_R   0.500988 0.500065 0.365432 0.919689
C17   C     C_3   0.927069 0.450516 0.432614 -0.584753
C18   C     C_3   0.380152 0.081267 0.470673 -0.234081
C19   C     C_3   0.380132 0.918471 0.470708 -0.238244
C20   C     C_3   0.603193 0.081568 0.454915 -0.233339
C21   C     C_3   0.603185 0.918698 0.454918 -0.235733
C22   C     C_3   0.516057 0.081322 0.569611 -0.232134
C23   C     C_3   0.515950 0.918758 0.569616 -0.219089
C24   C     C_R   0.742472 0.500433 0.502176 0.949552
C25   C     C_R   0.500920 0.500062 0.634489 0.926670
C26   C     C_R   0.506815 0.626757 0.254350 -0.296527
C27   C     C_R   0.516957 0.376274 0.253480 -0.296462
C28   C     C_R   0.519997 0.629682 0.182623 0.469182
C29   C     C_R   0.521532 0.376389 0.181294 0.469625
C30   C     C_R   0.524718 0.503855 0.145369 -0.168025
C31   C     C_R   0.507182 0.500797 0.290001 -0.180897
C32   C     C_R   0.527466 0.506600 0.929627 0.260346
H1    H     H_    0.498889 0.723927 0.282071 0.171008
H2    H     H_    0.519274 0.278235 0.280709 0.168992
H3    H     H_    0.895439 0.521548 0.390559 0.184988
H4    H     H_    0.888663 0.346109 0.420406 0.195433
H5    H     H_    0.364514 0.120165 0.416930 0.142164
H6    H     H_    0.364324 0.879384 0.417011 0.144899
H7    H     H_    0.299587 0.118775 0.502440 0.151416
H8    H     H_    0.299658 0.881009 0.502592 0.152207
H9    H     H_    0.594233 0.120147 0.400659 0.143092
H10   H     H_    0.594283 0.880039 0.400663 0.137440
H11   H     H_    0.605646 0.120066 0.592273 0.172185
H12   H     H_    0.605364 0.880116 0.592379 0.201637
H13   H     H_    0.439257 0.119313 0.604019 0.149262
H14   H     H_    0.438980 0.880757 0.603951 0.142310
H15   H     H_    0.695414 0.119616 0.474322 0.154865
H16   H     H_    0.695356 0.880967 0.474359 0.172653
H17   H     H_    0.468681 0.720540 0.845264 0.150500
H18   H     H_    0.575384 0.288906 0.844746 0.151373
H19   H     H_    0.455003 0.717063 0.719247 0.145278
H20   H     H_    0.561555 0.285430 0.718373 0.156267
H21   H     H_    0.105079 0.718366 0.469315 0.146305
H22   H     H_    0.114034 0.305778 0.562141 0.157315
H23   H     H_    0.112675 0.696121 0.561781 0.214572
H24   H     H_    0.103528 0.458766 0.614438 0.214679
H25   H     H_    0.896551 0.719333 0.471876 0.091884
H26   H     H_    0.904876 0.292916 0.545275 0.115021
H27   H     H_    0.109527 0.504746 0.388794 0.176118
H28   H     H_    0.101974 0.334587 0.426181 0.186005
N1    N     N_R   0.591854 0.407639 0.033851 -0.128999
N2    N     N_R   0.464957 0.604953 0.034402 -0.127915
N3    N     N_R   0.591187 0.407695 0.964854 -0.175292
N4    N     N_R   0.464808 0.605486 0.965500 -0.180539
N5    N     N_3   0.499750 0.138610 0.498490 -0.037087
N6    N     N_3   0.499750 0.861390 0.498490 -0.038467
O1    O     O_R   0.314910 0.616040 0.499990 -0.640235
O2    O     O_R   0.314910 0.383960 0.499990 -0.636932
O3    O     O_R   0.500100 0.616080 0.398110 -0.635792
O4    O     O_R   0.500100 0.383920 0.398110 -0.632389
O5    O     O_R   0.685320 0.616040 0.499960 -0.604970
O6    O     O_R   0.685320 0.383960 0.499960 -0.636408
O7    O     O_R   0.500130 0.616000 0.601840 -0.617317
O8    O     O_R   0.500130 0.384000 0.601840 -0.630290
Zn1   Zn    Zn3+2 0.500150 0.654960 0.499970 0.930657
Zn2   Zn    Zn3+2 0.500150 0.345040 0.499970 0.915853
O9    O     O_3   0.521417 0.756677 0.149375 -0.639571
C33   C     C_3   0.647131 0.797061 0.135529 0.111311
H29   H     H_    0.645866 0.862474 0.088039 0.185947
H30   H     H_    0.710699 0.708192 0.123736 0.120851
C34   C     C_3   0.700173 0.883019 0.195792 -0.386281
H31   H     H_    0.635033 0.969504 0.207903 0.243708
H32   H     H_    0.709276 0.817256 0.242855 0.203478
C35   C     C_3   0.829268 0.942434 0.177814 -0.915018
H33   H     H_    0.896697 0.857770 0.166278 0.260008
H34   H     H_    0.865410 0.003019 0.222592 0.258198
H35   H     H_    0.822550 0.011969 0.131995 0.280010
O10   O     O_3   0.527990 0.251030 0.146698 -0.636933
C36   C     C_3   0.405894 0.208930 0.126143 0.110337
H36   H     H_    0.416026 0.149945 0.076866 0.183727
H37   H     H_    0.341482 0.297100 0.114502 0.119475
C37   C     C_3   0.346841 0.113731 0.181039 -0.383284
H38   H     H_    0.412711 0.028085 0.193226 0.251979
H39   H     H_    0.328647 0.172959 0.229492 0.203537
C38   C     C_3   0.222815 0.052482 0.155627 -0.905553
H40   H     H_    0.154646 0.136172 0.143803 0.260098
H41   H     H_    0.182085 0.985145 0.196702 0.260389
H42   H     H_    0.238567 0.989182 0.108198 0.278635
Cl1   Cl    Cl    0.875682 0.735425 0.593816 -0.592810
Cl2   Cl    Cl    0.859545 0.422254 0.645498 -0.574435

loop_
_geom_bond_atom_site_label_1
_geom_bond_atom_site_label_2
_ccdc_geom_bond_type
C21   N6    S    
C27   C29   A    
C38   H40   S    
C35   H35   S    
O6    Zn2   S    
C34   H31   S    
C3    H17   S    
C38   H42   S    
C13   H28   S    
O9    C33   S    
C18   N5    S    
N5    Zn2   S    
O8    Zn2   S    
C23   N6    S    
C18   H5    S    
C35   H34   S    
C25   O8    A    
C33   H30   S    
C1    O2    A    
C19   N6    S    
C11   Cl1   S    
C18   C19   S    
N1    N3    A    
C29   O10   S    
N2    N4    A    
C11   C15   S    
C9    H23   S    
C17   H4    S    
C36   H37   S    
C10   H24   S    
C2    N1    A    
C4    C8    A    
C21   H16   S    
C12   H26   S    
C26   C31   A    
C23   H14   S    
C13   C14   S    
O7    Zn1   S    
C34   H32   S    
C20   H9    S    
C27   H2    S    
C27   C31   A    
C8    C32   S    
C20   N5    S    
C16   O4    A    
C35   H33   S    
C32   N4    A    
C4    C6    A    
C3    C8    A    
C10   C14   S    
C5    C7    A    
C9    C14   S    
C33   H29   S    
C37   C38   S    
C23   H12   S    
C4    H18   S    
C16   C31   S    
C18   H7    S    
C22   N5    S    
C29   C30   A    
C19   H6    S    
C26   H1    S    
C22   H11   S    
C12   C15   S    
C37   H39   S    
C20   C21   S    
C36   C37   S    
C28   O9    S    
C9    C11   S    
C10   C12   S    
C15   C24   S    
O4    Zn2   S    
C9    H21   S    
C34   C35   S    
C24   O6    A    
C15   C17   S    
C16   O3    A    
C32   N3    A    
C3    C5    A    
C38   H41   S    
C6    C7    A    
C13   H27   S    
O2    Zn2   S    
C26   C28   A    
C7    C25   S    
C13   C17   S    
C2    C30   S    
C28   C30   A    
O5    Zn1   S    
C33   C34   S    
N6    Zn1   S    
C37   H38   S    
C1    O1    A    
O3    Zn1   S    
C25   O7    A    
C10   H22   S    
C12   Cl2   S    
C20   H15   S    
C19   H8    S    
C21   H10   S    
C22   H13   S    
O1    Zn1   S    
O10   C36   S    
C22   C23   S    
C5    H19   S    
C1    C14   S    
C17   H3    S    
C6    H20   S    
C36   H36   S    
C11   H25   S    
C2    N2    A    
C24   O5    A    
