data_mof_unit_10168.cif
_audit_creation_date              2013-03-05T16:10:51-0500
_audit_creation_method            fapswitch 2.2
_symmetry_space_group_name_H-M    P1
_symmetry_Int_Tables_number       1
_space_group_crystal_system       triclinic
_cell_length_a                    10.942541
_cell_length_b                    10.161348
_cell_length_c                    16.091738
_cell_angle_alpha                 89.45632
_cell_angle_beta                  90.069632
_cell_angle_gamma                 89.367508
_cell_volume                      1789.06478447

loop_
_atom_site_label
_atom_site_type_symbol
_atom_site_description
_atom_site_fract_x
_atom_site_fract_y
_atom_site_fract_z
_atom_type_partial_charge
O1    O     O_R   0.317570 0.620260 0.500050 -0.582427
O2    O     O_R   0.317570 0.379740 0.500050 -0.550204
C1    C     C_R   0.261572 0.499889 0.504162 0.794921
O3    O     O_R   0.499890 0.620310 0.379470 -0.532086
O4    O     O_R   0.499890 0.379690 0.379470 -0.483991
C2    C     C_R   0.501309 0.499853 0.342208 0.761435
Cu1   Cu    Cu3+1 0.499860 0.642410 0.500040 1.120155
Cu2   Cu    Cu3+1 0.499860 0.357590 0.500040 1.147816
O5    O     O_R   0.682190 0.620260 0.500020 -0.500165
O6    O     O_R   0.682190 0.379740 0.500020 -0.526938
O7    O     O_R   0.499870 0.620210 0.620600 -0.470295
O8    O     O_R   0.499870 0.379790 0.620600 -0.493141
C3    C     C_R   0.737620 0.499542 0.494877 0.810797
C4    C     C_R   0.502313 0.498818 0.658431 0.868211
C5    C     C_3   0.479208 0.622869 0.050277 -0.042213
C6    C     C_3   0.435530 0.380828 0.050911 -0.066555
C7    C     C_3   0.437598 0.364880 0.953222 0.410840
C8    C     C_3   0.482447 0.634318 0.951684 0.400484
H1    H     H_    0.380899 0.614001 0.063118 0.179867
H2    H     H_    0.345324 0.426026 0.061737 0.196643
C9    C     C_1   0.510156 0.493729 0.748871 0.141445
C10   C     C_3   0.532011 0.485876 0.085730 -0.303839
C11   C     C_3   0.526472 0.484989 0.917835 -0.395245
C12   C     C_3   0.671535 0.458541 0.950825 0.271979
C13   C     C_3   0.673657 0.461052 0.055763 0.378885
C14   C     C_1   0.517864 0.487675 0.824508 0.286637
C15   C     C_1   0.519607 0.489093 0.177996 0.262913
C16   C     C_1   0.509548 0.496168 0.252850 0.061502
C17   C     C_3   0.059221 0.587435 0.574079 0.200881
C18   C     C_3   0.067641 0.354077 0.511245 0.225085
H3    H     H_    0.071599 0.689274 0.551428 0.189844
H4    H     H_    0.112534 0.292552 0.462994 0.160649
C19   C     C_3   0.920498 0.565642 0.574021 -0.422835
C20   C     C_3   0.929365 0.357028 0.491638 -0.313612
H5    H     H_    0.889242 0.507486 0.628406 0.253815
H6    H     H_    0.880041 0.294684 0.535962 0.291992
H7    H     H_    0.877723 0.662782 0.579078 0.235209
H8    H     H_    0.913771 0.314960 0.428928 0.216142
H9    H     H_    0.118087 0.652097 0.407240 0.227170
H10   H     H_    0.106037 0.488330 0.369132 0.218887
H11   H     H_    0.912815 0.676091 0.418924 0.267192
H12   H     H_    0.897619 0.530314 0.358906 0.229169
C21   C     C_3   0.076264 0.554624 0.420127 -0.518384
C22   C     C_3   0.121373 0.497755 0.505994 -0.095089
C23   C     C_3   0.876859 0.498559 0.493913 -0.042334
C24   C     C_3   0.934334 0.570134 0.417936 -0.343551
C25   C     C_3   0.623867 0.084840 0.531379 0.408388
C26   C     C_3   0.618018 0.918593 0.545151 0.438360
C27   C     C_3   0.400773 0.076293 0.559574 -0.018009
C28   C     C_3   0.385393 0.920220 0.538874 0.096158
C29   C     C_3   0.462984 0.076361 0.418453 0.213443
C30   C     C_3   0.494983 0.921386 0.412717 0.067622
N1    N     N_3   0.500250 0.143650 0.501830 -0.339979
N2    N     N_3   0.500250 0.856350 0.501830 -0.348112
H13   H     H_    0.362299 0.075800 0.420748 0.101690
H14   H     H_    0.415096 0.874403 0.382302 0.152909
H15   H     H_    0.312065 0.123685 0.542598 0.197739
H16   H     H_    0.316548 0.921581 0.488134 0.085440
S1    S     S_3+6 0.328202 0.700135 0.924309 0.142560
O9    O     O_2   0.314279 0.834903 0.960435 -0.164050
O10   O     O_2   0.314073 0.712550 0.831654 -0.114184
O11   O     O_3   0.209525 0.621069 0.966368 -0.486267
H17   H     H_    0.135875 0.664709 0.942468 0.424763
S2    S     S_3+6 0.277708 0.365150 0.908824 0.150886
O12   O     O_2   0.259215 0.469524 0.844301 -0.185967
O13   O     O_2   0.244765 0.241187 0.863806 -0.088929
O14   O     O_3   0.171345 0.378725 0.984027 -0.477008
H18   H     H_    0.091768 0.376128 0.954687 0.407629
S3    S     S_3+6 0.690547 0.160242 0.628971 0.140878
O15   O     O_2   0.709631 0.304712 0.635768 -0.279805
O16   O     O_2   0.622599 0.124249 0.706272 -0.171352
O17   O     O_3   0.833921 0.101559 0.638360 -0.421731
H19   H     H_    0.855487 0.113027 0.697695 0.425022
S4    S     S_3+6 0.637971 0.853213 0.654939 0.149834
O18   O     O_2   0.735315 0.915566 0.706194 -0.213543
O19   O     O_2   0.525716 0.858546 0.705963 -0.160104
O20   O     O_3   0.693723 0.698463 0.652302 -0.533660
H20   H     H_    0.755429 0.688788 0.697049 0.390965
N3    N     N_R   0.713938 0.119290 0.465055 0.137250
O21   O     O_R   0.682914 0.195102 0.402702 -0.266336
O22   O     O_R   0.829718 0.091422 0.472123 -0.254166
N4    N     N_R   0.737304 0.868565 0.512954 0.168301
O23   O     O_R   0.753398 0.821277 0.440463 -0.318069
O24   O     O_R   0.837290 0.884588 0.555725 -0.273963
N5    N     N_R   0.404187 0.094133 0.651258 0.214753
O25   O     O_R   0.345684 0.013262 0.699268 -0.163843
O26   O     O_R   0.406742 0.209264 0.682429 -0.200133
N6    N     N_R   0.304414 0.842784 0.592707 0.217592
O27   O     O_R   0.340886 0.772380 0.654949 -0.155322
O28   O     O_R   0.187932 0.868198 0.588173 -0.341785
S5    S     S_3+6 0.407724 0.153086 0.323297 0.121534
O29   O     O_2   0.513257 0.200693 0.273016 -0.137636
O30   O     O_2   0.339103 0.053389 0.273263 -0.198325
O31   O     O_3   0.305346 0.274700 0.341730 -0.562675
H21   H     H_    0.283734 0.311283 0.286322 0.373273
S6    S     S_3+6 0.602316 0.896075 0.323012 0.196812
O32   O     O_2   0.537586 0.930876 0.243970 -0.084475
O33   O     O_2   0.709934 0.985802 0.325109 -0.149979
O34   O     O_3   0.658355 0.743474 0.309178 -0.460481
H22   H     H_    0.740537 0.756001 0.284877 0.407981
N7    N     N_R   0.420891 0.259047 0.100226 0.167610
O35   O     O_R   0.313237 0.229105 0.128723 -0.262269
O36   O     O_R   0.509160 0.175253 0.111951 -0.174263
N8    N     N_R   0.495708 0.740966 0.101770 0.219700
O37   O     O_R   0.438805 0.742623 0.172764 -0.301558
O38   O     O_R   0.519613 0.854916 0.069075 -0.176363
S7    S     S_3+6 0.477019 0.194455 0.926054 0.172469
O39   O     O_2   0.477143 0.185233 0.833490 -0.155572
O40   O     O_2   0.593403 0.134188 0.956470 -0.176591
O41   O     O_3   0.364854 0.096550 0.961917 -0.364169
H23   H     H_    0.399787 0.046304 0.009176 0.433430
S8    S     S_3+6 0.577075 0.768905 0.904872 0.183617
O42   O     O_2   0.676976 0.820446 0.958477 -0.112483
O43   O     O_2   0.632643 0.724681 0.825331 -0.250410
O44   O     O_3   0.495115 0.901987 0.876730 -0.346373
H24   H     H_    0.553422 0.956023 0.844687 0.441044
S9    S     S_3+6 0.772987 0.584668 0.107604 0.149618
O45   O     O_2   0.733561 0.724289 0.095180 -0.138643
O46   O     O_2   0.769792 0.558667 0.199594 -0.268779
O47   O     O_3   0.922917 0.575855 0.082141 -0.381603
H25   H     H_    0.932490 0.509226 0.038249 0.384352
S10   S     S_3+6 0.744669 0.311568 0.108550 0.166146
O48   O     O_2   0.698456 0.298930 0.195752 -0.164621
O49   O     O_2   0.727399 0.181566 0.068230 -0.129145
O50   O     O_3   0.897332 0.325009 0.119471 -0.461680
H26   H     H_    0.934658 0.246853 0.092798 0.406659
N9    N     N_R   0.754693 0.552510 0.907567 0.166649
O51   O     O_R   0.823979 0.636011 0.944393 -0.249541
O52   O     O_R   0.780607 0.531856 0.829578 -0.270766
N10   N     N_R   0.722287 0.331986 0.920841 0.191160
O53   O     O_R   0.693694 0.293958 0.846346 -0.222414
O54   O     O_R   0.833303 0.300984 0.943493 -0.285073
S11   S     S_3+6 0.114592 0.590684 0.680516 0.152116
O55   O     O_2   0.043590 0.504919 0.738988 -0.145167
O56   O     O_2   0.245958 0.549196 0.683856 -0.213286
O57   O     O_3   0.100405 0.744320 0.717331 -0.377206
H27   H     H_    0.012343 0.766495 0.711733 0.363584
S12   S     S_3+6 0.090046 0.267862 0.608367 0.079045
O58   O     O_2   0.207309 0.305652 0.647784 -0.180691
O59   O     O_2   0.988342 0.296361 0.667958 -0.223651
O60   O     O_3   0.090981 0.106180 0.589918 -0.464171
H28   H     H_    0.081351 0.065067 0.645566 0.429737

loop_
_geom_bond_atom_site_label_1
_geom_bond_atom_site_label_2
_geom_bond_distance
_ccdc_geom_bond_type
C5    C8    1.590167 S    
C17   S11   1.816791 S    
C9    C14   1.220864 T    
N7    O35   1.302741 A    
C18   S12   1.799571 S    
C19   C23   1.541676 S    
C25   N3    1.495366 S    
S8    O43   1.488878 D    
Cu1   Cu2   2.894154 S    
N5    O25   1.297202 A    
C26   N2    1.603395 S    
C28   N2    1.532101 S    
S4    O19   1.479112 D    
C4    C9    1.458165 S    
C5    C10   1.601077 S    
C8    S8    1.877106 S    
S9    O46   1.501722 D    
C7    S2    1.889010 S    
O4    C2    1.355433 A    
O7    C4    1.370340 A    
O44   H24   0.988736 S    
S6    O34   1.678073 S    
C17   C19   1.536465 S    
C27   H15   1.111447 S    
H12   C24   1.112376 S    
C11   C14   1.504602 S    
S3    O16   1.494504 D    
O5    C3    1.365667 A    
O41   H23   0.986275 S    
N8    O37   1.301898 A    
C29   S5    1.811854 S    
C5    H1    1.100170 S    
H10   C21   1.113384 S    
C2    C16   1.441675 S    
O34   H22   0.990081 S    
C6    C7    1.582012 S    
S4    O20   1.681314 S    
S6    O33   1.497797 D    
C12   N9    1.494136 S    
H11   C24   1.099836 S    
O6    C3    1.367918 A    
C30   S6    1.879848 S    
C5    N8    1.477341 S    
C18   H4    1.112832 S    
C13   S10   1.892206 S    
C20   H6    1.096030 S    
C12   N10   1.480400 S    
C28   N6    1.469372 S    
C25   N1    1.545364 S    
S1    O9    1.499068 D    
N7    O36   1.293009 A    
O1    Cu1   2.009842 S    
S7    O40   1.487302 D    
C18   C22   1.581480 S    
S3    O15   1.490095 D    
O3    Cu1   1.955248 S    
N8    O38   1.296688 A    
S8    O42   1.494090 D    
C30   N2    1.573947 S    
Cu1   O7    1.950963 S    
N5    O26   1.277824 A    
C1    C22   1.534831 S    
S1    O10   1.502749 D    
S4    O18   1.496326 D    
C18   C20   1.545163 S    
C29   C30   1.612967 S    
C28   H16   1.110159 S    
S2    O14   1.685580 S    
C27   N5    1.488635 S    
C12   C13   1.689199 S    
O3    C2    1.368028 A    
S9    O47   1.693114 S    
S5    O29   1.493118 D    
N3    O22   1.299745 A    
O17   H19   0.991505 S    
H9    C21   1.113455 S    
O20   H20   0.989991 S    
C10   C13   1.641361 S    
C19   H7    1.091531 S    
C8    C11   1.682675 S    
C29   N1    1.567204 S    
S2    O13   1.506014 D    
S3    O17   1.678333 S    
N10   O54   1.302363 A    
C21   C22   1.569623 S    
N9    O52   1.305370 A    
O11   H17   0.991050 S    
C26   S4    1.893087 S    
S5    O30   1.506370 D    
C8    S1    1.859518 S    
C25   C26   1.703600 S    
C6    H2    1.098875 S    
S6    O32   1.492745 D    
C20   C23   1.543540 S    
C7    C11   1.665511 S    
S12   O59   1.497560 D    
S11   O57   1.680669 S    
O14   H18   0.990755 S    
N6    O28   1.299534 A    
N4    O23   1.277469 A    
N4    O24   1.304413 A    
C10   C15   1.491707 S    
C17   C22   1.581261 S    
O50   H26   0.990694 S    
S7    O41   1.687301 S    
S7    O39   1.493350 D    
S10   O49   1.491035 D    
N9    O51   1.291723 A    
O47   H25   0.987881 S    
Cu1   O5    2.005339 S    
S1    O11   1.674752 S    
C6    C10   1.613302 S    
C20   H8    1.113328 S    
O2    Cu2   2.004905 S    
O8    C4    1.359706 A    
O57   H27   0.990994 S    
S12   O60   1.672200 S    
C13   S9    1.871606 S    
Cu2   N1    2.173793 S    
O4    Cu2   1.951015 S    
C25   S3    1.902118 S    
S2    O12   1.489177 D    
S10   O50   1.686702 S    
C7    S7    1.836977 S    
O2    C1    1.362172 A    
C17   H3    1.103679 S    
O60   H28   0.990760 S    
S5    O31   1.687393 S    
C3    C23   1.523657 S    
S11   O55   1.499869 D    
C30   H14   1.115456 S    
C27   N1    1.588586 S    
C19   H5    1.107904 S    
C26   N4    1.490848 S    
N10   O53   1.301845 A    
C29   H13   1.102489 S    
O31   H21   0.990117 S    
C21   C24   1.559639 S    
S12   O58   1.486543 D    
C11   C12   1.691027 S    
N3    O21   1.301608 A    
C23   C24   1.553828 S    
C6    N7    1.474036 S    
N6    O27   1.285843 A    
Cu2   O6    2.010276 S    
C27   C28   1.634063 S    
C15   C16   1.212425 T    
S11   O56   1.494309 D    
Cu1   N2    2.174434 S    
O1    C1    1.375143 A    
S10   O48   1.497003 D    
S9    O45   1.489906 D    
S8    O44   1.672936 S    
Cu2   O8    1.955216 S    
