data_mof_unit_48190.cif
_audit_creation_date              2013-03-05T15:51:41-0500
_audit_creation_method            fapswitch 2.2
_symmetry_space_group_name_H-M    P1
_symmetry_Int_Tables_number       1
_space_group_crystal_system       triclinic
_cell_length_a                    11.52847
_cell_length_b                    11.549305
_cell_length_c                    19.564414
_cell_angle_alpha                 90.207206
_cell_angle_beta                  89.63621
_cell_angle_gamma                 59.773544
_cell_volume                      2250.64599419

loop_
_atom_site_label
_atom_site_type_symbol
_atom_site_description
_atom_site_fract_x
_atom_site_fract_y
_atom_site_fract_z
_atom_type_partial_charge
O1    O     O_R   0.267750 0.231960 0.575440 -0.507051
O2    O     O_R   0.527290 0.186640 0.570530 -0.485178
C1    C     C_R   0.640306 0.117319 0.599330 0.562716
O3    O     O_R   0.728110 0.003450 0.576380 -0.490329
O4    O     O_R   0.682980 0.789190 0.570500 -0.509607
C2    C     C_R   0.612411 0.745892 0.598642 0.526998
O5    O     O_R   0.499300 0.771880 0.575540 -0.492731
O6    O     O_R   0.285350 0.030870 0.569740 -0.481885
C3    C     C_R   0.240524 0.145431 0.598101 0.548537
O7    O     O_R   0.270960 0.227070 0.423890 -0.526397
O8    O     O_R   0.530270 0.182120 0.430040 -0.484168
C4    C     C_R   0.619678 0.080499 0.394888 0.555500
O9    O     O_R   0.731320 0.998570 0.424830 -0.459914
O10   O     O_R   0.685950 0.784660 0.430010 -0.531503
C5    C     C_R   0.617392 0.739364 0.402543 0.536701
O11   O     O_R   0.502510 0.767000 0.423980 -0.471143
O12   O     O_R   0.288320 0.026340 0.429250 -0.475434
C6    C     C_R   0.251493 0.137344 0.399463 0.558320
Cr1   Cr    Cr6+3 0.404720 0.198220 0.499960 1.058254
Cr2   Cr    Cr6+3 0.698290 0.897110 0.500380 1.040616
Cr3   Cr    Cr6+3 0.396970 0.904720 0.499610 1.104429
O13   O     O_3   0.499990 0.000020 0.499980 -0.298944
C7    C     C_1   0.671081 0.646166 0.860003 0.004686
C8    C     C_1   0.654931 0.683087 0.728305 -0.029925
C9    C     C_1   0.664044 0.666150 0.799545 -0.030205
C10   C     C_1   0.641079 0.703445 0.667920 -0.001284
C11   C     C_1   0.126808 0.199208 0.859240 0.004415
C12   C     C_1   0.170939 0.170481 0.727660 -0.030270
C13   C     C_1   0.149981 0.182666 0.798875 -0.030198
C14   C     C_1   0.194602 0.160975 0.667307 0.003838
C15   C     C_1   0.678907 0.191485 0.860697 0.004070
C16   C     C_1   0.658357 0.167321 0.729020 -0.029629
C17   C     C_1   0.665855 0.181079 0.800313 -0.029302
C18   C     C_1   0.652596 0.149738 0.668677 0.003441
C19   C     C_R   0.654410 0.670603 0.192092 0.011376
C20   C     C_R   0.557463 0.660764 0.231202 -0.001001
C21   C     C_R   0.554452 0.672488 0.300499 0.049909
C22   C     C_R   0.738697 0.715572 0.294854 -0.169385
C23   C     C_R   0.740908 0.705675 0.223836 -0.179049
C24   C     C_3   0.527644 0.548183 0.234581 -0.228777
C25   C     C_3   0.524339 0.562229 0.311397 0.082871
C26   C     C_R   0.648749 0.692829 0.333528 -0.010177
H1    H     H_    0.807317 0.739674 0.319620 0.137666
H2    H     H_    0.815903 0.715226 0.194727 0.126852
H3    H     H_    0.613956 0.451435 0.216745 0.129322
H4    H     H_    0.429666 0.575304 0.211084 0.167459
H5    H     H_    0.605467 0.473264 0.337579 0.113583
C27   C     C_R   0.151783 0.194247 0.189400 0.011224
C28   C     C_R   0.166779 0.287613 0.227680 0.000405
C29   C     C_R   0.200627 0.266050 0.294929 0.001780
C30   C     C_R   0.216837 0.049881 0.288900 -0.117175
C31   C     C_R   0.185803 0.070264 0.219172 -0.155773
C32   C     C_3   0.074403 0.435242 0.238921 -0.256355
C33   C     C_3   0.119493 0.412265 0.312945 -0.129944
C34   C     C_R   0.214006 0.153307 0.328338 0.021441
H6    H     H_    0.238276 0.956466 0.312121 0.213841
H7    H     H_    0.179774 0.993496 0.190138 0.138515
H8    H     H_    0.967796 0.464561 0.231356 0.151090
H9    H     H_    0.108031 0.496470 0.210507 0.136643
H10   H     H_    0.186351 0.453435 0.324292 0.157764
C35   C     C_R   0.664221 0.167621 0.187527 0.020208
C36   C     C_R   0.755560 0.044616 0.217548 -0.010533
C37   C     C_R   0.739577 0.015989 0.283806 -0.008665
C38   C     C_R   0.524603 0.219040 0.289332 -0.136717
C39   C     C_R   0.542126 0.249633 0.221825 -0.163262
C40   C     C_3   0.905683 0.973908 0.223184 -0.217827
C41   C     C_3   0.888199 0.944693 0.296789 0.107215
C42   C     C_R   0.629124 0.106582 0.322744 0.036293
H11   H     H_    0.433625 0.288092 0.316643 0.161350
H12   H     H_    0.465323 0.341297 0.198884 0.124284
H13   H     H_    0.946713 0.042231 0.217326 0.182241
H14   H     H_    0.955549 0.882172 0.190626 0.104130
H15   H     H_    0.934170 0.835996 0.307309 0.110942
O14   O     O_R   0.821590 0.119350 0.952850 -0.504276
O15   O     O_R   0.037230 0.162540 0.957390 -0.493473
C43   C     C_R   0.081926 0.231242 0.928587 0.546695
O16   O     O_R   0.056530 0.344750 0.951370 -0.503919
O17   O     O_R   0.798000 0.560370 0.957490 -0.493564
C44   C     C_R   0.684055 0.604486 0.929451 0.546024
O18   O     O_R   0.596230 0.579400 0.952760 -0.503854
O19   O     O_R   0.639160 0.321170 0.958690 -0.492814
C45   C     C_R   0.708524 0.206828 0.930030 0.547354
O20   O     O_R   0.821370 0.124220 0.104400 -0.520952
O21   O     O_R   0.037020 0.167050 0.097880 -0.510248
C46   C     C_R   0.083114 0.235888 0.124954 0.546468
O22   O     O_R   0.056310 0.349620 0.102920 -0.515621
O23   O     O_R   0.797790 0.564880 0.097980 -0.508435
C47   C     C_R   0.681409 0.612765 0.124965 0.545659
O24   O     O_R   0.596000 0.584270 0.104310 -0.520242
O25   O     O_R   0.638950 0.325690 0.099180 -0.510862
C48   C     C_R   0.706938 0.208996 0.126213 0.539264
Cr4   Cr    Cr6+3 0.926290 0.152010 0.028150 1.025595
Cr5   Cr    Cr6+3 0.921440 0.451830 0.027490 1.025555
Cr6   Cr    Cr6+3 0.626370 0.446880 0.028730 1.025254
O26   O     O_3   0.824700 0.350240 0.028120 -0.253567
C49   C     C_R   0.013194 0.445317 0.367740 0.032137
C50   C     C_R   0.015775 0.512380 0.427347 -0.063203
C51   C     C_R   0.935152 0.524739 0.483706 -0.070958
C52   C     C_R   0.850094 0.471561 0.480978 -0.092030
C53   C     C_R   0.843668 0.408183 0.421420 -0.094385
C54   C     C_R   0.923620 0.396144 0.364680 -0.078734
H16   H     H_    0.084122 0.550636 0.431264 0.139707
H17   H     H_    0.939889 0.574162 0.529819 0.123997
H18   H     H_    0.788525 0.480167 0.524848 0.116798
H19   H     H_    0.777582 0.367211 0.419682 0.167009
H20   H     H_    0.919303 0.344456 0.319400 0.152747
N1    N     N_R   0.928264 0.014655 0.345336 0.108295
O27   O     O_R   0.015970 0.947117 0.392119 -0.286363
O28   O     O_R   0.878583 0.143577 0.341825 -0.394188
N2    N     N_R   0.391028 0.609535 0.341319 0.093132
O29   O     O_R   0.284681 0.711348 0.315817 -0.356030
O30   O     O_R   0.377925 0.547124 0.393359 -0.345158

loop_
_geom_bond_atom_site_label_1
_geom_bond_atom_site_label_2
_geom_bond_distance
_ccdc_geom_bond_type
O23   C47   1.275358 A    
O11   Cr3   2.052147 S    
C11   C13   1.202356 T    
C19   C20   1.401851 A    
O19   C45   1.274158 A    
C32   H9    1.111534 S    
O4    Cr2   1.922873 S    
C33   H10   1.113491 S    
C32   C33   1.520347 S    
C24   H4    1.112070 S    
O20   Cr4   2.040321 S    
C4    C42   1.459099 S    
O8    Cr1   1.924279 S    
C53   H19   1.081067 S    
C29   C33   1.500651 S    
C15   C45   1.432845 S    
C38   C42   1.416533 A    
C12   C13   1.406938 S    
C8    C10   1.201271 T    
C22   C26   1.408007 A    
O4    C2    1.273186 A    
O17   Cr5   1.926957 S    
C51   H17   1.082140 S    
C50   C51   1.397258 A    
O24   Cr6   2.060091 S    
C30   H6    1.080725 S    
O14   Cr4   2.060700 S    
C21   C26   1.385454 A    
N2    O29   1.302022 A    
O21   C46   1.273159 A    
C40   H14   1.111742 S    
C52   C53   1.395891 A    
O6    C3    1.275993 A    
N1    O27   1.300531 A    
C15   C17   1.205067 T    
C41   H15   1.110217 S    
C33   C49   1.518595 S    
C50   H16   1.083029 S    
C52   H18   1.082114 S    
Cr5   O26   1.984438 S    
C49   C54   1.408373 A    
C11   C43   1.428296 S    
N1    O28   1.300912 A    
Cr6   O26   1.975815 S    
O14   C45   1.266423 A    
O25   Cr6   1.921442 S    
C2    C10   1.426181 S    
C24   H3    1.110735 S    
C37   C41   1.504912 S    
O1    Cr1   2.042713 S    
C36   C40   1.501465 S    
C30   C31   1.402911 A    
O10   Cr2   1.943688 S    
C20   C24   1.504504 S    
Cr1   O13   1.978596 S    
O1    C3    1.269261 A    
C43   O16   1.269105 A    
O17   C44   1.274129 A    
C1    C18   1.432901 S    
C46   O22   1.266398 A    
Cr4   O26   1.978248 S    
O12   Cr3   1.923865 S    
C16   C18   1.205083 T    
C19   C23   1.398884 A    
O15   C43   1.274297 A    
C36   C37   1.372973 A    
O22   Cr5   2.045141 S    
C19   C47   1.430723 S    
C40   H13   1.111444 S    
O7    Cr1   2.054086 S    
C32   H8    1.109365 S    
C49   C50   1.406363 A    
O12   C6    1.274346 A    
C25   H5    1.111394 S    
C38   H11   1.081294 S    
C8    C9    1.405360 S    
C2    O5    1.268534 A    
C35   C48   1.464034 S    
C3    C14   1.428016 S    
C6    C34   1.444435 S    
C24   C25   1.509198 S    
Cr2   O13   1.975733 S    
C28   C29   1.362488 A    
C25   N2    1.464249 S    
O18   Cr6   2.039582 S    
C1    O3    1.267041 A    
O15   Cr4   1.924160 S    
C54   H20   1.081771 S    
C37   C42   1.391756 A    
C27   C28   1.391767 A    
O9    Cr2   2.038992 S    
O2    Cr1   1.938207 S    
C27   C46   1.442729 S    
C5    C26   1.426745 S    
O6    Cr3   1.933023 S    
O8    C4    1.296155 A    
C23   H2    1.083613 S    
O20   C48   1.253186 A    
C29   C34   1.397032 A    
C7    C44   1.426535 S    
C16   C17   1.411365 S    
C12   C14   1.202281 T    
O2    C1    1.272141 A    
C22   H1    1.078732 S    
O5    Cr3   2.041749 S    
C38   C39   1.407796 A    
O19   Cr6   1.942899 S    
C41   N1    1.464267 S    
O25   C48   1.287355 A    
C22   C23   1.392734 A    
O7    C6    1.258791 A    
C28   C32   1.501901 S    
O23   Cr5   1.930480 S    
O16   Cr5   2.047130 S    
C53   C54   1.399308 A    
C40   C41   1.515421 S    
C30   C34   1.406043 A    
C7    C9    1.201359 T    
C21   C25   1.494555 S    
C35   C36   1.407023 A    
N2    O30   1.300743 A    
C31   H7    1.082813 S    
C44   O18   1.267867 A    
O3    Cr2   2.062956 S    
C35   C39   1.403468 A    
C27   C31   1.409605 A    
C47   O24   1.253574 A    
C20   C21   1.360515 A    
C51   C52   1.395851 A    
O10   C5    1.267592 A    
O21   Cr4   1.940238 S    
C4    O9    1.297090 A    
C39   H12   1.082072 S    
Cr3   O13   1.984494 S    
C5    O11   1.264203 A    
