data_mof_unit_56639.cif
_audit_creation_date              2013-03-05T15:40:41-0500
_audit_creation_method            fapswitch 2.2
_symmetry_space_group_name_H-M    P1
_symmetry_Int_Tables_number       1
_space_group_crystal_system       triclinic
_cell_length_a                    19.020558
_cell_length_b                    11.032856
_cell_length_c                    18.72791
_cell_angle_alpha                 89.938756
_cell_angle_beta                  89.861095
_cell_angle_gamma                 90.149896
_cell_volume                      3930.04482117

loop_
_atom_site_label
_atom_site_type_symbol
_atom_site_description
_atom_site_fract_x
_atom_site_fract_y
_atom_site_fract_z
_atom_type_partial_charge
O1    O     O_R   0.043230 0.549300 0.667990 -0.521460
O2    O     O_R   0.956770 0.549300 0.332010 -0.523528
O3    O     O_R   0.543230 0.049300 0.667990 -0.516849
O4    O     O_R   0.456770 0.049300 0.332010 -0.527648
O5    O     O_R   0.178620 0.457600 0.674100 -0.499474
O6    O     O_R   0.821380 0.457600 0.325900 -0.500070
O7    O     O_R   0.678620 0.957600 0.674100 -0.499440
O8    O     O_R   0.321380 0.957600 0.325900 -0.500322
C1    C     C_R   0.240619 0.464130 0.648177 0.543863
C2    C     C_R   0.759620 0.464740 0.352173 0.534429
C3    C     C_R   0.740521 0.964544 0.647957 0.535004
C4    C     C_R   0.259765 0.965215 0.352256 0.535718
O9    O     O_R   0.284680 0.542100 0.669460 -0.533860
O10   O     O_R   0.715320 0.542100 0.330540 -0.540098
O11   O     O_R   0.784680 0.042100 0.669460 -0.540195
O12   O     O_R   0.215320 0.042100 0.330540 -0.538605
O13   O     O_R   0.262860 0.790390 0.676650 -0.511278
O14   O     O_R   0.737140 0.790390 0.323350 -0.509079
O15   O     O_R   0.762860 0.290390 0.676650 -0.510232
O16   O     O_R   0.237140 0.290390 0.323350 -0.510951
C5    C     C_R   0.223739 0.865551 0.644305 0.543849
C6    C     C_R   0.791127 0.829328 0.359798 0.569956
C7    C     C_R   0.709335 0.330684 0.640150 0.568144
C8    C     C_R   0.290923 0.329522 0.359914 0.570997
O17   O     O_R   0.167460 0.907030 0.670940 -0.522234
O18   O     O_R   0.832540 0.907030 0.329060 -0.535792
O19   O     O_R   0.667460 0.407030 0.670940 -0.536599
O20   O     O_R   0.332540 0.407030 0.329060 -0.532336
O21   O     O_R   0.053950 0.750220 0.675100 -0.499392
O22   O     O_R   0.946050 0.750220 0.324900 -0.519772
O23   O     O_R   0.553950 0.250220 0.675100 -0.520461
O24   O     O_R   0.446050 0.250220 0.324900 -0.513972
C9    C     C_R   0.027247 0.654718 0.646128 0.536294
C10   C     C_R   0.972591 0.656367 0.354032 0.527512
C11   C     C_R   0.527925 0.156236 0.645685 0.534565
C12   C     C_R   0.472634 0.154958 0.353874 0.527075
O25   O     O_R   0.043300 0.547370 0.827390 -0.521049
O26   O     O_R   0.956700 0.547370 0.172610 -0.517528
O27   O     O_R   0.543300 0.047370 0.827390 -0.520444
O28   O     O_R   0.456700 0.047370 0.172610 -0.516926
O29   O     O_R   0.178690 0.455820 0.821860 -0.510275
O30   O     O_R   0.821310 0.455820 0.178140 -0.499777
O31   O     O_R   0.678690 0.955820 0.821860 -0.507456
O32   O     O_R   0.321310 0.955820 0.178140 -0.499342
C13   C     C_R   0.239353 0.463268 0.849669 0.545275
C14   C     C_R   0.760536 0.463267 0.150438 0.549479
C15   C     C_R   0.739353 0.963269 0.849669 0.547038
C16   C     C_R   0.260541 0.963283 0.150428 0.549564
O33   O     O_R   0.284750 0.540170 0.828860 -0.514925
O34   O     O_R   0.715250 0.540170 0.171140 -0.515774
O35   O     O_R   0.784750 0.040170 0.828860 -0.514193
O36   O     O_R   0.215250 0.040170 0.171140 -0.515711
O37   O     O_R   0.262920 0.788600 0.824420 -0.495773
O38   O     O_R   0.737080 0.788600 0.175580 -0.493266
O39   O     O_R   0.762920 0.288600 0.824420 -0.492515
O40   O     O_R   0.237080 0.288600 0.175580 -0.493891
C17   C     C_R   0.227467 0.875406 0.852599 0.544534
C18   C     C_R   0.772469 0.875710 0.147494 0.552324
C19   C     C_R   0.727457 0.375383 0.852612 0.550861
C20   C     C_R   0.272465 0.375717 0.147497 0.551572
O41   O     O_R   0.167530 0.905110 0.830340 -0.527649
O42   O     O_R   0.832470 0.905110 0.169660 -0.524317
O43   O     O_R   0.667530 0.405110 0.830340 -0.524801
O44   O     O_R   0.332470 0.405110 0.169660 -0.524251
O45   O     O_R   0.054010 0.748440 0.822860 -0.500734
O46   O     O_R   0.945990 0.748440 0.177140 -0.502355
O47   O     O_R   0.554010 0.248440 0.822860 -0.499152
O48   O     O_R   0.445990 0.248440 0.177140 -0.502815
C21   C     C_R   0.031804 0.651474 0.852514 0.548825
C22   C     C_R   0.972290 0.652915 0.150396 0.554591
C23   C     C_R   0.531780 0.151476 0.852498 0.550529
C24   C     C_R   0.472282 0.152914 0.150389 0.554812
Cr1   Cr    Cr6+3 0.113970 0.508630 0.747920 0.989835
Cr2   Cr    Cr6+3 0.886030 0.508630 0.252080 0.989939
Cr3   Cr    Cr6+3 0.613970 0.008630 0.747920 0.986166
Cr4   Cr    Cr6+3 0.386030 0.008630 0.252080 0.989186
Cr5   Cr    Cr6+3 0.269200 0.666740 0.749850 0.996130
Cr6   Cr    Cr6+3 0.730800 0.666740 0.250150 0.993260
Cr7   Cr    Cr6+3 0.769200 0.166740 0.749850 0.993131
Cr8   Cr    Cr6+3 0.230800 0.166740 0.250150 0.993208
Cr9   Cr    Cr6+3 0.112300 0.820070 0.749800 0.996767
Cr10  Cr    Cr6+3 0.887700 0.820070 0.250200 0.985307
Cr11  Cr    Cr6+3 0.612300 0.320070 0.749800 0.983696
Cr12  Cr    Cr6+3 0.387700 0.320070 0.250200 0.989786
O49   O     O_3   0.165160 0.665150 0.749190 -0.234727
O50   O     O_3   0.834840 0.665150 0.250810 -0.249453
O51   O     O_3   0.665160 0.165150 0.749190 -0.249817
O52   O     O_3   0.334840 0.165150 0.250810 -0.250213
C25   C     C_2   0.241116 0.893605 0.570687 -0.128064
C26   C     C_2   0.777374 0.855365 0.434468 -0.128199
C27   C     C_2   0.724201 0.358632 0.566032 -0.127056
C28   C     C_2   0.277100 0.354596 0.434902 -0.128521
C29   C     C_2   0.241500 0.897648 0.416361 -0.099854
C30   C     C_2   0.761633 0.891933 0.586340 -0.104303
C31   C     C_2   0.739085 0.391496 0.413816 -0.104804
C32   C     C_2   0.261840 0.390275 0.587047 -0.100739
C33   C     C_2   0.286372 0.827870 0.453778 -0.016273
C34   C     C_2   0.721080 0.812068 0.550370 -0.015415
C35   C     C_2   0.781191 0.315946 0.451086 -0.016527
C36   C     C_2   0.220891 0.310630 0.551273 -0.017545
C37   C     C_2   0.271236 0.807635 0.529766 -0.154147
C38   C     C_2   0.741320 0.778357 0.476515 -0.164657
C39   C     C_2   0.760193 0.281612 0.524402 -0.166380
C40   C     C_2   0.240235 0.278043 0.476779 -0.164721
H1    H     H_    0.287864 0.722147 0.553111 0.149651
H2    H     H_    0.721245 0.694176 0.454292 0.140069
H3    H     H_    0.779681 0.197070 0.546596 0.140335
H4    H     H_    0.219015 0.195101 0.454080 0.140431
H5    H     H_    0.190562 0.919855 0.439358 0.095085
H6    H     H_    0.813674 0.913408 0.566045 0.099202
H7    H     H_    0.686427 0.409603 0.433573 0.098866
H8    H     H_    0.314128 0.410752 0.566903 0.092622
H9    H     H_    0.224257 0.979617 0.548532 0.094263
H10   H     H_    0.796107 0.941935 0.454265 0.102605
H11   H     H_    0.706213 0.445590 0.546075 0.104676
H12   H     H_    0.297218 0.439666 0.455351 0.097666
C41   C     C_R   0.006216 0.670147 0.425308 -0.040998
C42   C     C_R   0.992881 0.662146 0.575023 -0.036954
C43   C     C_R   0.505948 0.163167 0.425251 -0.036608
C44   C     C_R   0.493268 0.170002 0.574896 -0.038497
C45   C     C_R   0.997585 0.894987 0.431599 -0.078135
C46   C     C_R   0.969034 0.879278 0.577543 -0.086048
C47   C     C_R   0.528876 0.380735 0.422705 -0.088180
C48   C     C_R   0.501848 0.394811 0.568944 -0.079445
C49   C     C_R   0.979814 0.998547 0.470239 -0.131799
C50   C     C_R   0.963250 0.989673 0.542532 -0.134184
C51   C     C_R   0.534976 0.490772 0.457825 -0.134253
C52   C     C_R   0.519796 0.498579 0.530438 -0.131357
C53   C     C_R   0.987876 0.774176 0.539759 0.005943
C54   C     C_R   0.997220 0.779762 0.464601 0.004402
C55   C     C_R   0.501578 0.280019 0.535691 0.001847
C56   C     C_R   0.510436 0.275124 0.460485 0.003234
H13   H     H_    0.978074 0.085367 0.443636 0.097438
H14   H     H_    0.945535 0.067470 0.572242 0.098439
H15   H     H_    0.551990 0.568932 0.427873 0.099277
H16   H     H_    0.523050 0.584493 0.557567 0.095068
H17   H     H_    0.012472 0.906503 0.376254 0.128866
H18   H     H_    0.955134 0.875392 0.633605 0.120169
H19   H     H_    0.542497 0.377626 0.366573 0.123110
H20   H     H_    0.487605 0.405856 0.624466 0.128854
C57   C     C_R   0.991199 0.555468 0.533641 0.031081
C58   C     C_R   0.017342 0.561924 0.463507 0.024176
C59   C     C_R   0.481606 0.061807 0.536843 0.024619
C60   C     C_R   0.507700 0.056710 0.466607 0.028995
C61   C     C_R   0.968472 0.441408 0.560375 0.053260
C62   C     C_R   0.047429 0.456612 0.432519 0.058121
C63   C     C_R   0.456482 0.953477 0.569367 0.059120
C64   C     C_R   0.535404 0.945674 0.441116 0.052127
C65   C     C_R   0.991386 0.336955 0.525151 -0.162529
C66   C     C_R   0.033615 0.344354 0.464444 -0.143365
C67   C     C_R   0.476385 0.842955 0.539282 -0.152139
C68   C     C_R   0.518415 0.839636 0.478298 -0.154854
H21   H     H_    0.978714 0.249307 0.546490 0.092396
H22   H     H_    0.054215 0.261795 0.441394 0.098447
H23   H     H_    0.460728 0.758952 0.564543 0.092432
H24   H     H_    0.536801 0.753837 0.459199 0.093123
C69   C     C_2   0.246270 0.918685 0.923470 -0.098646
C70   C     C_2   0.753484 0.919654 0.076812 -0.098724
C71   C     C_2   0.746238 0.418601 0.923503 -0.098830
C72   C     C_2   0.253474 0.419672 0.076819 -0.099021
C73   C     C_2   0.251041 0.908830 0.080861 -0.129155
C74   C     C_2   0.748528 0.909472 0.919479 -0.130872
C75   C     C_2   0.751022 0.408750 0.080891 -0.129090
C76   C     C_2   0.248523 0.409479 0.919482 -0.130827
C77   C     C_2   0.194625 0.941230 0.043207 -0.131674
C78   C     C_2   0.805027 0.942158 0.957033 -0.132735
C79   C     C_2   0.694591 0.441097 0.043244 -0.131647
C80   C     C_2   0.305022 0.442155 0.957038 -0.132622
C81   C     C_2   0.197256 0.970730 0.966558 0.005865
C82   C     C_2   0.802588 0.971712 0.033616 0.004978
C83   C     C_2   0.697216 0.470613 0.966596 0.005269
C84   C     C_2   0.302578 0.471724 0.033620 0.004999
H25   H     H_    0.147802 0.969224 0.071953 0.152830
H26   H     H_    0.851949 0.969974 0.928212 0.152880
H27   H     H_    0.647769 0.469078 0.071997 0.152775
H28   H     H_    0.351948 0.469957 0.928219 0.152867
H29   H     H_    0.298264 0.874218 0.056239 0.097614
H30   H     H_    0.701140 0.875259 0.944201 0.089268
H31   H     H_    0.798244 0.374137 0.056266 0.097707
H32   H     H_    0.201130 0.375295 0.944206 0.089370
H33   H     H_    0.292462 0.875923 0.944961 0.076191
H34   H     H_    0.706973 0.877286 0.055469 0.071445
H35   H     H_    0.792425 0.375823 0.944992 0.075859
H36   H     H_    0.206962 0.377306 0.055478 0.071451
C85   C     C_2   0.011937 0.655379 0.927099 -0.096288
C86   C     C_2   0.011009 0.664882 0.084135 -0.109688
C87   C     C_2   0.511895 0.155376 0.927078 -0.096914
C88   C     C_2   0.510982 0.164876 0.084117 -0.109582
C89   C     C_2   0.026411 0.565971 0.046522 -0.165631
C90   C     C_2   0.040618 0.571612 0.970524 -0.149077
C91   C     C_2   0.526358 0.065960 0.046499 -0.165430
C92   C     C_2   0.540564 0.071598 0.970503 -0.149300
H37   H     H_    0.023602 0.476177 0.070297 0.148213
H38   H     H_    0.072704 0.498607 0.949212 0.150438
H39   H     H_    0.523538 0.976164 0.070270 0.148345
H40   H     H_    0.572648 0.998586 0.949196 0.150489
H41   H     H_    0.017521 0.754921 0.061420 0.098248
H42   H     H_    0.980103 0.729692 0.946890 0.086448
H43   H     H_    0.517501 0.254914 0.061402 0.098132
H44   H     H_    0.480064 0.229695 0.946867 0.086387
C93   C     C_3   0.352811 0.771984 0.423327 -0.252669
C94   C     C_3   0.337537 0.685211 0.362096 -0.405376
H45   H     H_    0.302905 0.612097 0.381834 0.161475
H46   H     H_    0.311455 0.731065 0.316675 0.163128
H47   H     H_    0.387503 0.644807 0.342813 0.145627
H48   H     H_    0.390557 0.843008 0.406353 0.199648
H49   H     H_    0.379501 0.717912 0.465210 0.131432
C95   C     C_3   0.654490 0.757059 0.580794 -0.257345
C96   C     C_3   0.669430 0.679669 0.646498 -0.404092
H50   H     H_    0.710961 0.612964 0.633727 0.165867
H51   H     H_    0.687488 0.735109 0.692221 0.162555
H52   H     H_    0.620666 0.631406 0.662769 0.147959
H53   H     H_    0.615442 0.828223 0.593456 0.193877
H54   H     H_    0.629993 0.697134 0.540308 0.123740
C97   C     C_3   0.850285 0.266844 0.423273 -0.253493
C98   C     C_3   0.839277 0.183706 0.359258 -0.402750
H55   H     H_    0.799932 0.113521 0.373179 0.166537
H56   H     H_    0.820073 0.234036 0.311986 0.165030
H57   H     H_    0.889683 0.139343 0.344913 0.139823
H58   H     H_    0.887428 0.341203 0.410130 0.196436
H59   H     H_    0.875868 0.212251 0.465636 0.124401
C99   C     C_3   0.153983 0.256774 0.582225 -0.253317
C100  C     C_3   0.167457 0.183412 0.649975 -0.407537
H60   H     H_    0.211672 0.120566 0.641163 0.152954
H61   H     H_    0.180973 0.241604 0.696072 0.162711
H62   H     H_    0.119373 0.131240 0.664085 0.150814
H63   H     H_    0.115244 0.329029 0.593317 0.195245
H64   H     H_    0.129495 0.194608 0.542766 0.130335
C101  C     C_3   0.139640 0.054343 0.937836 -0.241551
C102  C     C_3   0.121202 0.158907 0.988090 -0.464922
H65   H     H_    0.084508 0.128252 0.030648 0.139917
H66   H     H_    0.169598 0.195649 0.012809 0.167300
H67   H     H_    0.094648 0.232237 0.957789 0.128809
H68   H     H_    0.157646 0.097398 0.887251 0.166645
H69   H     H_    0.091169 0.000787 0.927347 0.163746
C103  C     C_3   0.860729 0.054756 0.062237 -0.243958
C104  C     C_3   0.879838 0.159131 0.011872 -0.461695
H70   H     H_    0.916511 0.128177 0.969488 0.140727
H71   H     H_    0.831711 0.196068 0.986925 0.167538
H72   H     H_    0.906638 0.232371 0.042137 0.134518
H73   H     H_    0.842974 0.097912 0.112785 0.168046
H74   H     H_    0.908874 0.000754 0.072781 0.162268
C105  C     C_3   0.639601 0.554244 0.937891 -0.241598
C106  C     C_3   0.621196 0.658827 0.988149 -0.464769
H75   H     H_    0.584521 0.628188 0.030730 0.139934
H76   H     H_    0.669610 0.695572 0.012837 0.167390
H77   H     H_    0.594630 0.732160 0.957858 0.128801
H78   H     H_    0.657596 0.597299 0.887301 0.167706
H79   H     H_    0.591121 0.500702 0.927416 0.163636
C107  C     C_3   0.360711 0.554785 0.062235 -0.243863
C108  C     C_3   0.379786 0.659183 0.011872 -0.461750
H80   H     H_    0.416445 0.628257 0.969469 0.140599
H81   H     H_    0.331643 0.696106 0.986949 0.167572
H82   H     H_    0.406589 0.732424 0.042133 0.134524
H83   H     H_    0.342965 0.597918 0.112791 0.168151
H84   H     H_    0.408868 0.500802 0.072758 0.162200
C109  C     C_3   0.098173 0.461547 0.369680 -0.260067
C110  C     C_3   0.156316 0.555521 0.380076 -0.432393
H85   H     H_    0.135707 0.648966 0.374667 0.140529
H86   H     H_    0.180861 0.545484 0.433466 0.160920
H87   H     H_    0.196625 0.542904 0.337878 0.158532
H88   H     H_    0.123184 0.371747 0.362910 0.165450
H89   H     H_    0.071508 0.479750 0.318456 0.168321
C111  C     C_3   0.916140 0.426470 0.621680 -0.249667
C112  C     C_3   0.860047 0.525849 0.625094 -0.421576
H90   H     H_    0.881674 0.612175 0.645654 0.134248
H91   H     H_    0.836238 0.540778 0.571698 0.155741
H92   H     H_    0.818421 0.499086 0.663393 0.166610
H93   H     H_    0.887817 0.339009 0.614872 0.150038
H94   H     H_    0.943330 0.419371 0.673740 0.167500
C113  C     C_3   0.589019 0.938308 0.380586 -0.254890
C114  C     C_3   0.647699 0.032970 0.387082 -0.425623
H95   H     H_    0.628809 0.125195 0.374104 0.136878
H96   H     H_    0.670115 0.032813 0.441788 0.159991
H97   H     H_    0.689600 0.012567 0.347792 0.163292
H98   H     H_    0.614183 0.847549 0.380903 0.153801
H99   H     H_    0.564138 0.946492 0.327523 0.169496
C115  C     C_3   0.409432 0.949248 0.635365 -0.249212
C116  C     C_3   0.362274 0.060212 0.646263 -0.428200
H100  H     H_    0.337529 0.088039 0.595178 0.151810
H101  H     H_    0.320631 0.037840 0.685688 0.138359
H102  H     H_    0.391690 0.137601 0.669031 0.142598
H103  H     H_    0.374658 0.869523 0.629999 0.155127
H104  H     H_    0.440206 0.931173 0.684384 0.167226

loop_
_geom_bond_atom_site_label_1
_geom_bond_atom_site_label_2
_geom_bond_distance
_ccdc_geom_bond_type
C18   O42   1.257241 A    
Cr11  O51   1.985293 S    
O4    C12   1.271767 A    
C46   C50   1.387377 A    
C111  H93   1.111517 S    
C105  H79   1.111764 S    
O39   C19   1.285768 A    
C47   C56   1.405772 A    
O20   Cr12  2.050175 S    
C44   C55   1.426153 A    
C93   C94   1.522643 S    
C58   C62   1.420417 A    
C75   C79   1.334784 D    
C100  H60   1.103576 S    
C93   H49   1.109683 S    
C98   H57   1.110149 S    
C36   C40   1.486690 S    
C45   C54   1.412936 A    
C60   C64   1.417638 A    
C42   C57   1.410235 A    
O26   C22   1.270248 A    
C110  H86   1.110069 S    
C100  H62   1.110567 S    
O1    C9    1.270514 A    
C85   C90   1.347696 D    
C5    C25   1.449916 S    
C106  H75   1.110095 S    
O15   Cr7   1.937162 S    
O7    C3    1.276124 A    
C28   H12   1.083324 S    
C32   H8    1.085973 S    
O5    C1    1.276020 A    
C95   H53   1.107649 S    
C94   H46   1.108170 S    
C88   C91   1.332354 D    
O24   C12   1.287490 A    
C13   C76   1.446372 S    
C51   H15   1.076851 S    
O25   C21   1.261096 A    
C29   H5    1.087951 S    
C52   H16   1.077640 S    
O35   Cr7   2.055931 S    
O38   C18   1.283448 A    
C31   C35   1.352166 D    
C108  H81   1.107235 S    
C64   C68   1.397566 A    
C30   C34   1.351082 D    
C77   H25   1.085295 S    
C105  C106  1.530572 S    
C47   H19   1.082688 S    
C14   C75   1.446789 S    
O8    Cr4   1.930502 S    
C96   H52   1.110133 S    
O23   Cr11  1.946317 S    
C103  C104  1.530265 S    
C102  H67   1.110960 S    
C109  C110  1.526889 S    
O30   C14   1.270997 A    
C116  H102  1.106032 S    
C103  H74   1.111767 S    
C101  H68   1.112231 S    
O32   Cr4   1.943865 S    
C12   C43   1.483453 S    
C65   H21   1.072567 S    
C26   C38   1.343542 D    
C61   C65   1.398582 A    
C1    O9    1.264830 A    
C69   C81   1.360205 D    
C62   C66   1.398715 A    
C15   C74   1.446374 S    
C19   C71   1.456144 S    
O11   Cr7   2.061243 S    
C68   H24   1.071525 S    
O21   C9    1.289315 A    
C106  H76   1.107518 S    
C111  C112  1.533137 S    
C94   H47   1.110523 S    
C36   C99   1.516700 S    
C67   C68   1.393078 A    
C70   H34   1.077433 S    
C86   H41   1.086894 S    
C67   H23   1.080914 S    
C85   H42   1.085526 S    
O3    Cr3   2.064949 S    
C112  H90   1.106375 S    
Cr4   O52   1.984807 S    
C46   C53   1.405871 A    
O47   C23   1.275364 A    
C76   H32   1.079380 S    
C57   C61   1.419825 A    
C48   C52   1.393655 A    
C99   H64   1.111097 S    
C83   C105  1.532439 S    
O2    C10   1.286778 A    
C10   C41   1.489305 S    
O10   Cr6   2.058069 S    
C113  C114  1.531720 S    
O42   Cr10  2.066099 S    
Cr5   O49   1.978999 S    
C9    C42   1.487119 S    
O18   Cr10  2.050175 S    
C66   H22   1.082328 S    
C115  H104  1.108156 S    
C104  H70   1.110128 S    
O17   Cr9   2.046123 S    
C43   C60   1.406729 A    
C72   C84   1.359845 D    
C64   C113  1.525319 S    
C34   C95   1.512921 S    
C11   C44   1.489794 S    
C102  H65   1.110071 S    
C44   C59   1.408268 A    
C69   H33   1.077022 S    
C81   C101  1.532443 S    
C4    O12   1.266594 A    
C97   H59   1.109685 S    
Cr7   O51   1.978999 S    
C35   C97   1.514242 S    
O6    Cr2   1.930502 S    
C90   H38   1.087474 S    
C25   H9    1.084855 S    
C7    O19   1.295645 A    
C77   C81   1.472271 S    
C113  H98   1.110986 S    
O24   Cr12  1.947430 S    
O16   Cr8   1.938784 S    
O9    Cr5   2.061243 S    
C78   H26   1.085319 S    
C37   H1    1.087252 S    
O30   Cr2   1.943865 S    
C94   H45   1.103015 S    
O22   C10   1.275759 A    
O27   Cr3   2.049202 S    
C109  H88   1.107440 S    
O48   Cr12  1.930143 S    
C8    O20   1.298045 A    
C108  H80   1.110125 S    
O32   C16   1.271009 A    
C98   H55   1.105986 S    
C46   H18   1.082864 S    
O37   C17   1.285769 A    
C35   C39   1.477741 S    
C18   C70   1.455863 S    
C23   C87   1.446855 S    
C74   C78   1.334813 D    
O15   C7    1.306322 A    
C95   C96   1.524677 S    
C108  H82   1.110964 S    
C15   O35   1.269304 A    
C16   C73   1.446803 S    
C88   H43   1.086896 S    
C107  C108  1.530267 S    
C34   C38   1.482882 S    
C43   C56   1.403536 A    
C45   H17   1.081096 S    
C57   C58   1.404984 A    
C30   H6    1.084955 S    
O13   C5    1.269874 A    
O28   Cr4   2.047071 S    
C48   C55   1.411904 A    
O43   Cr11  2.065068 S    
O48   C24   1.270627 A    
O12   Cr8   2.058069 S    
Cr12  O52   1.980738 S    
C103  H73   1.112270 S    
C101  H69   1.111735 S    
O37   Cr5   1.943251 S    
C97   C98   1.524793 S    
C45   C49   1.394980 A    
C101  C102  1.530507 S    
C27   C39   1.341814 D    
O34   Cr6   2.057026 S    
O46   Cr10  1.930143 S    
O39   Cr7   1.943251 S    
C29   C33   1.348096 D    
C47   C51   1.386084 A    
C13   O33   1.269316 A    
C92   H40   1.087474 S    
O3    C11   1.285504 A    
O8    C4    1.273567 A    
C33   C37   1.467962 S    
C61   C111  1.526199 S    
O13   Cr5   1.937162 S    
C96   H50   1.106942 S    
C6    C26   1.451197 S    
C115  C116  1.533099 S    
O47   Cr11  1.926570 S    
Cr2   O50   1.984807 S    
C102  H66   1.107475 S    
C41   C54   1.426792 A    
C112  H91   1.111055 S    
C1    C32   1.462539 S    
Cr1   O49   1.980415 S    
C87   C92   1.347692 D    
C71   C83   1.360220 D    
C72   H36   1.077427 S    
C76   C80   1.334802 D    
Cr3   O51   1.980415 S    
O14   Cr6   1.938784 S    
O21   Cr9   1.946317 S    
C78   C82   1.471834 S    
Cr10  O50   1.980738 S    
C3    O11   1.264289 A    
C115  H103  1.103959 S    
C104  H71   1.107224 S    
C24   C88   1.447202 S    
C49   C50   1.392605 A    
C8    C28   1.455100 S    
C80   C84   1.471845 S    
C7    C27   1.448625 S    
C4    C29   1.453428 S    
C110  H87   1.108876 S    
C114  H95   1.106926 S    
C73   H29   1.079543 S    
C55   C56   1.419189 A    
C21   C85   1.446876 S    
C59   C63   1.421933 A    
C40   H4    1.086620 S    
C63   C115  1.524809 S    
C3    C30   1.461526 S    
O31   Cr3   1.944908 S    
C79   H27   1.085304 S    
C53   C54   1.419563 A    
O26   Cr2   2.047071 S    
C26   H10   1.084568 S    
C49   H13   1.079849 S    
C107  H83   1.112261 S    
C80   H28   1.085321 S    
C5    O17   1.266728 A    
C74   H30   1.079400 S    
C95   H54   1.109162 S    
O22   Cr10  1.947430 S    
O28   C24   1.270248 A    
C107  H84   1.111765 S    
C25   C37   1.348122 D    
C109  H89   1.104688 S    
C99   H63   1.106461 S    
C19   O43   1.258878 A    
C48   H20   1.080992 S    
C70   C82   1.359850 D    
C20   C72   1.455879 S    
C98   H56   1.107762 S    
O2    Cr2   2.064112 S    
O6    C2    1.275156 A    
C113  H99   1.105432 S    
O7    Cr3   1.933243 S    
C100  H61   1.106788 S    
C17   O41   1.258899 A    
C51   C52   1.392319 A    
C33   C93   1.517778 S    
C84   C107  1.532396 S    
C14   O34   1.270858 A    
O25   Cr1   2.049202 S    
O40   Cr8   1.940748 S    
C106  H77   1.110988 S    
C79   C83   1.472279 S    
C87   H44   1.085525 S    
C20   O44   1.257256 A    
C39   H3    1.087154 S    
O1    Cr1   2.064949 S    
C73   C77   1.334794 D    
C86   C89   1.332361 D    
O14   C6    1.306395 A    
C41   C58   1.408000 A    
C116  H100  1.110574 S    
Cr8   O52   1.979089 S    
C42   C53   1.404318 A    
C31   H7    1.085998 S    
C65   C66   1.392640 A    
C17   C69   1.456119 S    
Cr6   O50   1.979089 S    
O46   C22   1.270634 A    
C82   C103  1.532421 S    
C2    C31   1.460292 S    
C114  H97   1.107127 S    
O45   C21   1.275358 A    
C63   C67   1.396592 A    
C32   C36   1.351976 D    
O19   Cr11  2.046123 S    
C97   H58   1.108347 S    
C96   H51   1.107614 S    
C27   H11   1.085716 S    
C38   H2    1.086899 S    
C93   H48   1.107229 S    
O23   C11   1.274186 A    
O33   Cr5   2.055931 S    
C116  H101  1.108703 S    
O5    Cr1   1.933243 S    
C89   C90   1.449315 S    
C91   C92   1.449263 S    
C112  H92   1.106383 S    
C91   H39   1.086847 S    
O4    Cr4   2.064112 S    
C28   C40   1.346447 D    
O29   Cr1   1.944908 S    
C89   H37   1.086845 S    
C16   O36   1.270850 A    
O40   C20   1.283448 A    
C50   H14   1.077715 S    
O44   Cr12  2.066099 S    
C114  H96   1.110645 S    
C105  H78   1.112231 S    
C6    O18   1.296134 A    
C104  H72   1.110966 S    
C110  H85   1.108563 S    
O29   C13   1.269593 A    
O45   Cr9   1.926570 S    
C62   C109  1.521051 S    
O41   Cr9   2.065068 S    
C71   H35   1.077013 S    
O36   Cr8   2.057026 S    
C75   H31   1.079551 S    
O31   C15   1.269594 A    
C99   C100  1.526811 S    
O16   C8    1.305196 A    
C22   C86   1.447215 S    
Cr9   O49   1.985293 S    
C59   C60   1.406005 A    
C111  H94   1.107544 S    
C2    O10   1.267786 A    
O38   Cr6   1.940748 S    
O27   C23   1.261089 A    
