data_mof_unit_53232.cif
_audit_creation_date              2012-10-26T17:50:52-0400
_audit_creation_method            fapswitch 2.2
_symmetry_space_group_name_H-M    P1
_symmetry_Int_Tables_number       1
_space_group_crystal_system       triclinic
_cell_length_a                    18.342272
_cell_length_b                    19.261516
_cell_length_c                    19.071636
_cell_angle_alpha                 110.542029
_cell_angle_beta                  109.013097
_cell_angle_gamma                 109.131175
_cell_volume                      5168.53789408

loop_
_atom_site_label
_atom_site_type_symbol
_atom_type_description
_atom_site_fract_x
_atom_site_fract_y
_atom_site_fract_z
_atom_type_partial_charge
C1    C     C_R   0.379538 0.381442 0.499065 0.583163
C2    C     C_R   0.330494 0.320644 0.582270 -0.045784
C3    C     C_R   0.192811 0.184662 0.506599 0.015902
C4    C     C_R   0.618019 0.498692 0.618955 0.523868
C5    C     C_R   0.190595 0.169164 0.428372 -0.054433
C6    C     C_R   0.240785 0.237955 0.423007 0.010208
C7    C     C_R   0.313284 0.314799 0.501283 0.024755
C8    C     C_R   0.140987 0.085277 0.355770 -0.089217
C9    C     C_R   0.136636 0.070816 0.277417 0.243102
C10   C     C_R   0.172021 0.140748 0.268152 -0.077146
C11   C     C_R   0.216212 0.224253 0.338509 0.221335
C12   C     C_3   0.805019 0.492291 0.804595 0.029710
C13   C     C_R   0.243927 0.543874 0.404109 0.019208
C14   C     C_R   0.188603 0.574863 0.419983 0.263889
C15   C     C_R   0.135742 0.586303 0.358457 -0.108449
C16   C     C_R   0.618984 0.617685 0.499679 0.520531
C17   C     C_R   0.136793 0.564746 0.281473 -0.127751
C18   C     C_R   0.191824 0.532190 0.263955 -0.007734
C19   C     C_R   0.249404 0.524542 0.327360 -0.014453
C20   C     C_R   0.191511 0.509940 0.185083 0.028037
C21   C     C_R   0.254942 0.488990 0.171463 -0.022905
C22   C     C_R   0.300017 0.466154 0.226598 -0.060291
C23   C     C_3   0.849386 0.554305 0.776480 -0.311161
C24   C     C_R   0.306417 0.493676 0.309978 0.040893
C25   C     C_R   0.272521 0.486087 0.102791 0.200198
C26   C     C_R   0.319442 0.445261 0.080322 0.202968
C27   C     C_R   0.340339 0.400345 0.120105 0.171826
C28   C     C_R   0.377757 0.497606 0.379815 0.584881
C29   C     C_R   0.333670 0.413485 0.193611 -0.053061
C30   C     C_R   0.572252 0.725417 0.447222 -0.083353
C31   C     C_R   0.550554 0.783882 0.434398 -0.129456
C32   C     C_R   0.615785 0.858615 0.451130 -0.090240
C33   C     C_R   0.703468 0.874311 0.476543 0.301017
C34   C     C_3   0.749753 0.525723 0.839531 0.118915
C35   C     C_R   0.725267 0.810154 0.481722 0.097800
C36   C     C_R   0.659856 0.739042 0.474480 -0.008838
C37   C     C_R   0.807690 0.812235 0.492687 0.044784
C38   C     C_R   0.821340 0.744249 0.495192 0.015112
C39   C     C_R   0.762835 0.684417 0.504874 0.029351
C40   C     C_3   0.662958 0.402679 0.659003 -0.207962
C41   C     C_R   0.682269 0.682142 0.494218 0.004443
C42   C     C_R   0.891971 0.733588 0.487455 -0.070000
C43   C     C_R   0.910634 0.673367 0.500907 -0.090185
C44   C     C_R   0.859228 0.621846 0.521389 -0.101398
C45   C     C_R   0.410764 0.386453 0.660333 -0.085562
C46   C     C_R   0.785682 0.626690 0.523008 -0.079343
C47   C     C_R   0.996962 0.382634 0.877998 0.535605
C48   C     C_R   0.876592 0.496016 0.874957 0.587320
C49   C     C_R   0.994842 0.618111 0.114692 0.567155
C50   C     C_R   0.118582 0.500060 0.114359 0.526733
C51   C     C_R   0.002652 0.883242 0.382604 0.493247
C52   C     C_3   0.742486 0.401613 0.719416 0.132716
C53   C     C_R   0.120386 0.120891 0.504304 0.499501
C54   C     C_R   0.999264 0.118746 0.618874 0.579360
C55   C     C_R   0.879281 0.881949 0.499160 0.624605
C56   C     C_R   0.429335 0.388716 0.738369 0.227560
C57   C     C_R   0.944888 0.361324 0.709551 -0.089256
C58   C     C_R   0.931980 0.360569 0.633263 -0.109308
C59   C     C_R   0.952387 0.310194 0.578437 0.269157
C60   C     C_R   0.979773 0.256617 0.598301 -0.022266
C61   C     C_R   0.984711 0.249787 0.671360 -0.046177
C62   C     C_R   0.975480 0.309272 0.731437 0.020079
C63   C     C_R   0.001588 0.187904 0.687638 -0.018725
C64   C     C_3   0.778317 0.547271 0.699210 -0.278209
C65   C     C_R   0.027852 0.198624 0.772590 -0.000502
C66   C     C_R   0.038642 0.272085 0.837365 -0.008636
C67   C     C_R   0.368473 0.322658 0.739513 0.246971
C68   C     C_R   0.001672 0.318966 0.813741 0.022548
C69   C     C_R   0.048103 0.142987 0.799209 0.256461
C70   C     C_R   0.104199 0.174815 0.886515 -0.038906
C71   C     C_R   0.123255 0.252034 0.949335 -0.138702
C72   C     C_R   0.086509 0.297827 0.925355 -0.094048
C73   C     C_R   0.161049 0.760167 0.266067 -0.083432
C74   C     C_R   0.241805 0.834525 0.330055 -0.089315
C75   C     C_R   0.242919 0.905248 0.385145 -0.083475
C76   C     C_3   0.688853 0.539406 0.773911 -0.227671
C77   C     C_R   0.163608 0.900188 0.379524 -0.063773
C78   C     C_R   0.285070 0.263902 0.665992 -0.104515
C79   C     C_R   0.080930 0.823881 0.317207 0.040263
C80   C     C_R   0.078661 0.755233 0.254927 0.007964
C81   C     C_R   0.001334 0.814226 0.317106 0.011861
C82   C     C_R   0.919771 0.737700 0.255325 -0.066042
C83   C     C_R   0.913808 0.675170 0.183323 0.042175
C84   C     C_R   0.994981 0.683616 0.184253 0.006656
C85   C     C_R   0.843554 0.723241 0.264573 -0.101994
C86   C     C_R   0.760378 0.653858 0.199750 0.201116
C87   C     C_R   0.751679 0.597009 0.124460 -0.083990
C88   C     C_3   0.685281 0.496783 0.686199 -0.034693
C89   C     C_R   0.267255 0.257301 0.585202 -0.037244
C90   C     C_R   0.826617 0.606816 0.114583 0.219902
Cu1   Cu    Cu3+1 0.500360 0.438220 0.438540 1.029002
Cu2   Cu    Cu3+1 0.499640 0.561780 0.561460 1.007047
Cu3   Cu    Cu3+1 0.935530 0.438290 0.997340 1.096692
Cu4   Cu    Cu3+1 0.059130 0.561800 0.997250 1.029279
Cu5   Cu    Cu3+1 0.937870 0.000030 0.437890 1.083473
Cu6   Cu    Cu3+1 0.062130 0.000000 0.562130 1.083386
H1    H     H_    0.648569 0.366413 0.591603 0.151261
H2    H     H_    0.278919 0.532853 0.452574 0.211764
H3    H     H_    0.092894 0.611074 0.369548 0.103262
H4    H     H_    0.094794 0.575313 0.236405 0.119672
H5    H     H_    0.348105 0.374208 0.217699 0.232132
H6    H     H_    0.874936 0.576412 0.533857 0.114959
H7    H     H_    0.518835 0.668625 0.434255 0.139523
H8    H     H_    0.483173 0.772286 0.413776 0.128884
H9    H     H_    0.597853 0.905230 0.444762 0.114500
H10   H     H_    0.932567 0.770030 0.469189 0.118782
H11   H     H_    0.965634 0.667187 0.496060 0.117579
H12   H     H_    0.796810 0.588944 0.900298 0.184330
H13   H     H_    0.746881 0.584185 0.537835 0.122380
H14   H     H_    0.160536 0.272960 0.016859 0.140572
H15   H     H_    0.932562 0.404577 0.751956 0.138168
H16   H     H_    0.909539 0.401890 0.618835 0.090306
H17   H     H_    0.781310 0.393138 0.685948 0.105430
H18   H     H_    0.000557 0.223862 0.557217 0.169908
H19   H     H_    0.123589 0.134669 0.906789 0.174868
H20   H     H_    0.098111 0.354888 0.976595 0.124728
H21   H     H_    0.685787 0.545309 0.072285 0.179374
H22   H     H_    0.164982 0.706668 0.227191 0.132579
H23   H     H_    0.792875 0.612529 0.711412 0.143925
H24   H     H_    0.303744 0.837313 0.336596 0.126298
H25   H     H_    0.305600 0.963573 0.433845 0.137712
H26   H     H_    0.168373 0.956533 0.425095 0.127236
H27   H     H_    0.780767 0.513999 0.639780 0.127554
H28   H     H_    0.847863 0.765856 0.322543 0.154515
H29   H     H_    0.896297 0.539204 0.757926 0.132171
H30   H     H_    0.715825 0.609327 0.799617 0.139153
H31   H     H_    0.620954 0.513800 0.765422 0.185546
H32   H     H_    0.496050 0.469239 0.860578 0.393985
H33   H     H_    0.544292 0.360416 0.886639 0.369726
H34   H     H_    0.888657 0.621664 0.831326 0.156878
H35   H     H_    0.022166 0.904252 0.050913 0.378313
H36   H     H_    0.067236 0.212227 0.193608 0.354490
H37   H     H_    0.340449 0.317785 0.026312 0.385779
H38   H     H_    0.144953 0.613727 0.497521 0.326704
H39   H     H_    0.229412 0.495856 0.001928 0.363919
H40   H     H_    0.480147 0.464490 0.079386 0.403947
H41   H     H_    0.762316 0.226521 0.742802 0.375326
H42   H     H_    0.740482 0.989351 0.493483 0.320275
H43   H     H_    0.926903 0.353121 0.500554 0.332097
H44   H     H_    0.854745 0.025586 0.674365 0.348668
H45   H     H_    0.157346 0.130498 0.204410 0.185542
H46   H     H_    0.609661 0.669296 0.112215 0.359100
H47   H     H_    0.755936 0.499523 0.006183 0.369914
H48   H     H_    0.642376 0.425618 0.807791 0.374453
H49   H     H_    0.462605 0.435431 0.662328 0.157723
H50   H     H_    0.238583 0.219352 0.672947 0.181204
H51   H     H_    0.108201 0.030391 0.360392 0.151130
H52   H     H_    0.601879 0.369466 0.660857 0.153064
O1    O     O_R   0.410140 0.357660 0.448100 -0.496982
O2    O     O_R   0.052970 0.909860 0.462770 -0.547514
O3    O     O_R   0.037700 0.090200 0.447550 -0.499394
O4    O     O_R   0.409530 0.462000 0.551910 -0.498051
O5    O     O_R   0.142640 0.090170 0.552470 -0.537228
O6    O     O_R   0.947030 0.090160 0.537260 -0.503939
O7    O     O_R   0.051970 0.090130 0.642170 -0.460725
O8    O     O_R   0.857360 0.909860 0.447560 -0.446765
O9    O     O_R   0.962300 0.909830 0.552480 -0.461206
O10   O     O_R   0.590960 0.447830 0.538760 -0.526490
O11   O     O_R   0.590350 0.552170 0.642570 -0.518374
O12   O     O_R   0.049980 0.462000 0.907580 -0.523338
O13   O     O_R   0.590470 0.538000 0.448090 -0.504839
O14   O     O_R   0.589860 0.642340 0.551900 -0.508689
O15   O     O_R   0.409650 0.447830 0.357430 -0.486995
O16   O     O_R   0.409040 0.552170 0.461240 -0.539716
O17   O     O_R   0.945600 0.357690 0.907660 -0.484767
O18   O     O_3   0.507465 0.456163 0.811495 -0.704997
O19   O     O_2   0.332962 0.281732 0.849484 -0.183529
O20   O     O_2   0.399194 0.212633 0.779713 -0.266000
O21   O     O_3   0.502422 0.369579 0.905837 -0.450700
O22   O     O_2   0.137698 0.926477 0.201134 -0.270173
O23   O     O_R   0.854480 0.447890 0.906670 -0.380541
O24   O     O_2   0.995523 0.913508 0.186777 -0.268272
O25   O     O_3   0.052837 0.965253 0.096231 -0.506169
O26   O     O_2   0.231935 0.379968 0.389426 -0.282182
O27   O     O_2   0.235608 0.308727 0.256078 -0.337921
O28   O     O_3   0.084927 0.254073 0.252819 -0.465622
O29   O     O_3   0.367427 0.343006 0.089649 -0.659089
O30   O     O_3   0.187448 0.592734 0.496175 -0.670175
O31   O     O_3   0.253116 0.531199 0.064731 -0.621448
O32   O     O_2   0.277771 0.393446 0.916349 -0.265400
O33   O     O_2   0.387563 0.544207 0.022079 -0.195250
O34   O     O_R   0.958860 0.552200 0.906600 -0.547435
O35   O     O_3   0.438606 0.433136 0.016520 -0.379773
O36   O     O_2   0.680602 0.314505 0.794978 -0.227903
O37   O     O_2   0.626839 0.232830 0.640484 -0.283255
O38   O     O_3   0.788266 0.282571 0.746727 -0.536951
O39   O     O_3   0.767353 0.953345 0.499993 -0.645347
O40   O     O_3   0.946837 0.312108 0.505303 -0.660203
O41   O     O_2   0.029327 0.988698 0.719305 -0.223672
O42   O     O_2   0.948652 0.004913 0.797223 -0.275874
O43   O     O_3   0.887450 0.000279 0.652606 -0.499639
O44   O     O_2   0.634667 0.567920 0.225089 -0.247891
O45   O     O_R   0.944670 0.538090 0.087010 -0.478016
O46   O     O_2   0.686122 0.720888 0.284650 -0.293555
O47   O     O_3   0.584526 0.619353 0.118608 -0.450159
O48   O     O_3   0.813202 0.553225 0.035845 -0.641127
O49   O     O_3   0.700449 0.471202 0.860165 -0.633789
O50   O     O_R   0.049050 0.642400 0.086940 -0.509861
O51   O     O_R   0.035800 0.447890 0.088000 -0.523023
O52   O     O_R   0.140170 0.552200 0.087920 -0.463485
O53   O     O_R   0.948030 0.909890 0.357850 -0.494257
S1    S     S_3+6 0.400303 0.295761 0.820081 0.084596
S2    S     S_3+6 0.079066 0.965407 0.189420 0.016980
S3    S     S_3+6 0.195630 0.296264 0.310800 0.017063
S4    S     S_3+6 0.355433 0.454857 0.006496 0.080151
S5    S     S_3+6 0.705903 0.305874 0.726280 0.009183
S6    S     S_3+6 0.978049 0.031227 0.741260 0.029181
S7    S     S_3+6 0.665650 0.641203 0.210199 0.015102

loop_
_geom_bond_atom_site_label_1
_geom_bond_atom_site_label_2
_ccdc_geom_bond_type
C66   C68   A    
C63   C65   A    
C53   O5    A    
Cu3   Cu4   S    
C22   C29   A    
C4    O11   A    
C27   C29   A    
C76   H30   S    
C73   C74   A    
O28   S3    S    
C60   H18   S    
Cu5   Cu6   S    
C80   C84   A    
C81   C82   A    
C57   C62   A    
C39   C41   A    
C57   H15   S    
C52   H17   S    
C12   C23   S    
C26   C27   A    
C64   H23   S    
C21   C25   A    
C8    H51   S    
C1    O4    A    
Cu2   O11   S    
C58   H16   S    
C49   C84   S    
H33   O21   S    
C35   C37   A    
O27   S3    D    
C38   C42   A    
C69   C70   A    
C30   C31   A    
C47   O17   A    
Cu6   O7    S    
C54   C63   S    
C71   H14   S    
O36   S5    D    
C85   H28   S    
C18   C19   A    
H36   O28   S    
O19   S1    D    
C13   H2    S    
C61   C63   A    
Cu1   O10   S    
C20   C50   S    
C77   H26   S    
C9    S2    S    
O21   S1    S    
C4    O10   A    
O47   S7    S    
C2    C7    A    
C51   O2    A    
C8    C9    A    
C30   H7    S    
Cu2   O4    S    
Cu4   O12   S    
H46   O47   S    
C1    O1    A    
C70   C71   A    
C76   H31   S    
C9    C10   A    
C51   C81   S    
Cu4   O52   S    
C12   C48   S    
C23   H29   S    
Cu2   O16   S    
Cu6   O9    S    
Cu3   O17   S    
C59   C60   A    
C78   C89   A    
C75   H25   S    
C13   C14   A    
H32   O18   S    
O44   S7    D    
Cu1   O15   S    
C36   C41   A    
C55   O8    A    
C67   C78   A    
C47   O12   A    
C12   C52   S    
C44   C46   A    
C49   O50   A    
C77   C79   A    
C2    C45   A    
C38   C39   A    
C3    C89   A    
C66   C72   A    
C69   S6    S    
C74   C75   A    
O38   S5    S    
C24   C28   S    
C45   C56   A    
C86   S7    S    
Cu1   Cu2   S    
Cu1   O1    S    
C40   H52   S    
C86   C87   A    
C52   S5    S    
C13   C19   A    
O43   S6    S    
C16   O14   A    
C25   C26   A    
C85   C86   A    
H35   O25   S    
C23   H34   S    
C82   C85   A    
C60   C61   A    
Cu4   O50   S    
C10   H45   S    
C2    C89   A    
O33   S4    D    
C43   C44   A    
C37   C38   A    
C45   H49   S    
C25   O31   S    
C5    C8    A    
C48   O23   A    
C42   H10   S    
C83   C84   A    
Cu6   O2    S    
O26   S3    D    
C17   C18   A    
C29   H5    S    
C59   O40   S    
C33   O39   S    
C43   H11   S    
H38   O30   S    
C75   C77   A    
O22   S2    D    
C14   O30   S    
C39   C46   A    
C23   C64   S    
C54   O7    A    
C82   C83   A    
C32   H9    S    
O32   S4    D    
O35   S4    S    
O24   S2    D    
C22   C24   A    
C87   C90   A    
C26   S4    S    
Cu5   O3    S    
C42   C43   A    
C12   C34   S    
H43   O40   S    
C64   H27   S    
C47   C68   S    
C6    C11   A    
C74   H24   S    
C28   O16   A    
C79   C81   A    
H41   O38   S    
Cu2   O14   S    
C15   C17   A    
C83   C90   A    
C76   C88   S    
Cu3   O23   S    
C44   H6    S    
C73   H22   S    
Cu3   O51   S    
C1    C7    S    
O37   S5    D    
C31   C32   A    
Cu3   O45   S    
H48   O49   S    
C70   H19   S    
C15   H3    S    
C3    C5    A    
C54   O6    A    
Cu6   O5    S    
C50   O51   A    
C27   O29   S    
C87   H21   S    
C6    C7    A    
C4    C88   S    
C30   C36   A    
C16   O13   A    
Cu5   O53   S    
C56   C67   A    
O46   S7    D    
C72   H20   S    
C62   C68   A    
O25   S2    S    
Cu5   O6    S    
C34   H12   S    
C32   C33   A    
C40   C88   S    
H42   O39   S    
C58   C59   A    
H39   O31   S    
C71   C72   A    
C40   H1    S    
C67   S1    S    
C40   C52   S    
C31   H8    S    
C48   O34   A    
C3    C53   S    
C34   O49   S    
H37   O29   S    
C57   C58   A    
C5    C6    A    
C49   O45   A    
O41   S6    D    
C65   C69   A    
H47   O48   S    
H40   O35   S    
C33   C35   A    
C73   C80   A    
O20   S1    D    
C19   C24   A    
C18   C20   A    
C11   S3    S    
C61   C62   A    
C17   H4    S    
C10   C11   A    
C78   H50   S    
C79   C80   A    
C37   C55   S    
O42   S6    D    
C55   O9    A    
C90   O48   S    
C20   C21   A    
C65   C66   A    
C46   H13   S    
C56   O18   S    
Cu5   O8    S    
C53   O3    A    
H44   O43   S    
C14   C15   A    
Cu1   O13   S    
C35   C36   A    
Cu4   O34   S    
C21   C22   A    
C50   O52   A    
C16   C41   S    
C64   C88   S    
C51   O53   A    
C28   O15   A    
C34   C76   S    
