data_mof_unit_14316.cif
_audit_creation_date              2012-12-10T19:42:52-0500
_audit_creation_method            fapswitch 2.2
_symmetry_space_group_name_H-M    P1
_symmetry_Int_Tables_number       1
_space_group_crystal_system       triclinic
_cell_length_a                    10.869357
_cell_length_b                    13.008766
_cell_length_c                    11.662938
_cell_angle_alpha                 99.887031
_cell_angle_beta                  94.411093
_cell_angle_gamma                 90.108497
_cell_volume                      1619.60769492

loop_
_atom_site_label
_atom_site_type_symbol
_atom_type_description
_atom_site_fract_x
_atom_site_fract_y
_atom_site_fract_z
_atom_type_partial_charge
C1    C     C_R   0.498917 0.299086 0.478619 0.814763
C2    C     C_R   0.502340 0.700841 0.521413 0.813765
C3    C     C_R   0.872062 0.496662 0.501724 -0.088541
C4    C     C_R   0.128221 0.505673 0.498608 -0.089306
C5    C     C_R   0.948006 0.479736 0.600850 -0.005414
C6    C     C_R   0.052406 0.523404 0.399720 -0.004301
C7    C     C_R   0.508632 0.813960 0.533813 -0.074436
C8    C     C_R   0.496398 0.185715 0.465919 -0.088353
C9    C     C_R   0.440613 0.016630 0.348285 0.104069
C10   C     C_R   0.572618 0.981796 0.648213 0.097026
C11   C     C_R   0.449823 0.125403 0.360774 -0.197481
C12   C     C_R   0.559084 0.873811 0.637515 -0.221176
C13   C     C_R   0.538422 0.138612 0.559887 -0.279597
C14   C     C_R   0.469106 0.861123 0.439411 -0.278876
C15   C     C_R   0.530653 0.030526 0.552354 0.126282
C16   C     C_R   0.479443 0.969140 0.446004 0.102695
C17   C     C_R   0.401325 0.387045 0.020016 -0.116437
C18   C     C_R   0.592462 0.616045 0.980025 -0.114802
C19   C     C_R   0.411809 0.399582 0.143066 0.041113
C20   C     C_R   0.584310 0.602474 0.857081 0.050847
C21   C     C_R   0.534236 0.552389 0.158747 0.037818
C22   C     C_R   0.465675 0.447555 0.841224 0.042238
C23   C     C_R   0.262132 0.503039 0.499723 0.798219
C24   C     C_R   0.737979 0.497796 0.500356 0.796304
C25   C     C_R   0.532130 0.542881 0.035311 -0.045255
C26   C     C_R   0.465228 0.458253 0.964666 -0.037868
C27   C     C_R   0.216048 0.662396 0.192957 -0.128617
C28   C     C_R   0.781559 0.342946 0.806873 -0.132718
C29   C     C_R   0.168817 0.641015 0.294765 -0.086545
C30   C     C_R   0.831676 0.362780 0.705939 -0.087058
C31   C     C_R   0.100926 0.548411 0.292115 0.138876
C32   C     C_R   0.899554 0.455259 0.708556 0.140914
C33   C     C_R   0.078744 0.479171 0.185952 -0.157472
C34   C     C_R   0.919819 0.525583 0.814169 -0.158269
C35   C     C_R   0.125630 0.501365 0.084538 -0.150021
C36   C     C_R   0.870568 0.504597 0.915068 -0.152329
C37   C     C_R   0.194148 0.592867 0.087901 -0.108386
C38   C     C_R   0.801564 0.413306 0.911544 -0.109295
C39   C     C_R   0.925249 0.517659 0.402538 -0.230868
C40   C     C_R   0.075032 0.485264 0.597993 -0.232587
Cu1   Cu    Cu3+1 0.509250 0.507730 0.615930 0.949516
Cu2   Cu    Cu3+1 0.490750 0.492270 0.384070 0.947496
H1    H     H_    0.230923 0.609528 0.009280 0.138320
H2    H     H_    0.762512 0.397680 0.989548 0.136862
H3    H     H_    0.420882 0.381895 0.784497 0.174794
H4    H     H_    0.581367 0.616886 0.215476 0.175703
H5    H     H_    0.629887 0.657765 0.814331 0.145812
H6    H     H_    0.364136 0.345815 0.186259 0.149923
H7    H     H_    0.270233 0.732424 0.195307 0.111966
H8    H     H_    0.725917 0.273761 0.803530 0.119126
H9    H     H_    0.186574 0.695510 0.375746 0.102490
H10   H     H_    0.815018 0.307692 0.625254 0.102396
H11   H     H_    0.026256 0.407627 0.182055 0.133774
H12   H     H_    0.972168 0.597168 0.817886 0.131899
H13   H     H_    0.108953 0.447418 0.003275 0.181436
H14   H     H_    0.885355 0.559457 0.995898 0.181581
H15   H     H_    0.867509 0.532368 0.327128 0.180002
H16   H     H_    0.132642 0.470565 0.673491 0.183832
H17   H     H_    0.429766 0.811934 0.360971 0.147803
H18   H     H_    0.576449 0.187689 0.638830 0.153416
H19   H     H_    0.591120 0.835700 0.709747 0.162448
H20   H     H_    0.418478 0.164870 0.289876 0.151923
N1    N     N_R   0.523180 0.519350 0.790130 -0.194563
N2    N     N_R   0.476820 0.480650 0.209870 -0.193610
O1    O     O_R   0.506570 0.354460 0.582000 -0.594687
O2    O     O_R   0.493430 0.645540 0.418000 -0.594402
O3    O     O_R   0.490940 0.341410 0.386200 -0.595935
O4    O     O_R   0.509060 0.658590 0.613800 -0.595205
O5    O     O_R   0.327460 0.506540 0.597900 -0.580001
O6    O     O_R   0.672540 0.493460 0.402100 -0.581740
O7    O     O_R   0.311830 0.493480 0.402100 -0.575900
O8    O     O_R   0.688170 0.506520 0.597900 -0.575361
C41   C     C_2   0.317788 0.302517 0.954706 0.767022
O9    O     O_2   0.308780 0.220248 0.991007 -0.638217
O10   O     O_R   0.243569 0.318657 0.856196 -0.799589
H21   H     H_    0.189176 0.255913 0.821426 0.335092
C42   C     C_2   0.665824 0.706583 0.045837 0.769623
O11   O     O_2   0.656773 0.791562 0.014701 -0.621390
O12   O     O_R   0.749439 0.694185 0.139573 -0.798319
H22   H     H_    0.794932 0.761439 0.175801 0.336502
C43   C     C_3   0.388595 0.950561 0.233439 -0.454521
C44   C     C_3   0.356147 0.008614 0.131199 -0.302424
C45   C     C_3   0.312140 0.932556 0.020780 -0.808641
H23   H     H_    0.386769 0.877690 0.993133 0.264211
H24   H     H_    0.230041 0.887376 0.036350 0.243929
H25   H     H_    0.286372 0.976642 0.949232 0.257945
H26   H     H_    0.281260 0.064909 0.153504 0.235333
H27   H     H_    0.438869 0.051349 0.112838 0.240171
H28   H     H_    0.457755 0.890613 0.204541 0.219977
H29   H     H_    0.303223 0.910915 0.251039 0.190653
C46   C     C_3   0.638325 0.039643 0.760481 -0.439425
C47   C     C_3   0.547451 0.093401 0.845239 -0.302481
C48   C     C_3   0.613107 0.134108 0.965166 -0.828562
H30   H     H_    0.647587 0.067839 0.006637 0.268251
H31   H     H_    0.692074 0.186014 0.957755 0.240817
H32   H     H_    0.548172 0.179255 0.022478 0.256205
H33   H     H_    0.502660 0.159587 0.810645 0.215672
H34   H     H_    0.474121 0.036866 0.855779 0.242402
H35   H     H_    0.693663 0.983883 0.804894 0.219098
H36   H     H_    0.706797 0.096071 0.740685 0.180627

loop_
_geom_bond_atom_site_label_1
_geom_bond_atom_site_label_2
_ccdc_geom_bond_type
C8    C13   A    
C27   C29   A    
C1    C8    S    
Cu1   Cu2   S    
C23   O5    A    
C2    C7    S    
C11   H20   S    
C43   C44   S    
C24   O6    A    
C13   H18   S    
C42   O11   D    
C14   H17   S    
C48   H30   S    
C17   C26   A    
C35   C37   A    
C9    C16   A    
C2    O4    A    
C10   C15   A    
C18   C42   S    
C15   C16   A    
C39   H15   S    
Cu2   O6    S    
C41   O9    D    
C47   C48   S    
C21   N2    A    
C21   C25   A    
C33   C35   A    
C22   N1    A    
C28   H8    S    
C7    C14   A    
C4    C40   A    
C1    O1    A    
C31   C33   A    
C46   H36   S    
C34   C36   A    
C5    C32   S    
C43   H28   S    
C6    C31   S    
C3    C39   A    
C48   H31   S    
C17   C41   S    
C41   O10   S    
C3    C24   S    
C18   C25   A    
C47   H33   S    
Cu1   O4    S    
C42   O12   S    
C33   H11   S    
C7    C12   A    
C40   H16   S    
C47   H34   S    
C23   O7    A    
C4    C6    A    
C46   C47   S    
C4    C23   S    
C19   H6    S    
Cu1   O1    S    
C2    O2    A    
C25   C26   A    
C35   H13   S    
C32   C34   A    
C37   H1    S    
O10   H21   S    
C38   H2    S    
C36   H14   S    
C45   H23   S    
C28   C38   A    
C19   N2    A    
C45   H25   S    
C9    C11   A    
C10   C12   A    
Cu1   O8    S    
C43   H29   S    
C45   H24   S    
C10   C46   S    
C34   H12   S    
C48   H32   S    
C13   C15   A    
Cu2   O3    S    
C14   C16   A    
Cu1   N1    S    
Cu2   N2    S    
C24   O8    A    
Cu1   O5    S    
C21   H4    S    
C29   H9    S    
C30   H10   S    
C3    C5    A    
C1    O3    A    
C20   N1    A    
C36   C38   A    
C29   C31   A    
C30   C32   A    
C12   H19   S    
C27   C37   A    
C8    C11   A    
C44   H27   S    
C28   C30   A    
Cu2   O7    S    
C17   C19   A    
C18   C20   A    
C20   H5    S    
O12   H22   S    
C27   H7    S    
C22   H3    S    
C44   C45   S    
C22   C26   A    
C5    C40   A    
Cu2   O2    S    
C6    C39   A    
C46   H35   S    
C44   H26   S    
C9    C43   S    
