data_mof_unit_61014.cif
_audit_creation_date              2012-12-10T18:19:10-0500
_audit_creation_method            fapswitch 2.2
_symmetry_space_group_name_H-M    P1
_symmetry_Int_Tables_number       1
_space_group_crystal_system       triclinic
_cell_length_a                    32.288725
_cell_length_b                    32.288693
_cell_length_c                    35.635326
_cell_angle_alpha                 90.000211
_cell_angle_beta                  90.000202
_cell_angle_gamma                 90.000182
_cell_volume                      37151.991448

loop_
_atom_site_label
_atom_site_type_symbol
_atom_type_description
_atom_site_fract_x
_atom_site_fract_y
_atom_site_fract_z
_atom_type_partial_charge
C1    C     C_R   0.920520 0.500000 1.000000 0.861662
C2    C     C_R   0.492615 0.228238 0.966164 0.034219
C3    C     C_R   0.532176 0.979975 0.633329 0.318096
C4    C     C_R   0.979962 0.532168 0.366670 0.318046
C5    C     C_R   0.467822 0.979980 0.366670 0.317816
C6    C     C_R   0.020037 0.467833 0.366670 0.318024
C7    C     C_R   0.532174 0.020027 0.366670 0.318098
C8    C     C_R   0.479962 0.967834 0.133331 0.318108
C9    C     C_R   0.967861 0.520083 0.133332 0.318267
C10   C     C_R   0.520033 0.032171 0.133330 0.317887
C11   C     C_R   0.032143 0.479923 0.133332 0.318048
C12   C     C_R   0.479968 0.032170 0.866669 0.317893
C13   C     C_R   0.228239 0.508709 0.966431 0.033908
C14   C     C_R   0.967862 0.479915 0.866667 0.318273
C15   C     C_R   0.520037 0.967831 0.866670 0.318102
C16   C     C_R   0.032143 0.520077 0.866668 0.318043
C17   C     C_R   0.000001 0.499999 0.613670 -0.253878
C18   C     C_R   0.500000 0.999999 0.613670 -0.253878
C19   C     C_R   1.000000 0.500000 0.386330 -0.253876
C20   C     C_R   0.499999 0.000001 0.386330 -0.253881
C21   C     C_R   0.499999 0.000001 0.113670 -0.253882
C22   C     C_R   0.000001 0.500001 0.113671 -0.253913
C23   C     C_R   0.500001 1.000000 0.886329 -0.253881
C24   C     C_R   0.508877 0.771761 0.966472 0.033848
C25   C     C_R   0.000001 0.499998 0.886328 -0.253915
C26   C     C_R   0.000003 0.499997 0.692522 -0.007370
C27   C     C_R   0.500000 0.999997 0.692522 -0.007347
C28   C     C_R   0.000001 0.500001 0.307478 -0.007370
C29   C     C_R   0.499997 0.000005 0.307478 -0.007347
C30   C     C_R   0.499997 0.000004 0.192523 -0.007352
C31   C     C_R   0.000003 0.500003 0.192524 -0.007386
C32   C     C_R   0.500002 0.999999 0.807477 -0.007352
C33   C     C_R   0.000004 0.499995 0.807476 -0.007386
C34   C     C_1   0.000004 0.499996 0.733115 0.013626
C35   C     C_R   0.771761 0.510308 0.033195 0.033555
C36   C     C_1   0.500001 0.999998 0.733116 0.013621
C37   C     C_1   0.000002 0.500002 0.266885 0.013625
C38   C     C_1   0.499997 0.000005 0.266884 0.013622
C39   C     C_1   0.499997 0.000005 0.233116 0.013626
C40   C     C_1   0.000002 0.500003 0.233117 0.013638
C41   C     C_1   0.500001 0.999999 0.766884 0.013626
C42   C     C_1   0.000004 0.499996 0.766883 0.013638
C43   C     C_R   0.728034 0.510216 0.032898 0.342699
C44   C     C_R   0.507315 0.271966 0.033533 0.342682
C45   C     C_R   0.271966 0.491378 0.033270 0.342720
C46   C     C_R   0.491121 0.771761 0.033528 0.033781
C47   C     C_R   0.491205 0.728034 0.033229 0.342784
C48   C     C_R   0.728034 0.489782 0.967102 0.342745
C49   C     C_R   0.508793 0.728034 0.966771 0.342730
C50   C     C_R   0.271966 0.508628 0.966731 0.342667
C51   C     C_R   0.492691 0.271965 0.966465 0.342742
C52   C     C_R   0.228035 0.006814 0.533618 0.342667
C53   C     C_R   0.008611 0.771966 0.533276 0.342718
C54   C     C_R   0.771966 0.991252 0.533238 0.342718
C55   C     C_R   0.991591 0.228034 0.533320 0.342641
C56   C     C_R   0.228034 0.993187 0.466382 0.342660
C57   C     C_R   0.228239 0.491297 0.033570 0.033842
C58   C     C_R   0.008402 0.228034 0.466678 0.342712
C59   C     C_R   0.771966 0.008748 0.466762 0.342726
C60   C     C_R   0.991380 0.771966 0.466726 0.342648
C61   C     C_R   0.706315 0.499999 0.000000 -0.106062
C62   C     C_R   0.500003 0.293684 0.999999 -0.106369
C63   C     C_R   0.293684 0.500003 0.000000 -0.106213
C64   C     C_R   0.499999 0.706316 0.000000 -0.106085
C65   C     C_R   0.206316 0.000000 0.500000 -0.106433
C66   C     C_R   0.999996 0.793684 0.500001 -0.106260
C67   C     C_R   0.793684 1.000000 0.500000 -0.106115
C68   C     C_R   0.507389 0.228239 0.033834 0.034286
C69   C     C_R   0.999997 0.206316 0.499999 -0.106306
C70   C     C_3   0.957884 0.434067 0.695008 -0.715204
C71   C     C_3   0.434048 0.042081 0.695009 -0.715177
C72   C     C_3   0.042122 0.565926 0.695010 -0.715162
C73   C     C_3   0.565950 0.957911 0.695008 -0.715186
C74   C     C_3   0.957887 0.565934 0.304992 -0.715218
C75   C     C_3   0.434047 0.957918 0.304991 -0.715184
C76   C     C_3   0.042114 0.434069 0.304991 -0.715147
C77   C     C_3   0.565946 0.042094 0.304991 -0.715180
C78   C     C_3   0.457883 0.934071 0.195010 -0.715153
C79   C     C_R   0.271761 0.993115 0.466081 0.034362
C80   C     C_3   0.934129 0.542209 0.195012 -0.715183
C81   C     C_3   0.542108 0.065938 0.195009 -0.715201
C82   C     C_3   0.065878 0.457800 0.195012 -0.715128
C83   C     C_3   0.457893 0.065935 0.804990 -0.715160
C84   C     C_3   0.934131 0.457788 0.804987 -0.715144
C85   C     C_3   0.542113 0.934065 0.804991 -0.715192
C86   C     C_3   0.065878 0.542200 0.804989 -0.715170
C87   C     C_3   0.793968 0.521510 0.069271 -0.645122
C88   C     C_3   0.515423 0.206032 0.070604 -0.645959
C89   C     C_3   0.206032 0.481834 0.070051 -0.645599
C90   C     C_R   0.991299 0.728238 0.466426 0.033918
C91   C     C_3   0.481470 0.793968 0.069966 -0.645545
C92   C     C_3   0.793967 0.478488 0.930729 -0.645054
C93   C     C_3   0.518528 0.793968 0.930034 -0.645610
C94   C     C_3   0.206032 0.518171 0.929949 -0.645673
C95   C     C_3   0.484581 0.206031 0.929394 -0.645893
C96   C     C_3   0.293969 0.014378 0.570782 -0.646143
C97   C     C_3   0.018151 0.706032 0.570062 -0.645496
C98   C     C_3   0.706032 0.981578 0.569985 -0.645616
C99   C     C_3   0.982285 0.293968 0.570158 -0.645626
C100  C     C_3   0.293968 0.985623 0.429219 -0.646147
C101  C     C_R   0.728238 0.008828 0.466463 0.033783
C102  C     C_3   0.017709 0.293968 0.429841 -0.645530
C103  C     C_3   0.706032 0.018421 0.430015 -0.645615
C104  C     C_3   0.981843 0.706032 0.429939 -0.645582
C105  C     C_R   0.500000 0.079480 1.000000 0.861497
C106  C     C_R   0.008483 0.271761 0.466378 0.033897
C107  C     C_R   0.271762 0.006886 0.533920 0.034354
C108  C     C_R   0.991511 0.271762 0.533620 0.033985
C109  C     C_R   0.728239 0.991172 0.533537 0.033791
C110  C     C_R   0.008695 0.728239 0.533575 0.033836
C111  C     C_R   0.793723 0.499999 0.000000 0.029878
C112  C     C_R   0.500001 0.206276 0.999999 0.029861
C113  C     C_R   0.206276 0.500002 0.000000 0.029934
C114  C     C_R   0.499999 0.793724 0.000000 0.029997
C115  C     C_R   0.293724 0.000000 0.500000 0.029898
C116  C     C_R   0.079480 0.500000 0.000000 0.861506
C117  C     C_R   0.999998 0.706276 0.500000 0.029868
C118  C     C_R   0.706276 1.000000 0.500000 0.030027
C119  C     C_R   0.999997 0.293724 0.499999 0.029841
C120  C     C_1   0.661437 0.500000 0.000000 0.165969
C121  C     C_1   0.500002 0.338562 0.999999 0.166072
C122  C     C_1   0.338562 0.500002 0.000000 0.165976
C123  C     C_1   0.499999 0.661438 0.000000 0.166132
C124  C     C_1   0.161438 0.000000 0.500000 0.166004
C125  C     C_1   0.999997 0.838562 0.500000 0.165940
C126  C     C_1   0.838562 1.000000 0.500000 0.166048
C127  C     C_R   0.500000 0.920520 0.000000 0.861645
C128  C     C_1   0.999998 0.161438 0.499999 0.165930
C129  C     C_1   0.838657 0.499999 1.000000 0.019253
C130  C     C_1   0.500001 0.161343 1.000000 0.020174
C131  C     C_1   0.161343 0.500001 0.000000 0.019702
C132  C     C_1   0.499999 0.838657 0.000000 0.019667
C133  C     C_1   0.338657 1.000000 0.500000 0.020324
C134  C     C_1   0.999999 0.661343 0.500000 0.019713
C135  C     C_1   0.661343 0.000000 0.500000 0.019648
C136  C     C_1   0.999999 0.338657 0.500000 0.019784
C137  C     C_1   0.876045 0.500000 1.000000 -0.108493
C138  C     C_R   0.420520 1.000000 0.500000 0.861491
C139  C     C_1   0.500000 0.123954 1.000000 -0.108211
C140  C     C_1   0.123954 0.500000 0.000000 -0.108396
C141  C     C_1   0.500000 0.876046 0.000000 -0.108307
C142  C     C_1   0.376046 1.000000 0.500000 -0.108172
C143  C     C_1   1.000000 0.623954 0.500000 -0.108322
C144  C     C_1   0.623954 0.000000 0.500000 -0.108293
C145  C     C_1   0.999999 0.376046 0.500000 -0.108308
C146  C     C_1   0.624038 0.500000 0.000000 -0.068792
C147  C     C_1   0.500001 0.375961 1.000000 -0.068665
C148  C     C_1   0.375961 0.500001 0.000000 -0.068793
C149  C     C_R   0.000000 0.579480 0.500000 0.861623
C150  C     C_1   0.500000 0.624039 0.000000 -0.068643
C151  C     C_1   0.124039 0.000000 0.500000 -0.068751
C152  C     C_1   0.999998 0.875961 0.500000 -0.068807
C153  C     C_1   0.875961 1.000000 0.500000 -0.068728
C154  C     C_1   0.999999 0.124039 0.500000 -0.068810
C155  C     C_R   0.500000 0.420475 1.000000 0.796689
C156  C     C_R   0.420475 0.500000 1.000000 0.796696
C157  C     C_R   0.500000 0.579525 0.000000 0.796879
C158  C     C_R   0.579525 0.500000 0.000000 0.796935
C159  C     C_R   1.000000 0.920475 0.500000 0.796659
C160  C     C_R   0.579480 0.000000 0.500000 0.861684
C161  C     C_R   0.920475 1.000000 0.500000 0.796748
C162  C     C_R   1.000000 0.079525 0.500000 0.796630
C163  C     C_R   0.079525 1.000000 0.500000 0.796506
C164  C     C_R   0.000000 0.500000 0.927669 0.930473
C165  C     C_R   0.500000 1.000000 0.927669 0.930440
C166  C     C_R   0.000000 0.500000 0.072331 0.930475
C167  C     C_R   0.500000 0.000000 0.072331 0.930439
C168  C     C_R   0.500000 0.000000 0.427669 0.930445
C169  C     C_R   1.000000 0.500000 0.427669 0.930489
C170  C     C_R   0.500000 1.000000 0.572330 0.930448
C171  C     C_R   1.000000 0.420520 0.500000 0.861600
C172  C     C_R   0.000000 0.500000 0.572330 0.930485
C173  C     C_R   0.979603 0.467853 0.672957 0.094448
C174  C     C_R   0.467845 0.020379 0.672958 0.094420
C175  C     C_R   0.020401 0.532141 0.672958 0.094437
C176  C     C_R   0.532154 0.979615 0.672958 0.094447
C177  C     C_R   0.979604 0.532146 0.327042 0.094456
C178  C     C_R   0.467843 0.979621 0.327042 0.094419
C179  C     C_R   0.020397 0.467855 0.327042 0.094430
C180  C     C_R   0.532151 0.020388 0.327042 0.094446
C181  C     C_R   0.479601 0.967857 0.172959 0.094438
C182  C     C_R   0.771761 0.489690 0.966805 0.033491
C183  C     C_R   0.967885 0.520444 0.172961 0.094460
C184  C     C_R   0.520392 0.032150 0.172958 0.094434
C185  C     C_R   0.032120 0.479564 0.172960 0.094421
C186  C     C_R   0.479608 0.032147 0.827041 0.094422
C187  C     C_R   0.967886 0.479554 0.827039 0.094445
C188  C     C_R   0.520396 0.967853 0.827041 0.094450
C189  C     C_R   0.032121 0.520436 0.827040 0.094437
C190  C     C_R   0.979962 0.467832 0.633329 0.318017
C191  C     C_R   0.467823 0.020019 0.633330 0.317818
C192  C     C_R   0.020041 0.532165 0.633330 0.318054
Cl1   Cl    Cl    0.956953 0.426732 0.607712 -0.618780
Cl2   Cl    Cl    0.926788 0.543145 0.107718 -0.619120
Cl3   Cl    Cl    0.543033 0.073276 0.107713 -0.618428
Cl4   Cl    Cl    0.073219 0.456868 0.107718 -0.618678
Cl5   Cl    Cl    0.456969 0.073276 0.892285 -0.618416
Cl6   Cl    Cl    0.926789 0.456854 0.892281 -0.619101
Cl7   Cl    Cl    0.543041 0.926729 0.892287 -0.618878
Cl8   Cl    Cl    0.073219 0.543134 0.892283 -0.618693
Cl9   Cl    Cl    0.700064 0.523012 0.074092 -0.557775
Cl10  Cl    Cl    0.516463 0.299936 0.075524 -0.557360
Cl11  Cl    Cl    0.299936 0.480582 0.074931 -0.557143
Cl12  Cl    Cl    0.426709 0.043003 0.607713 -0.618286
Cl13  Cl    Cl    0.480197 0.700064 0.074838 -0.557201
Cl14  Cl    Cl    0.700063 0.476986 0.925909 -0.557360
Cl15  Cl    Cl    0.519800 0.700064 0.925162 -0.557625
Cl16  Cl    Cl    0.299936 0.519425 0.925071 -0.557566
Cl17  Cl    Cl    0.483546 0.299935 0.924473 -0.556926
Cl18  Cl    Cl    0.200065 0.015334 0.575716 -0.557042
Cl19  Cl    Cl    0.019394 0.799936 0.574943 -0.557028
Cl20  Cl    Cl    0.799936 0.980298 0.574858 -0.557403
Cl21  Cl    Cl    0.981070 0.200064 0.575045 -0.557540
Cl22  Cl    Cl    0.200064 0.984667 0.424285 -0.557094
Cl23  Cl    Cl    0.043050 0.573266 0.607715 -0.618822
Cl24  Cl    Cl    0.018921 0.200064 0.424953 -0.556987
Cl25  Cl    Cl    0.799936 0.019701 0.425142 -0.557354
Cl26  Cl    Cl    0.980594 0.799936 0.425059 -0.557577
Cl27  Cl    Cl    0.573286 0.956984 0.607712 -0.618905
Cl28  Cl    Cl    0.956955 0.573269 0.392287 -0.618854
Cl29  Cl    Cl    0.426709 0.956994 0.392287 -0.618283
Cl30  Cl    Cl    0.043043 0.426730 0.392286 -0.618762
Cl31  Cl    Cl    0.573284 0.043019 0.392287 -0.618899
Cl32  Cl    Cl    0.456956 0.926731 0.107715 -0.618860
Cu1   Cu    Cu3+1 0.000000 0.540940 0.000000 1.091554
Cu2   Cu    Cu3+1 0.500000 0.500000 0.037330 1.091008
Cu3   Cu    Cu3+1 0.000000 0.000000 0.462670 1.091210
Cu4   Cu    Cu3+1 0.000000 1.000000 0.537330 1.091210
Cu5   Cu    Cu3+1 0.540940 0.000000 0.000000 1.091592
Cu6   Cu    Cu3+1 0.000000 0.459060 0.000000 1.091522
Cu7   Cu    Cu3+1 0.459060 0.000000 0.000000 1.091569
Cu8   Cu    Cu3+1 0.500000 0.040940 0.500000 1.091552
Cu9   Cu    Cu3+1 0.040940 0.500000 0.500000 1.091501
Cu10  Cu    Cu3+1 0.500000 0.959060 0.500000 1.091544
Cu11  Cu    Cu3+1 0.959060 0.500000 0.500000 1.091528
Cu12  Cu    Cu3+1 0.500000 0.500000 0.962670 1.091008
H1    H     H_    0.942474 0.410500 0.677344 0.282234
H2    H     H_    0.589526 0.942515 0.677345 0.282225
H3    H     H_    0.582280 0.980720 0.713039 0.223256
H4    H     H_    0.551929 0.933689 0.713120 0.219670
H5    H     H_    0.942478 0.589502 0.322655 0.282229
H6    H     H_    0.980691 0.582275 0.286963 0.223225
H7    H     H_    0.933673 0.551903 0.286878 0.219684
H8    H     H_    0.410472 0.942520 0.322655 0.282244
H9    H     H_    0.417716 0.980729 0.286962 0.223228
H10   H     H_    0.448067 0.933698 0.286878 0.219701
H11   H     H_    0.057522 0.410500 0.322654 0.282240
H12   H     H_    0.980687 0.417724 0.713036 0.223213
H13   H     H_    0.019311 0.417729 0.286961 0.223231
H14   H     H_    0.066329 0.448100 0.286878 0.219689
H15   H     H_    0.589521 0.057491 0.322655 0.282225
H16   H     H_    0.582276 0.019285 0.286960 0.223259
H17   H     H_    0.551923 0.066315 0.286880 0.219671
H18   H     H_    0.442476 0.910501 0.177347 0.282227
H19   H     H_    0.480685 0.917732 0.213041 0.223260
H20   H     H_    0.433667 0.948103 0.213121 0.219675
H21   H     H_    0.910583 0.557652 0.177349 0.282215
H22   H     H_    0.917757 0.519429 0.213041 0.223241
H23   H     H_    0.933671 0.448099 0.713122 0.219697
H24   H     H_    0.948195 0.566403 0.213125 0.219667
H25   H     H_    0.557516 0.089506 0.177345 0.282235
H26   H     H_    0.519304 0.082278 0.213038 0.223229
H27   H     H_    0.566323 0.051908 0.213122 0.219697
H28   H     H_    0.089424 0.442358 0.177349 0.282239
H29   H     H_    0.082250 0.480582 0.213039 0.223226
H30   H     H_    0.051814 0.433606 0.213126 0.219689
H31   H     H_    0.442487 0.089505 0.822653 0.282238
H32   H     H_    0.480697 0.082273 0.786960 0.223245
H33   H     H_    0.433677 0.051905 0.786878 0.219691
H34   H     H_    0.410473 0.057478 0.677346 0.282243
H35   H     H_    0.910585 0.442345 0.822650 0.282221
H36   H     H_    0.917758 0.480568 0.786958 0.223254
H37   H     H_    0.948197 0.433594 0.786875 0.219659
H38   H     H_    0.557519 0.910496 0.822654 0.282223
H39   H     H_    0.519310 0.917727 0.786960 0.223244
H40   H     H_    0.566329 0.948095 0.786879 0.219681
H41   H     H_    0.089424 0.557643 0.822652 0.282233
H42   H     H_    0.082251 0.519418 0.786962 0.223212
H43   H     H_    0.051814 0.566393 0.786874 0.219698
H44   H     H_    0.828168 0.520815 0.067021 0.234558
H45   H     H_    0.417719 0.019270 0.713039 0.223231
H46   H     H_    0.785058 0.553307 0.077973 0.259595
H47   H     H_    0.785062 0.499382 0.091717 0.255168
H48   H     H_    0.514954 0.171832 0.068306 0.233563
H49   H     H_    0.546359 0.214962 0.081563 0.260247
H50   H     H_    0.491392 0.214918 0.091397 0.254561
H51   H     H_    0.171832 0.482409 0.067773 0.234025
H52   H     H_    0.214950 0.450489 0.080001 0.259986
H53   H     H_    0.214930 0.505024 0.091602 0.254852
H54   H     H_    0.482053 0.828169 0.067691 0.234138
H55   H     H_    0.450079 0.785047 0.079782 0.259919
H56   H     H_    0.448068 0.066303 0.713121 0.219702
H57   H     H_    0.504547 0.785073 0.091611 0.254939
H58   H     H_    0.828167 0.479183 0.932979 0.234552
H59   H     H_    0.785057 0.446691 0.922027 0.259582
H60   H     H_    0.785061 0.500617 0.908284 0.255210
H61   H     H_    0.517945 0.828168 0.932309 0.234144
H62   H     H_    0.549919 0.785047 0.920218 0.259936
H63   H     H_    0.495451 0.785072 0.908389 0.254893
H64   H     H_    0.171831 0.517597 0.932228 0.234030
H65   H     H_    0.214950 0.549516 0.920000 0.259999
H66   H     H_    0.214929 0.494982 0.908399 0.254810
H67   H     H_    0.057532 0.589493 0.677347 0.282236
H68   H     H_    0.485047 0.171831 0.931692 0.233560
H69   H     H_    0.453646 0.214963 0.918435 0.260230
H70   H     H_    0.508613 0.214915 0.908602 0.254607
H71   H     H_    0.328169 0.013950 0.568478 0.233367
H72   H     H_    0.285034 0.045146 0.582115 0.260364
H73   H     H_    0.285087 0.990041 0.591280 0.254481
H74   H     H_    0.017582 0.671832 0.567783 0.234064
H75   H     H_    0.049494 0.714954 0.580021 0.259971
H76   H     H_    0.994951 0.714926 0.591609 0.254847
H77   H     H_    0.671832 0.982169 0.567709 0.234138
H78   H     H_    0.019320 0.582268 0.713039 0.223243
H79   H     H_    0.714945 0.950200 0.579836 0.259954
H80   H     H_    0.714936 0.004682 0.591603 0.254896
H81   H     H_    0.982840 0.328169 0.567876 0.233993
H82   H     H_    0.951003 0.285046 0.580280 0.260035
H83   H     H_    0.005622 0.285074 0.591585 0.254740
H84   H     H_    0.328168 0.986052 0.431523 0.233365
H85   H     H_    0.285034 0.954855 0.417885 0.260365
H86   H     H_    0.285086 0.009960 0.408721 0.254477
H87   H     H_    0.017154 0.328168 0.432123 0.233987
H88   H     H_    0.048991 0.285046 0.419719 0.260018
H89   H     H_    0.066335 0.551893 0.713122 0.219676
H90   H     H_    0.994372 0.285074 0.408413 0.254794
H91   H     H_    0.671831 0.017831 0.432291 0.234136
H92   H     H_    0.714945 0.049800 0.420163 0.259952
H93   H     H_    0.714935 0.995317 0.408397 0.254900
H94   H     H_    0.982414 0.671831 0.432217 0.234075
H95   H     H_    0.950499 0.714952 0.419980 0.259986
H96   H     H_    0.005041 0.714927 0.408392 0.254795
O1    O     O_R   0.940210 0.534560 0.999910 -0.566580
O2    O     O_R   0.034560 0.559790 0.499910 -0.566535
O3    O     O_R   0.559790 0.965440 0.499910 -0.566533
O4    O     O_R   0.965440 0.440210 0.499910 -0.566514
O5    O     O_R   0.440210 0.965440 0.500090 -0.566467
O6    O     O_R   0.034560 0.440210 0.500090 -0.566528
O7    O     O_R   0.559790 0.034560 0.500090 -0.566532
O8    O     O_R   0.965440 0.559790 0.500090 -0.566523
O9    O     O_R   0.000060 0.534560 0.945550 -0.553887
O10   O     O_R   0.534560 0.999940 0.945550 -0.554038
O11   O     O_R   0.999940 0.465440 0.945550 -0.554005
O12   O     O_R   0.534560 0.059790 0.999910 -0.566469
O13   O     O_R   0.465440 0.000060 0.945550 -0.553951
O14   O     O_R   0.000060 0.465440 0.054450 -0.553898
O15   O     O_R   0.534560 0.000060 0.054450 -0.553945
O16   O     O_R   0.999940 0.534560 0.054450 -0.553997
O17   O     O_R   0.465440 0.999940 0.054450 -0.554044
O18   O     O_R   0.500060 0.034560 0.445550 -0.554071
O19   O     O_R   0.034560 0.499940 0.445550 -0.553990
O20   O     O_R   0.499940 0.965440 0.445550 -0.553949
O21   O     O_R   0.965440 0.500060 0.445550 -0.554000
O22   O     O_R   0.500060 0.965440 0.554450 -0.554075
O23   O     O_R   0.059790 0.465440 0.999910 -0.566523
O24   O     O_R   0.034560 0.500060 0.554450 -0.554008
O25   O     O_R   0.499940 0.034560 0.554450 -0.553948
O26   O     O_R   0.965440 0.499940 0.554450 -0.553980
O27   O     O_R   0.500080 0.440090 0.968430 -0.560775
O28   O     O_R   0.440090 0.499920 0.968430 -0.561194
O29   O     O_R   0.499920 0.559910 0.968430 -0.561205
O30   O     O_R   0.559910 0.500080 0.968430 -0.561039
O31   O     O_R   0.500080 0.559910 0.031570 -0.560892
O32   O     O_R   0.440090 0.500080 0.031570 -0.560891
O33   O     O_R   0.499920 0.440090 0.031570 -0.561088
O34   O     O_R   0.465440 0.940210 0.999910 -0.566534
O35   O     O_R   0.559910 0.499920 0.031570 -0.561342
O36   O     O_R   0.000080 0.940090 0.468430 -0.561230
O37   O     O_R   0.940090 0.999920 0.468430 -0.561019
O38   O     O_R   0.999920 0.059910 0.468430 -0.560818
O39   O     O_R   0.059910 0.000080 0.468430 -0.560911
O40   O     O_R   0.000080 0.059910 0.531570 -0.561212
O41   O     O_R   0.940090 0.000080 0.531570 -0.561059
O42   O     O_R   0.999920 0.940090 0.531570 -0.560835
O43   O     O_R   0.059910 0.999920 0.531570 -0.560871
O44   O     O_R   0.940210 0.465440 0.000090 -0.566594
O45   O     O_R   0.534560 0.940210 0.000090 -0.566522
O46   O     O_R   0.059790 0.534560 0.000090 -0.566510
O47   O     O_R   0.465440 0.059790 0.000090 -0.566481
O48   O     O_R   0.440210 0.034560 0.499910 -0.566466

loop_
_geom_bond_atom_site_label_1
_geom_bond_atom_site_label_2
_ccdc_geom_bond_type
C120  C146  T    
C6    C179  A    
C162  O38   A    
C10   C184  A    
C166  O14   A    
C34   C42   T    
C4    C177  A    
C76   H14   S    
C12   C23   A    
C45   C57   A    
C56   C79   A    
C156  O32   A    
Cu3   O36   S    
C6    C19   A    
C73   H3    S    
C164  O9    A    
Cu5   O12   S    
Cu11  O21   S    
C85   H38   S    
C33   C189  A    
C80   C183  S    
C171  O6    A    
C131  C140  T    
C134  C143  T    
C43   Cl9   S    
C121  C147  T    
C70   H1    S    
C122  C148  T    
C144  C160  S    
C147  C155  S    
C128  C154  T    
C96   H73   S    
C85   C188  S    
C101  C103  S    
C98   C109  S    
C103  H91   S    
C100  H85   S    
C52   Cl18  S    
C93   H61   S    
C94   H66   S    
Cu7   O34   S    
C109  C118  A    
C18   C170  S    
C10   C21   A    
C77   C180  S    
C47   Cl13  S    
C82   C185  S    
C90   C117  A    
Cu2   O32   S    
C59   Cl25  S    
C72   H67   S    
C47   C64   A    
C32   C188  A    
C46   C91   S    
C26   C173  A    
C72   H89   S    
C111  C182  A    
Cu9   O6    S    
C153  C161  S    
C102  H88   S    
C159  O36   A    
C7    Cl31  S    
C51   Cl17  S    
Cu3   Cu4   S    
C45   Cl11  S    
C91   H55   S    
Cu8   Cu10  S    
Cu2   O33   S    
C99   H83   S    
C90   C104  S    
C95   H68   S    
C116  O46   A    
C127  C141  S    
C167  O15   A    
C70   H23   S    
C89   H51   S    
C165  O10   A    
C43   C61   A    
C16   C25   A    
Cu1   Cu6   S    
C27   C176  A    
C60   C90   A    
C119  C136  S    
C85   H40   S    
C13   C94   S    
C92   C182  S    
C14   C187  A    
Cu8   O25   S    
C45   C63   A    
C82   H29   S    
C87   H44   S    
Cu12  O30   S    
C16   C189  A    
C74   H6    S    
C3    C176  A    
C143  C149  S    
C129  C137  T    
C160  O7    A    
C93   H63   S    
C84   C187  S    
C80   H21   S    
C116  O23   A    
C94   H64   S    
C95   H69   S    
C52   C65   A    
C6    Cl30  S    
C50   Cl16  S    
C8    C181  A    
C24   C114  A    
Cu8   O48   S    
C150  C157  S    
C79   C115  A    
C76   C179  S    
Cu9   O2    S    
C5    C20   A    
C99   C108  S    
C172  O24   A    
C92   H59   S    
C133  C142  T    
C101  C118  A    
C37   C40   T    
C38   C39   T    
C86   H41   S    
Cu2   Cu12  S    
C155  O33   A    
Cu12  O28   S    
C72   C175  S    
C99   H81   S    
C157  O31   A    
Cu4   O41   S    
C59   C67   A    
C23   C165  S    
C35   C87   S    
C69   C128  S    
C127  O45   A    
C29   C38   S    
C32   C41   S    
C103  H93   S    
C35   C43   A    
C56   Cl22  S    
C16   Cl8   S    
Cu3   O38   S    
C54   Cl20  S    
C123  C150  T    
C97   H74   S    
C49   C64   A    
C61   C120  S    
C44   Cl10  S    
C50   C63   A    
C51   C62   A    
C88   H48   S    
C27   C174  A    
Cu8   O18   S    
C77   H17   S    
C175  C192  A    
C77   H16   S    
C57   C113  A    
C22   C166  S    
C149  O2    A    
C60   Cl26  S    
C1    O1    A    
Cu5   O15   S    
C31   C185  A    
Cu1   O16   S    
C105  O12   A    
C55   C69   A    
C75   H10   S    
C89   H53   S    
C124  C151  T    
C81   H27   S    
C82   H28   S    
C71   H56   S    
C104  H95   S    
C63   C122  S    
C1    C137  S    
C127  O34   A    
C132  C141  T    
C172  O26   A    
C84   H35   S    
C171  O4    A    
C154  C162  S    
Cu4   O40   S    
C55   Cl21  S    
C159  O42   A    
C146  C158  S    
C17   C190  A    
C15   C188  A    
C174  C191  A    
C149  O8    A    
C55   C108  A    
C87   H46   S    
C73   H2    S    
Cu4   O43   S    
C24   C93   S    
C72   H78   S    
C28   C37   S    
C7    C180  A    
C86   H42   S    
C169  O21   A    
C5    C178  A    
C13   C50   A    
C170  O25   A    
Cu6   O44   S    
C97   H76   S    
C81   C184  S    
C112  C130  S    
C70   H12   S    
C1    O44   A    
C100  H86   S    
C106  C119  A    
C138  O5    A    
C161  O37   A    
C165  O13   A    
C17   C172  S    
C81   H25   S    
C2    C112  A    
Cu11  O4    S    
C57   C89   S    
Cu7   O13   S    
C155  O27   A    
C83   H32   S    
C96   H71   S    
C117  C134  S    
C92   H58   S    
C173  C190  A    
C31   C40   S    
C75   H8    S    
C190  Cl1   S    
C111  C129  S    
C52   C107  A    
C4    Cl28  S    
C83   C186  S    
C98   H79   S    
C28   C177  A    
C192  Cl23  S    
C163  O43   A    
C8    Cl32  S    
C60   C66   A    
Cu1   O9    S    
C84   H37   S    
C108  C119  A    
C36   C41   T    
C114  C132  S    
C130  C139  T    
C110  C117  A    
C76   H13   S    
Cu6   O23   S    
C170  O22   A    
C17   C192  A    
Cu3   O39   S    
C18   C191  A    
C168  O18   A    
C59   C101  A    
Cu6   O11   S    
C11   Cl4   S    
C73   H4    S    
C138  C142  S    
C67   C126  S    
Cu10  O3    S    
Cu6   O14   S    
C9    Cl2   S    
C167  O17   A    
C115  C133  S    
Cu9   O19   S    
Cu10  O5    S    
C85   H39   S    
C71   H45   S    
C9    C183  A    
C105  C139  S    
C79   C100  S    
C12   C186  A    
C82   H30   S    
C158  O30   A    
C168  O20   A    
C74   H7    S    
C96   C107  S    
C29   C178  A    
Cu9   O24   S    
C164  O11   A    
C30   C181  A    
C93   H62   S    
Cu11  O26   S    
C76   H11   S    
C80   H22   S    
C191  Cl12  S    
C78   H19   S    
C94   H65   S    
C105  O47   A    
C33   C42   S    
C46   C47   A    
Cu5   O45   S    
Cu2   O31   S    
C104  H94   S    
C71   C174  S    
C58   C69   A    
Cu1   O46   S    
C27   C36   S    
C64   C123  S    
C92   H60   S    
C21   C167  S    
C32   C186  A    
C78   H20   S    
C102  H87   S    
C73   C176  S    
Cu5   Cu7   S    
C74   C177  S    
C71   H34   S    
C98   H77   S    
C14   C25   A    
C28   C179  A    
C87   H47   S    
Cu4   O42   S    
C2    C51   A    
C126  C153  T    
C89   H52   S    
C3    Cl27  S    
C7    C20   A    
C148  C156  S    
Cu1   O1    S    
C88   H49   S    
C118  C135  S    
C53   C110  A    
Cu3   O37   S    
C5    Cl29  S    
C145  C171  S    
C91   H54   S    
C158  O35   A    
C160  O3    A    
C14   Cl6   S    
C169  O19   A    
C2    C95   S    
C68   C112  A    
C9    C22   A    
C65   C124  S    
C56   C65   A    
C3    C18   A    
C83   H33   S    
C75   C178  S    
Cu12  O29   S    
C4    C19   A    
C26   C34   S    
Cu10  O20   S    
C49   Cl15  S    
C84   H36   S    
C29   C180  A    
C30   C39   S    
C12   Cl5   S    
Cu10  O22   S    
C161  O41   A    
C80   H24   S    
C95   H70   S    
C136  C145  T    
C75   H9    S    
Cu7   O47   S    
C15   C23   A    
C81   H26   S    
Cu7   O17   S    
C74   H5    S    
C104  H96   S    
C138  O48   A    
C20   C168  S    
C46   C114  A    
C162  O40   A    
C78   H18   S    
C166  O16   A    
C54   C67   A    
C44   C62   A    
C91   H57   S    
C54   C109  A    
C58   C106  A    
Cu12  O27   S    
C99   H82   S    
C163  O39   A    
C125  C152  T    
C88   H50   S    
C15   Cl7   S    
Cu5   O10   S    
C53   Cl19  S    
C157  O29   A    
C8    C21   A    
C33   C187  A    
C86   H43   S    
C53   C66   A    
Cu9   Cu11  S    
C107  C115  A    
C100  H84   S    
C77   H15   S    
C135  C144  T    
C97   H75   S    
C151  C163  S    
C68   C88   S    
C44   C68   A    
C35   C111  A    
C24   C49   A    
C86   C189  S    
C113  C131  S    
C31   C183  A    
C11   C185  A    
C30   C184  A    
C19   C169  S    
Cu2   O35   S    
C156  O28   A    
C11   C22   A    
C66   C125  S    
C103  H92   S    
C78   C181  S    
C83   H31   S    
C10   Cl3   S    
C96   H72   S    
C48   C182  A    
C97   C110  S    
C48   C61   A    
C26   C175  A    
C102  C106  S    
C102  H90   S    
C70   C173  S    
C152  C159  S    
C48   Cl14  S    
C25   C164  S    
C98   H80   S    
Cu11  O8    S    
Cu8   O7    S    
C62   C121  S    
C13   C113  A    
C116  C140  S    
C58   Cl24  S    
