data_mof_unit_15139.cif
_audit_creation_date              2012-12-10T20:43:58-0500
_audit_creation_method            fapswitch 2.2
_symmetry_space_group_name_H-M    P1
_symmetry_Int_Tables_number       1
_space_group_crystal_system       triclinic
_cell_length_a                    17.426856
_cell_length_b                    10.664128
_cell_length_c                    9.865111
_cell_angle_alpha                 90.388304
_cell_angle_beta                  89.65029
_cell_angle_gamma                 89.906695
_cell_volume                      1833.2753506

loop_
_atom_site_label
_atom_site_type_symbol
_atom_type_description
_atom_site_fract_x
_atom_site_fract_y
_atom_site_fract_z
_atom_type_partial_charge
C1    C     C_R   0.498735 0.260124 0.499989 0.858305
C2    C     C_R   0.115123 0.437430 0.523345 0.040992
C3    C     C_R   0.516377 0.064637 0.616744 0.099435
C4    C     C_R   0.353409 0.498930 0.500636 0.867540
C5    C     C_R   0.491247 0.128411 0.502892 -0.096324
C6    C     C_R   0.453552 0.064226 0.398676 -0.230063
C7    C     C_R   0.453990 0.934363 0.398360 -0.227208
C8    C     C_R   0.490827 0.871554 0.504001 -0.089182
C9    C     C_R   0.515818 0.936957 0.617758 0.129321
C10   C     C_3   0.591049 0.930133 0.689499 -0.490453
C11   C     C_3   0.591505 0.072350 0.688282 -0.476865
C12   C     C_R   0.885697 0.435673 0.520531 0.101632
C13   C     C_R   0.495354 0.390015 0.070202 0.151200
C14   C     C_R   0.511090 0.607754 0.072537 -0.124522
C15   C     C_R   0.511049 0.607764 0.928747 -0.119401
C16   C     C_R   0.498761 0.739870 0.500570 0.875606
C17   C     C_R   0.495388 0.390045 0.927770 0.141418
C18   C     C_3   0.432359 0.295873 0.920544 0.312665
C19   C     C_3   0.431697 0.296742 0.074911 -0.593443
C20   C     C_R   0.646559 0.495665 0.499467 0.865835
C21   C     C_R   0.849502 0.516606 0.611966 -0.152265
C22   C     C_R   0.771316 0.537078 0.601967 -0.257201
C23   C     C_1   0.966324 0.425403 0.523366 -0.049760
C24   C     C_R   0.729144 0.477235 0.499849 -0.046203
C25   C     C_R   0.765813 0.393345 0.407833 0.179589
C26   C     C_R   0.844765 0.374156 0.419230 -0.164583
C27   C     C_3   0.308356 0.255784 0.846810 0.081635
C28   C     C_3   0.317875 0.188193 0.709916 -0.339768
C29   C     C_3   0.245740 0.115565 0.671862 -0.947000
C30   C     C_3   0.722356 0.320654 0.301375 -0.889832
C31   C     C_3   0.125279 0.515909 0.855744 0.062650
C32   C     C_3   0.083353 0.391891 0.881388 -0.361023
C33   C     C_3   0.096061 0.346347 0.025888 -0.974434
C34   C     C_1   0.034464 0.425831 0.523969 0.003330
C35   C     C_R   0.150757 0.507086 0.626141 0.516819
C36   C     C_R   0.229141 0.531498 0.614581 -0.284651
C37   C     C_R   0.270968 0.483853 0.504010 -0.092525
C38   C     C_R   0.234729 0.412758 0.403364 -0.198381
C39   C     C_R   0.156678 0.389419 0.413293 -0.253041
H1    H     H_    0.881939 0.565219 0.689577 0.155117
H2    H     H_    0.378345 0.335565 0.121460 0.221178
H3    H     H_    0.743664 0.600337 0.673595 0.157332
H4    H     H_    0.451153 0.205933 0.116552 0.159799
H5    H     H_    0.874618 0.312272 0.348845 0.135483
H6    H     H_    0.257144 0.589249 0.690275 0.165028
H7    H     H_    0.266899 0.373825 0.318644 0.155160
H8    H     H_    0.128475 0.335853 0.334343 0.163788
H9    H     H_    0.426528 0.113623 0.316564 0.156158
H10   H     H_    0.252074 0.304342 0.848317 0.167616
H11   H     H_    0.306884 0.186835 0.931328 0.116386
H12   H     H_    0.428612 0.883795 0.314246 0.161037
H13   H     H_    0.330348 0.257270 0.629215 0.240011
H14   H     H_    0.366624 0.121453 0.715036 0.203759
H15   H     H_    0.231547 0.046083 0.751517 0.265453
H16   H     H_    0.255559 0.064994 0.574504 0.270078
H17   H     H_    0.196623 0.180896 0.659165 0.262570
H18   H     H_    0.759796 0.251772 0.247755 0.226396
H19   H     H_    0.674628 0.267822 0.349382 0.238359
H20   H     H_    0.699226 0.385627 0.224238 0.258678
H21   H     H_    0.105542 0.585552 0.932673 0.179212
H22   H     H_    0.188113 0.504779 0.871463 0.134168
H23   H     H_    0.585130 0.890794 0.793048 0.193967
H24   H     H_    0.020839 0.405124 0.864698 0.237678
H25   H     H_    0.104520 0.319141 0.809148 0.205303
H26   H     H_    0.158216 0.332329 0.045119 0.256727
H27   H     H_    0.066036 0.255682 0.040724 0.267430
H28   H     H_    0.072765 0.415631 0.100055 0.269103
H29   H     H_    0.637217 0.887178 0.626071 0.198628
H30   H     H_    0.585655 0.114975 0.790981 0.193685
H31   H     H_    0.637843 0.112591 0.623947 0.202502
H32   H     H_    0.518932 0.695156 0.126735 0.148092
H33   H     H_    0.518723 0.695091 0.875554 0.140797
H34   H     H_    0.452308 0.206376 0.873278 0.065106
N1    N     N_R   0.499490 0.499140 0.142800 -0.089325
N2    N     N_R   0.499490 0.499180 0.857150 -0.080357
O1    O     O_R   0.500010 0.316790 0.614690 -0.618637
O2    O     O_3   0.106680 0.564148 0.726695 -0.651575
O3    O     O_R   0.500000 0.316760 0.385350 -0.616172
O4    O     O_R   0.389120 0.500020 0.614710 -0.571610
O5    O     O_R   0.389110 0.499990 0.385370 -0.616386
O6    O     O_R   0.500000 0.683240 0.614650 -0.625687
O7    O     O_R   0.499990 0.683210 0.385310 -0.628144
O8    O     O_R   0.610890 0.500010 0.614630 -0.620347
O9    O     O_R   0.610880 0.499980 0.385290 -0.606007
O10   O     O_3   0.365381 0.348650 0.864148 -0.593051
Zn1   Zn    Zn3+2 0.500010 0.500020 0.653130 0.972159
Zn2   Zn    Zn3+2 0.499990 0.499980 0.346870 0.943512

loop_
_geom_bond_atom_site_label_1
_geom_bond_atom_site_label_2
_ccdc_geom_bond_type
O3    Zn2   S    
C2    C35   A    
C15   N2    A    
C14   H32   S    
C31   H22   S    
C35   C36   A    
O9    Zn2   S    
C11   H31   S    
C26   H5    S    
C7    C8    A    
C15   H33   S    
C12   C23   S    
C6    H9    S    
C1    C5    S    
C14   N1    A    
C36   C37   A    
C4    O5    A    
O5    Zn2   S    
C5    C6    A    
C29   H15   S    
O7    Zn2   S    
C30   H18   S    
C18   C19   S    
C27   O10   S    
C2    C39   A    
C20   C24   S    
C8    C9    A    
N1    Zn2   S    
C9    C10   S    
O6    Zn1   S    
C27   H11   S    
C2    C34   S    
C8    C16   S    
C21   C22   A    
C1    O3    A    
C10   H23   S    
C19   H4    S    
C33   H27   S    
C31   O2    S    
C38   C39   A    
C18   O10   S    
C13   C19   S    
C33   H26   S    
C24   C25   A    
C32   H25   S    
C4    O4    A    
C29   H16   S    
C25   C26   A    
C12   C21   A    
C35   O2    S    
C12   C26   A    
C31   H21   S    
C37   C38   A    
C3    C9    A    
N2    Zn1   S    
C31   C32   S    
C23   C34   T    
C30   H20   S    
C16   O7    A    
C17   C18   S    
C36   H6    S    
C4    C37   S    
C18   H34   S    
C20   O9    A    
C22   C24   A    
O1    Zn1   S    
C33   H28   S    
C39   H8    S    
C25   C30   S    
C28   C29   S    
C1    O1    A    
C32   H24   S    
C3    C5    A    
C28   H14   S    
C11   H30   S    
C6    C7    A    
C29   H17   S    
C10   H29   S    
C13   C17   A    
C32   C33   S    
C7    H12   S    
C28   H13   S    
C22   H3    S    
C21   H1    S    
C30   H19   S    
C16   O6    A    
C38   H7    S    
C3    C11   S    
C10   C11   S    
C27   H10   S    
O8    Zn1   S    
C13   N1    A    
C20   O8    A    
C27   C28   S    
C17   N2    A    
C14   C15   A    
O4    Zn1   S    
C19   H2    S    
