data_mof_unit_40911.cif
_audit_creation_date              2012-12-11T14:30:11-0500
_audit_creation_method            fapswitch 2.2
_symmetry_space_group_name_H-M    P1
_symmetry_Int_Tables_number       1
_space_group_crystal_system       triclinic
_cell_length_a                    12.691775
_cell_length_b                    12.691775
_cell_length_c                    27.02986
_cell_angle_alpha                 89.991273
_cell_angle_beta                  89.991271
_cell_angle_gamma                 119.955513
_cell_volume                      3772.36448697

loop_
_atom_site_label
_atom_site_type_symbol
_atom_type_description
_atom_site_fract_x
_atom_site_fract_y
_atom_site_fract_z
_atom_type_partial_charge
C1    C     C_R   0.560459 0.454954 0.822988 0.539254
C2    C     C_R   0.455717 0.557528 0.178030 0.543538
C3    C     C_R   0.098329 0.372758 0.484001 -0.127729
C4    C     C_R   0.370493 0.086166 0.035089 -0.125707
C5    C     C_R   0.626228 0.724494 0.483876 -0.127516
C6    C     C_R   0.288560 0.931010 0.533298 -0.097329
C7    C     C_R   0.918094 0.279147 0.982300 -0.135483
C8    C     C_R   0.629343 0.714364 0.534883 -0.125877
C9    C     C_R   0.372758 0.098329 0.984001 -0.127729
C10   C     C_R   0.086165 0.370493 0.535088 -0.125707
C11   C     C_R   0.724494 0.626228 0.983876 -0.127516
C12   C     C_R   0.439915 0.895297 0.322825 0.539388
C13   C     C_R   0.101824 0.544211 0.178009 0.543732
C14   C     C_R   0.976632 0.493333 0.976621 0.007616
C15   C     C_R   0.503518 0.991366 0.528160 0.004233
C16   C     C_R   0.508565 0.477296 0.977424 0.006851
C17   C     C_R   0.017883 0.518931 0.529265 0.005928
C18   C     C_R   0.523484 0.033215 0.977730 0.006774
C19   C     C_R   0.483322 0.497258 0.528839 0.006950
C20   C     C_R   0.493333 0.976632 0.476621 0.007616
C21   C     C_R   0.898593 0.442652 0.678092 0.543468
C22   C     C_R   0.991366 0.503518 0.028160 0.004233
C23   C     C_R   0.477296 0.508565 0.477424 0.006851
C24   C     C_R   0.518931 0.017883 0.029265 0.005928
C25   C     C_R   0.033215 0.523484 0.477730 0.006775
C26   C     C_R   0.497258 0.483322 0.028839 0.006950
C27   C     C_R   0.034160 0.707651 0.970857 0.218613
C28   C     C_R   0.719370 0.054005 0.523001 0.227858
C29   C     C_R   0.291597 0.329990 0.970729 0.218901
C30   C     C_R   0.950051 0.668176 0.523551 0.227902
C31   C     C_R   0.676833 0.970998 0.971484 0.221144
C32   C     C_R   0.545122 0.105751 0.823079 0.539841
C33   C     C_R   0.333572 0.280694 0.523117 0.223932
C34   C     C_R   0.707651 0.034160 0.470857 0.218614
C35   C     C_R   0.054005 0.719370 0.023001 0.227858
C36   C     C_R   0.329990 0.291597 0.470729 0.218901
C37   C     C_R   0.668176 0.950051 0.023551 0.227902
C38   C     C_R   0.970998 0.676833 0.471484 0.221144
C39   C     C_R   0.280694 0.333572 0.023117 0.223932
C40   C     C_R   0.975474 0.579634 0.896348 -0.108152
C41   C     C_R   0.626658 0.056661 0.602326 -0.101439
C42   C     C_R   0.421258 0.395676 0.896645 -0.108420
C43   C     C_R   0.557528 0.455717 0.678030 0.543538
C44   C     C_R   0.945578 0.571734 0.602792 -0.100913
C45   C     C_R   0.606367 0.028716 0.897054 -0.106505
C46   C     C_R   0.430266 0.372306 0.602372 -0.101274
C47   C     C_R   0.579634 0.975474 0.396348 -0.108152
C48   C     C_R   0.056661 0.626658 0.102327 -0.101439
C49   C     C_R   0.395676 0.421258 0.396645 -0.108420
C50   C     C_R   0.571733 0.945578 0.102792 -0.100913
C51   C     C_R   0.028716 0.606367 0.397054 -0.106505
C52   C     C_R   0.372306 0.430266 0.102372 -0.101274
C53   C     C_R   0.043268 0.526094 0.129494 -0.030480
C54   C     C_R   0.895297 0.439915 0.822825 0.539388
C55   C     C_R   0.466745 0.939216 0.374101 -0.022028
C56   C     C_R   0.473503 0.515725 0.129763 -0.028956
C57   C     C_R   0.065833 0.530274 0.374904 -0.022460
C58   C     C_R   0.485129 0.959721 0.130066 -0.029501
C59   C     C_R   0.469859 0.535169 0.374727 -0.022212
C60   C     C_R   0.526094 0.043268 0.629494 -0.030480
C61   C     C_R   0.939216 0.466745 0.874101 -0.022028
C62   C     C_R   0.515725 0.473503 0.629763 -0.028956
C63   C     C_R   0.530273 0.065833 0.874904 -0.022460
C64   C     C_R   0.959721 0.485129 0.630066 -0.029501
C65   C     C_R   0.544211 0.101824 0.678009 0.543732
C66   C     C_R   0.535169 0.469859 0.874727 -0.022212
C67   C     C_R   0.997223 0.594841 0.947760 0.022270
C68   C     C_R   0.616718 0.031624 0.551355 0.019577
C69   C     C_R   0.406260 0.400310 0.948174 0.021015
C70   C     C_R   0.973637 0.588982 0.552091 0.019652
C71   C     C_R   0.601907 0.009480 0.948601 0.023210
C72   C     C_R   0.414122 0.382830 0.551573 0.019796
C73   C     C_R   0.594841 0.997223 0.447760 0.022270
C74   C     C_R   0.031624 0.616718 0.051355 0.019577
C75   C     C_R   0.400310 0.406260 0.448174 0.021015
C76   C     C_R   0.454955 0.560459 0.322988 0.539254
C77   C     C_R   0.588982 0.973637 0.052091 0.019652
C78   C     C_R   0.009481 0.601907 0.448601 0.023210
C79   C     C_R   0.382830 0.414122 0.051573 0.019796
C80   C     C_R   0.926029 0.369193 0.903122 -0.112219
C81   C     C_R   0.412188 0.993512 0.606849 -0.116053
C82   C     C_R   0.634333 0.548948 0.904253 -0.108026
C83   C     C_R   0.014513 0.424910 0.608034 -0.115723
C84   C     C_R   0.449788 0.084353 0.904312 -0.107394
C85   C     C_R   0.575704 0.588330 0.607706 -0.116306
C86   C     C_R   0.369193 0.926030 0.403122 -0.112219
C87   C     C_R   0.442652 0.898593 0.178092 0.543467
C88   C     C_R   0.993512 0.412188 0.106849 -0.116053
C89   C     C_R   0.548948 0.634333 0.404253 -0.108026
C90   C     C_R   0.424910 0.014513 0.108034 -0.115723
C91   C     C_R   0.084353 0.449788 0.404312 -0.107394
C92   C     C_R   0.588330 0.575704 0.107706 -0.116306
C93   C     C_R   0.941119 0.380574 0.953916 0.019918
C94   C     C_R   0.400502 0.969504 0.556380 0.033958
C95   C     C_R   0.622613 0.551319 0.955104 0.026698
C96   C     C_R   0.042260 0.439928 0.557795 0.032949
C97   C     C_R   0.447952 0.071360 0.955255 0.026294
C98   C     C_R   0.105751 0.545122 0.323079 0.539841
C99   C     C_R   0.561186 0.600804 0.557451 0.031756
C100  C     C_R   0.380574 0.941119 0.453916 0.019918
C101  C     C_R   0.969504 0.400502 0.056380 0.033958
C102  C     C_R   0.551320 0.622613 0.455104 0.026698
C103  C     C_R   0.439928 0.042260 0.057795 0.032949
C104  C     C_R   0.071360 0.447952 0.455255 0.026294
C105  C     C_R   0.600804 0.561186 0.057451 0.031756
C106  C     C_R   0.931010 0.288561 0.033298 -0.097329
C107  C     C_R   0.279147 0.918094 0.482300 -0.135484
C108  C     C_R   0.714364 0.629343 0.034883 -0.125877
Cr1   Cr    Cr6+3 0.487630 0.241180 0.750000 1.035964
Cr2   Cr    Cr6+3 0.753550 0.512370 0.750000 1.036238
Cr3   Cr    Cr6+3 0.758820 0.246450 0.750000 1.035862
Cr4   Cr    Cr6+3 0.241180 0.487630 0.250000 1.035964
Cr5   Cr    Cr6+3 0.512370 0.753550 0.250000 1.036238
Cr6   Cr    Cr6+3 0.246450 0.758820 0.250000 1.035862
H1    H     H_    0.094729 0.714497 0.120252 0.194366
H2    H     H_    0.669602 0.016720 0.874114 0.180581
H3    H     H_    0.904259 0.619019 0.620300 0.194650
H4    H     H_    0.345691 0.333787 0.873574 0.180468
H5    H     H_    0.981790 0.334059 0.127740 0.146490
H6    H     H_    0.280695 0.896060 0.386702 0.152331
H7    H     H_    0.666875 0.640240 0.128867 0.145149
H8    H     H_    0.116155 0.392654 0.387944 0.152559
H9    H     H_    0.359407 0.027310 0.129103 0.145013
H10   H     H_    0.604819 0.723655 0.388040 0.151447
H11   H     H_    0.334059 0.981790 0.627740 0.146490
H12   H     H_    0.653967 0.984123 0.373690 0.180275
H13   H     H_    0.896060 0.280695 0.886702 0.152331
H14   H     H_    0.640240 0.666875 0.628867 0.145149
H15   H     H_    0.392654 0.116155 0.887944 0.152559
H16   H     H_    0.027310 0.359407 0.629103 0.145013
H17   H     H_    0.723655 0.604819 0.888040 0.151447
H18   H     H_    0.914203 0.209147 0.054509 0.151079
H19   H     H_    0.192855 0.891431 0.464850 0.130545
H20   H     H_    0.794338 0.689039 0.056411 0.143067
H21   H     H_    0.126991 0.314259 0.466807 0.147467
H22   H     H_    0.310253 0.105826 0.056593 0.137852
H23   H     H_    0.283681 0.383095 0.119837 0.193343
H24   H     H_    0.683932 0.811494 0.466685 0.137501
H25   H     H_    0.209147 0.914203 0.554509 0.151079
H26   H     H_    0.891430 0.192855 0.964850 0.130545
H27   H     H_    0.689039 0.794339 0.556411 0.143067
H28   H     H_    0.314259 0.126991 0.966807 0.147467
H29   H     H_    0.105826 0.310253 0.556593 0.137852
H30   H     H_    0.811494 0.683932 0.966685 0.137502
H31   H     H_    0.140425 0.896302 0.023201 0.339793
H32   H     H_    0.854553 0.024931 0.461464 0.325976
H33   H     H_    0.127097 0.182243 0.028418 0.329562
H34   H     H_    0.016720 0.669602 0.374114 0.180581
H35   H     H_    0.975663 0.830839 0.461916 0.323705
H36   H     H_    0.754538 0.859425 0.023275 0.339806
H37   H     H_    0.250076 0.118173 0.457260 0.338947
H38   H     H_    0.896302 0.140425 0.523201 0.339793
H39   H     H_    0.024931 0.854553 0.961464 0.325976
H40   H     H_    0.182242 0.127097 0.528418 0.329562
H41   H     H_    0.830839 0.975662 0.961916 0.323705
H42   H     H_    0.859425 0.754538 0.523275 0.339806
H43   H     H_    0.118173 0.250076 0.957260 0.338947
H44   H     H_    0.619019 0.904259 0.120300 0.194650
H45   H     H_    0.333787 0.345691 0.373574 0.180468
H46   H     H_    0.714497 0.094728 0.620252 0.194366
H47   H     H_    0.984123 0.653967 0.873690 0.180275
H48   H     H_    0.383095 0.283681 0.619837 0.193343
O1    O     O_R   0.460870 0.120930 0.805240 -0.510409
O2    O     O_R   0.120930 0.460870 0.194760 -0.509729
O3    O     O_R   0.539130 0.660060 0.305240 -0.510611
O4    O     O_R   0.339940 0.879070 0.194760 -0.508567
O5    O     O_R   0.498910 0.350470 0.801870 -0.503477
O6    O     O_R   0.851560 0.501090 0.698130 -0.502212
O7    O     O_R   0.649530 0.148440 0.801870 -0.502923
O8    O     O_R   0.498910 0.350470 0.698130 -0.502698
O9    O     O_R   0.851560 0.501090 0.801870 -0.503451
O10   O     O_R   0.649530 0.148440 0.698130 -0.501839
O11   O     O_R   0.350470 0.498910 0.301870 -0.503477
O12   O     O_R   0.660060 0.539130 0.694760 -0.508396
O13   O     O_R   0.501090 0.851560 0.198130 -0.502212
O14   O     O_R   0.148440 0.649530 0.301870 -0.502923
O15   O     O_R   0.350470 0.498910 0.198130 -0.502697
O16   O     O_R   0.501090 0.851560 0.301870 -0.503451
O17   O     O_R   0.148440 0.649530 0.198130 -0.501839
O18   O     O_3   0.666667 0.333333 0.750000 -0.244402
O19   O     O_3   0.333333 0.666667 0.250000 -0.244402
O20   O     O_3   0.097060 0.829363 0.047095 -0.731786
O21   O     O_3   0.803603 0.048391 0.441847 -0.722983
O22   O     O_3   0.172756 0.258790 0.047389 -0.733204
O23   O     O_R   0.879070 0.339940 0.805240 -0.512162
O24   O     O_3   0.955055 0.757194 0.442267 -0.726162
O25   O     O_3   0.733097 0.904202 0.047342 -0.731162
O26   O     O_3   0.260672 0.192382 0.440762 -0.729174
O27   O     O_3   0.829363 0.097060 0.547095 -0.731786
O28   O     O_3   0.048391 0.803603 0.941847 -0.722983
O29   O     O_3   0.258790 0.172756 0.547389 -0.733204
O30   O     O_3   0.757194 0.955055 0.942268 -0.726162
O31   O     O_3   0.904202 0.733097 0.547342 -0.731162
O32   O     O_3   0.192382 0.260672 0.940762 -0.729174
O33   O     O_R   0.460870 0.120930 0.694760 -0.509729
O34   O     O_R   0.660060 0.539130 0.805240 -0.510611
O35   O     O_R   0.879070 0.339940 0.694760 -0.508567
O36   O     O_R   0.120930 0.460870 0.305240 -0.510409
O37   O     O_R   0.539130 0.660060 0.194760 -0.508396
O38   O     O_R   0.339940 0.879070 0.305240 -0.512162

loop_
_geom_bond_atom_site_label_1
_geom_bond_atom_site_label_2
_ccdc_geom_bond_type
H33   O22   S    
C3    C104  A    
C12   O16   A    
C32   O7    A    
C4    C103  A    
C35   C74   A    
C89   C102  A    
C45   C71   A    
C90   H9    S    
C45   H2    S    
C91   C104  A    
H40   O29   S    
C28   O27   S    
C15   C94   A    
C88   C101  A    
C5    H24   S    
C64   C83   A    
C44   C64   A    
C35   O20   S    
C106  H18   S    
C22   C101  A    
H32   O21   S    
C46   C62   A    
C18   C24   A    
C84   C97   A    
C44   H3    S    
C76   O11   A    
C28   C68   A    
C8    C99   A    
Cr5   O3    S    
C7    H26   S    
C43   O12   A    
C87   O4    A    
C1    O5    A    
C61   C80   A    
C29   O32   S    
C32   O1    A    
C84   H15   S    
C101  C106  A    
C33   C36   A    
C30   C38   A    
Cr3   O10   S    
C59   C89   A    
C1    C66   S    
C6    H25   S    
C21   C64   S    
Cr1   O5    S    
C33   C72   A    
Cr2   O6    S    
Cr5   O19   S    
C6    C94   A    
C91   H8    S    
C6    C107  A    
C49   C75   A    
C44   C70   A    
C8    H27   S    
C51   C57   A    
C2    O15   A    
C10   C96   A    
C52   C79   A    
C86   C100  A    
C11   H30   S    
C14   C93   A    
C46   C72   A    
C39   O22   S    
C18   C97   A    
C4    H22   S    
Cr2   O9    S    
C31   C71   A    
Cr5   O16   S    
C28   C34   A    
H35   O24   S    
C59   C76   S    
Cr6   O38   S    
C58   C87   S    
C19   C72   A    
C15   C20   A    
C7    C93   A    
C26   C105  A    
Cr4   O36   S    
C30   O31   S    
C30   C70   A    
C43   O8    A    
Cr6   O4    S    
C41   C68   A    
C29   C69   A    
H39   O28   S    
Cr2   O12   S    
C16   C26   A    
H37   O26   S    
Cr4   O2    S    
C62   C85   A    
Cr3   O23   S    
C98   O36   A    
C65   O10   A    
H43   O32   S    
C50   C58   A    
C48   C74   A    
C76   O3    A    
C1    O34   A    
C47   C73   A    
C83   H16   S    
Cr1   O1    S    
C23   C75   A    
H36   O25   S    
C19   C99   A    
C42   H4    S    
C38   C78   A    
C27   C35   A    
C38   O24   S    
C37   C77   A    
C31   O30   S    
C45   C63   A    
C42   C69   A    
C50   H44   S    
C40   C61   A    
C25   C78   A    
Cr3   O7    S    
C39   C79   A    
C19   C23   A    
C13   C53   S    
C108  H20   S    
H38   O27   S    
C85   C99   A    
C36   C75   A    
C66   C82   A    
C41   H46   S    
C98   O14   A    
C60   C81   A    
C24   C77   A    
C20   C100  A    
Cr2   O18   S    
C14   C67   A    
C29   C39   A    
C52   H23   S    
Cr5   O37   S    
C7    C106  A    
C34   O21   S    
C17   C96   A    
C105  C108  A    
C88   H5    S    
C58   C90   A    
C2    C56   S    
C48   H1    S    
C27   O28   S    
C60   C65   S    
Cr2   O34   S    
Cr3   O18   S    
C12   O38   A    
C22   C74   A    
C47   H12   S    
C50   C77   A    
C2    O37   A    
Cr1   O8    S    
C40   C67   A    
C13   O2    A    
C47   C55   A    
C11   C95   A    
C18   C71   A    
C5    C102  A    
C100  C107  A    
C9    C97   A    
C82   C95   A    
C57   C91   A    
C81   H11   S    
C21   O6    A    
C54   O9    A    
C82   H17   S    
C16   C69   A    
C41   C60   A    
C21   O35   A    
C54   C61   S    
C5    C8    A    
C9    H28   S    
C25   C104  A    
Cr4   O19   S    
C80   H13   S    
C48   C53   A    
C32   C63   S    
Cr6   O19   S    
C87   O13   A    
C15   C68   A    
C26   C79   A    
C49   C59   A    
Cr5   O13   S    
C63   C84   A    
C33   O29   S    
C24   C103  A    
C17   C25   A    
C89   H10   S    
C55   C86   A    
H42   O31   S    
C80   C93   A    
C51   C78   A    
C40   H47   S    
C107  H19   S    
C3    C10   A    
C13   O17   A    
C92   H7    S    
Cr3   O35   S    
C81   C94   A    
C16   C95   A    
Cr1   O18   S    
C14   C22   A    
C37   O25   S    
C51   H34   S    
C83   C96   A    
H31   O20   S    
Cr6   O14   S    
C20   C73   A    
Cr1   O33   S    
C53   C88   A    
C3    H21   S    
C10   H29   S    
C57   C98   S    
C90   C103  A    
C12   C55   S    
C27   C67   A    
H41   O30   S    
C34   C73   A    
C23   C102  A    
C31   C37   A    
C92   C105  A    
C56   C92   A    
Cr6   O17   S    
C46   H48   S    
C11   C108  A    
C42   C66   A    
C49   H45   S    
C85   H14   S    
C86   H6    S    
C36   O26   S    
C4    C9    A    
C17   C70   A    
C54   O23   A    
C52   C56   A    
C43   C62   S    
Cr4   O11   S    
Cr4   O15   S    
C65   O33   A    
