data_mof_unit_13229.cif
_audit_creation_date              2012-12-10T17:25:29-0500
_audit_creation_method            fapswitch 2.2
_symmetry_space_group_name_H-M    P1
_symmetry_Int_Tables_number       1
_space_group_crystal_system       triclinic
_cell_length_a                    10.25841
_cell_length_b                    10.754311
_cell_length_c                    23.501412
_cell_angle_alpha                 91.431006
_cell_angle_beta                  79.124432
_cell_angle_gamma                 97.376837
_cell_volume                      2525.08366446

loop_
_atom_site_label
_atom_site_type_symbol
_atom_type_description
_atom_site_fract_x
_atom_site_fract_y
_atom_site_fract_z
_atom_type_partial_charge
C1    C     C_R   0.559066 0.733263 0.494737 0.810138
C2    C     C_R   0.387815 0.480848 0.306062 -0.260431
C3    C     C_R   0.613694 0.518672 0.753065 0.504962
C4    C     C_R   0.385582 0.480121 0.247154 0.499665
C5    C     C_R   0.491752 0.499705 0.792622 0.105312
C6    C     C_R   0.507228 0.500731 0.207476 0.107365
C7    C     C_2   0.599892 0.868293 0.491508 0.196108
C8    C     C_2   0.400175 0.131697 0.508581 0.195599
C9    C     C_2   0.508575 0.941292 0.483381 -0.131206
C10   C     C_2   0.491580 0.058784 0.516691 -0.130374
C11   C     C_2   0.927702 0.511645 0.503553 -0.069422
C12   C     C_R   0.440942 0.266735 0.505281 0.810849
C13   C     C_2   0.072071 0.488365 0.496561 -0.069437
C14   C     C_R   0.496973 0.497976 0.610741 0.897443
C15   C     C_R   0.502985 0.501968 0.389270 0.898104
C16   C     C_R   0.495642 0.389895 0.118283 0.623937
C17   C     C_R   0.500459 0.610946 0.881945 0.618642
C18   C     C_R   0.518219 0.613771 0.119472 0.625374
C19   C     C_R   0.481108 0.387259 0.880719 0.634533
C20   C     C_R   0.521211 0.618315 0.059266 -0.142975
C21   C     C_R   0.474753 0.383017 0.941118 -0.158295
C22   C     C_R   0.500865 0.501995 0.029899 -0.041039
C23   C     C_R   0.369493 0.475855 0.773151 -0.067714
C24   C     C_R   0.494554 0.499294 0.970510 -0.051088
C25   C     C_R   0.487838 0.387784 0.059745 -0.094396
C26   C     C_R   0.507339 0.613334 0.940611 -0.078437
C27   C     C_R   0.541330 0.732434 0.027289 0.335663
C28   C     C_R   0.452045 0.269099 0.973213 0.453452
C29   C     C_R   0.529880 0.727583 0.969045 -0.158384
C30   C     C_R   0.463632 0.273603 0.031420 -0.149282
C31   C     C_1   0.121869 0.621214 0.573350 0.374326
C32   C     C_1   0.879004 0.381726 0.425798 0.373161
C33   C     C_1   0.245402 0.455075 0.815017 0.267760
C34   C     C_R   0.629586 0.525595 0.226837 -0.058328
C35   C     C_1   0.753418 0.547559 0.184888 0.279137
C36   C     C_1   0.242675 0.435622 0.694199 0.288264
C37   C     C_1   0.756558 0.566782 0.305730 0.290011
C38   C     C_1   0.568691 0.095891 0.561804 0.314602
C39   C     C_1   0.431430 0.904223 0.438274 0.317414
C40   C     C_1   0.124190 0.393286 0.457527 0.328849
C41   C     C_1   0.875121 0.605956 0.542934 0.329022
C42   C     C_R   0.368545 0.471234 0.713531 -0.087070
C43   C     C_R   0.630844 0.529972 0.286444 -0.085377
C44   C     C_R   0.491052 0.495485 0.673676 -0.163116
C45   C     C_R   0.508666 0.504350 0.326366 -0.161453
C46   C     C_R   0.611863 0.517565 0.694102 -0.260627
H1    H     H_    0.542315 0.814263 0.945068 0.255270
H2    H     H_    0.962104 0.867183 0.458304 0.411527
H3    H     H_    0.449867 0.186777 0.055406 0.254190
H4    H     H_    0.705753 0.534119 0.663883 0.207581
H5    H     H_    0.294146 0.462786 0.336334 0.206830
H6    H     H_    0.381780 0.900668 0.088605 0.372139
H7    H     H_    0.255654 0.049315 0.891315 0.402226
H8    H     H_    0.868459 0.688420 0.824340 0.392272
H9    H     H_    0.143807 0.523933 0.156165 0.393135
H10   H     H_    0.037884 0.132286 0.542278 0.411698
N1    N     N_R   0.506949 0.501277 0.146771 -0.351221
N2    N     N_1   0.856864 0.596691 0.320999 -0.092008
N3    N     N_1   0.628624 0.126655 0.597957 -0.100300
N4    N     N_1   0.371475 0.873488 0.402125 -0.096672
N5    N     N_1   0.165833 0.317102 0.426125 -0.102219
N6    N     N_1   0.833090 0.681587 0.574573 -0.103383
N7    N     N_R   0.491488 0.499520 0.853361 -0.354883
N8    N     N_2   0.842710 0.448880 0.476480 -0.178695
N9    N     N_2   0.157290 0.551120 0.523520 -0.178693
N10   N     N_1   0.094487 0.679555 0.614979 -0.118063
N11   N     N_1   0.907172 0.325811 0.383478 -0.111469
N12   N     N_1   0.146444 0.438509 0.848456 -0.098464
N13   N     N_1   0.852151 0.565083 0.151367 -0.134370
N14   N     N_1   0.142240 0.406686 0.678894 -0.090911
O1    O     O_R   0.431060 0.692470 0.504730 -0.618611
O2    O     O_2   0.504503 0.718950 0.853188 -0.478679
O3    O     O_2   0.522400 0.719100 0.151572 -0.430404
O4    O     O_2   0.481653 0.281914 0.848549 -0.436601
O5    O     O_2   0.708692 0.877409 0.083892 -0.182955
O6    O     O_2   0.628953 0.979560 0.007938 -0.238560
O7    O     O_3   0.463437 0.928634 0.104543 -0.416731
O8    O     O_2   0.512809 0.072179 0.905403 -0.188886
O9    O     O_2   0.345596 0.027209 0.993794 -0.299001
O10   O     O_3   0.273346 0.132794 0.909078 -0.493101
O11   O     O_2   0.774835 0.444873 0.819854 -0.270636
O12   O     O_R   0.568940 0.307530 0.495270 -0.617647
O13   O     O_2   0.882875 0.537346 0.725855 -0.293856
O14   O     O_3   0.786653 0.685575 0.807454 -0.493904
O15   O     O_2   0.212138 0.321989 0.200378 -0.234374
O16   O     O_2   0.116930 0.466439 0.274207 -0.288074
O17   O     O_3   0.224389 0.555816 0.172187 -0.540781
O18   O     O_2   0.203838 0.066003 0.448357 -0.281247
O19   O     O_2   0.200821 0.940276 0.534415 -0.286622
O20   O     O_3   0.128531 0.162897 0.549586 -0.518091
O21   O     O_2   0.799500 0.059687 0.466045 -0.283887
O22   O     O_2   0.795807 0.933384 0.552014 -0.283013
O23   O     O_R   0.651120 0.659650 0.489640 -0.556989
O24   O     O_3   0.871591 0.837011 0.450719 -0.516754
O25   O     O_R   0.348880 0.340350 0.510360 -0.557109
O26   O     O_R   0.389950 0.516450 0.591390 -0.617455
O27   O     O_R   0.610050 0.483550 0.408610 -0.617047
O28   O     O_R   0.610020 0.483630 0.576300 -0.623677
O29   O     O_R   0.389980 0.516370 0.423700 -0.623561
O30   O     O_2   0.490468 0.281640 0.147012 -0.468000
S1    S     S_3+6 0.590174 0.883242 0.055393 0.135757
S2    S     S_3+6 0.397428 0.119847 0.945433 0.109255
S3    S     S_3+6 0.769592 0.543401 0.776378 0.060751
S4    S     S_3+6 0.229438 0.452844 0.224163 0.064896
S5    S     S_3+6 0.230197 0.070191 0.509166 0.048656
S6    S     S_3+6 0.769835 0.929632 0.491147 0.050217
Zn1   Zn    Zn3+2 0.353060 0.521920 0.510080 1.014558
Zn2   Zn    Zn3+2 0.646940 0.478080 0.489920 1.015405

loop_
_geom_bond_atom_site_label_1
_geom_bond_atom_site_label_2
_ccdc_geom_bond_type
C31   N10   T    
C16   C25   A    
O1    Zn1   S    
O8    S2    D    
O7    S1    S    
C6    N1    S    
O16   S4    D    
C8    S5    S    
H8    O14   S    
C13   N9    D    
C1    O1    A    
C23   C42   A    
H2    O24   S    
C29   H1    S    
C17   C26   A    
C19   C21   A    
C24   C26   A    
O23   Zn2   S    
C8    C10   D    
C27   C29   A    
C9    C39   S    
O28   Zn2   S    
C5    N7    S    
C7    C9    D    
C34   C35   S    
C13   C40   S    
O27   Zn2   S    
C36   C42   S    
O6    S1    D    
C44   C46   A    
C23   C33   S    
C22   C25   A    
O9    S2    D    
N8    Zn2   S    
O12   Zn2   S    
C9    C10   S    
C37   N2    T    
H10   O20   S    
O21   S6    D    
C42   C44   A    
C41   N6    T    
C15   O27   A    
C14   O26   A    
C36   N14   T    
C14   O28   A    
C2    C45   A    
O13   S3    D    
H7    O10   S    
C32   N8    S    
C4    C6    A    
C11   N8    D    
C19   N7    A    
C16   O30   S    
C27   S1    S    
C40   N5    T    
O17   S4    S    
O10   S2    S    
C37   C43   S    
C2    C4    A    
C18   N1    A    
C5    C23   A    
C8    C12   S    
C7    S6    S    
C12   O12   A    
C12   O25   A    
C43   C45   A    
O15   S4    D    
O25   Zn1   S    
C17   O2    S    
C32   N11   T    
O22   S6    D    
C30   H3    S    
C20   C22   A    
C18   O3    S    
C22   C24   A    
C6    C34   A    
C15   C45   S    
H6    O7    S    
C14   C44   S    
O11   S3    D    
C3    S3    S    
C25   C30   A    
C31   N9    S    
O24   S6    S    
C1    C7    S    
C21   C28   A    
C19   O4    S    
C34   C43   A    
O20   S5    S    
C15   O29   A    
C3    C5    A    
C20   C27   A    
O29   Zn1   S    
C46   H4    S    
C3    C46   A    
C10   C38   S    
C28   C30   A    
C17   N7    A    
O18   S5    D    
C11   C13   S    
C39   N4    T    
C4    S4    S    
C11   C41   S    
C18   C20   A    
C16   N1    A    
H9    O17   S    
O26   Zn1   S    
C2    H5    S    
C38   N3    T    
C28   S2    S    
C35   N13   T    
C26   C29   A    
C1    O23   A    
C21   C24   A    
O19   S5    D    
O5    S1    D    
O14   S3    S    
N9    Zn1   S    
C33   N12   T    
