data_mof_unit_47880.cif
_audit_creation_date              2012-12-11T14:21:18-0500
_audit_creation_method            fapswitch 2.2
_symmetry_space_group_name_H-M    P1
_symmetry_Int_Tables_number       1
_space_group_crystal_system       triclinic
_cell_length_a                    11.505252
_cell_length_b                    11.569972
_cell_length_c                    19.53971
_cell_angle_alpha                 90.617029
_cell_angle_beta                  90.280294
_cell_angle_gamma                 60.014004
_cell_volume                      2252.75105997

loop_
_atom_site_label
_atom_site_type_symbol
_atom_type_description
_atom_site_fract_x
_atom_site_fract_y
_atom_site_fract_z
_atom_type_partial_charge
C1    C     C_R   0.640893 0.117273 0.599144 0.560076
C2    C     C_1   0.653831 0.149553 0.668485 0.008854
C3    C     C_R   0.689121 0.588739 0.205150 0.002487
C4    C     C_R   0.614037 0.743404 0.597946 0.558894
C5    C     C_R   0.609992 0.558562 0.250111 -0.071331
C6    C     C_R   0.620333 0.574036 0.320964 0.069718
C7    C     C_R   0.730501 0.702293 0.296593 -0.175124
C8    C     C_R   0.746904 0.661956 0.229416 -0.136995
C9    C     C_R   0.510868 0.527806 0.228166 -0.124239
C10   C     C_R   0.427787 0.513511 0.275687 0.235077
C11   C     C_R   0.461091 0.500552 0.344606 -0.019825
C12   C     C_1   0.651983 0.683657 0.664121 0.008340
C13   C     C_R   0.563309 0.523143 0.367566 0.243968
C14   C     C_R   0.670013 0.657104 0.342719 0.033988
C15   C     C_R   0.143706 0.208688 0.193858 0.015711
C16   C     C_R   0.240999 0.145277 0.598115 0.559897
C17   C     C_R   0.109929 0.314933 0.241899 -0.124759
C18   C     C_R   0.104506 0.289627 0.311304 -0.007633
C19   C     C_R   0.246366 0.051111 0.285435 0.193512
C20   C     C_R   0.213367 0.076320 0.215557 0.200994
C21   C     C_R   0.087518 0.443154 0.224417 -0.091680
C22   C     C_R   0.044892 0.545748 0.273683 0.262164
C23   C     C_1   0.126089 0.199139 0.859191 0.008320
C24   C     C_R   0.016447 0.523625 0.339666 -0.027761
C25   C     C_R   0.038062 0.397891 0.358050 0.237973
C26   C     C_R   0.184830 0.157763 0.333547 0.042980
C27   C     C_R   0.693631 0.172929 0.196931 0.052158
C28   C     C_R   0.644155 0.113612 0.403155 0.600234
C29   C     C_R   0.808330 0.094132 0.240377 -0.073346
C30   C     C_R   0.791235 0.110149 0.311395 0.017778
C31   C     C_R   0.550466 0.205691 0.291993 -0.152373
C32   C     C_R   0.565346 0.218756 0.222213 0.214091
C33   C     C_R   0.935255 0.990271 0.217154 -0.135901
C34   C     C_1   0.170889 0.170683 0.727561 -0.029033
C35   C     C_R   0.041814 0.921741 0.262157 -0.041171
C36   C     C_R   0.030678 0.958374 0.330710 0.276896
C37   C     C_R   0.904515 0.059121 0.355596 0.263389
C38   C     C_R   0.661644 0.156127 0.336592 -0.007706
C39   C     C_R   0.081376 0.231391 0.928536 0.550135
C40   C     C_R   0.620653 0.733285 0.405073 0.610895
C41   C     C_R   0.708832 0.546408 0.922525 0.558473
C42   C     C_R   0.707954 0.206794 0.930160 0.548960
C43   C     C_R   0.083250 0.238174 0.125542 0.604740
C44   C     C_R   0.708055 0.550657 0.133219 0.556966
C45   C     C_1   0.149449 0.182709 0.798809 -0.028577
C46   C     C_R   0.711835 0.208970 0.127624 0.594330
C47   C     C_R   0.244778 0.138710 0.401264 0.639482
C48   C     C_1   0.698290 0.581465 0.851709 0.001532
C49   C     C_1   0.673115 0.645169 0.722328 -0.026263
C50   C     C_1   0.688840 0.609240 0.791924 -0.028253
C51   C     C_1   0.194912 0.161166 0.667243 0.009271
C52   C     C_1   0.678058 0.191767 0.860719 0.005768
C53   C     C_1   0.659088 0.167389 0.728889 -0.029156
C54   C     C_1   0.665534 0.181372 0.800210 -0.029674
Cr1   Cr    Cr6+3 0.404720 0.198220 0.499960 1.038582
Cr2   Cr    Cr6+3 0.698290 0.897110 0.500380 1.031682
Cr3   Cr    Cr6+3 0.396970 0.904720 0.499610 1.086353
Cr4   Cr    Cr6+3 0.926180 0.151990 0.028120 1.045585
Cr5   Cr    Cr6+3 0.921330 0.451820 0.027470 1.026350
Cr6   Cr    Cr6+3 0.626260 0.446870 0.028710 1.040215
H1    H     H_    0.762525 0.772353 0.312006 0.172023
H2    H     H_    0.131017 0.935613 0.415200 0.334899
H3    H     H_    0.937603 0.033199 0.453244 0.324624
H4    H     H_    0.487644 0.523351 0.175438 0.178964
H5    H     H_    0.797619 0.695975 0.195527 0.167028
H6    H     H_    0.300630 0.526840 0.206460 0.327891
H7    H     H_    0.405486 0.475530 0.380311 0.131773
H8    H     H_    0.555100 0.466113 0.459966 0.324541
H9    H     H_    0.410417 0.881944 0.270533 0.323833
H10   H     H_    0.281507 0.889686 0.189671 0.328395
H11   H     H_    0.976386 0.605086 0.376515 0.125037
H12   H     H_    0.113708 0.463123 0.174833 0.152587
H13   H     H_    0.041943 0.672970 0.208625 0.306972
H14   H     H_    0.953719 0.463045 0.447134 0.326047
H15   H     H_    0.451888 0.232272 0.311269 0.149259
H16   H     H_    0.952921 0.948610 0.166179 0.168549
H17   H     H_    0.378810 0.276582 0.201976 0.340623
H18   H     H_    0.134952 0.839002 0.243327 0.169338
O1    O     O_R   0.267740 0.231960 0.575440 -0.497398
O2    O     O_R   0.596130 0.579390 0.952730 -0.484965
O3    O     O_R   0.639060 0.321160 0.958670 -0.506272
O4    O     O_R   0.527280 0.186640 0.570530 -0.496299
O5    O     O_R   0.821240 0.124200 0.104370 -0.543917
O6    O     O_R   0.036890 0.167040 0.097840 -0.451701
O7    O     O_R   0.056180 0.349610 0.102880 -0.548940
O8    O     O_R   0.797660 0.564870 0.097950 -0.496459
O9    O     O_R   0.595880 0.584250 0.104270 -0.512429
O10   O     O_R   0.638830 0.325670 0.099150 -0.492173
O11   O     O_3   0.824590 0.350230 0.028100 -0.313537
O12   O     O_R   0.685970 0.784660 0.430010 -0.535866
O13   O     O_R   0.728090 0.003450 0.576380 -0.503395
O14   O     O_R   0.682970 0.789190 0.570490 -0.498810
O15   O     O_R   0.499290 0.771880 0.575530 -0.499333
O16   O     O_R   0.285330 0.030870 0.569730 -0.503396
O17   O     O_R   0.270980 0.227080 0.423890 -0.504297
O18   O     O_R   0.530280 0.182120 0.430050 -0.525012
O19   O     O_R   0.731330 0.998570 0.424830 -0.499258
O20   O     O_3   0.024144 0.670540 0.258036 -0.702283
O21   O     O_3   0.000079 0.377004 0.421688 -0.658378
O22   O     O_3   0.458599 0.266056 0.177270 -0.690154
O23   O     O_R   0.502530 0.767000 0.423990 -0.427584
O24   O     O_3   0.143261 0.889150 0.370986 -0.645012
O25   O     O_3   0.887136 0.108560 0.421743 -0.670046
O26   O     O_3   0.316775 0.506285 0.255900 -0.689225
O27   O     O_3   0.604316 0.502852 0.435161 -0.668291
O28   O     O_3   0.342980 0.926232 0.307324 -0.653545
O29   O     O_3   0.253834 0.975548 0.166971 -0.687285
O30   O     O_R   0.288330 0.026350 0.429250 -0.451394
O31   O     O_3   0.499990 0.000020 0.499980 -0.276963
O32   O     O_R   0.821500 0.119340 0.952830 -0.500032
O33   O     O_R   0.037130 0.162530 0.957360 -0.488529
O34   O     O_R   0.056440 0.344740 0.951340 -0.508276
O35   O     O_R   0.797900 0.560360 0.957470 -0.477945

loop_
_geom_bond_atom_site_label_1
_geom_bond_atom_site_label_2
_ccdc_geom_bond_type
C28   O19   A    
C22   O20   S    
C27   C29   A    
C9    H4    S    
C19   C20   A    
C18   C26   A    
C16   C51   S    
C41   O2    A    
C12   C49   T    
Cr6   O10   S    
C7    C8    A    
C53   C54   S    
C42   O3    A    
C34   C51   T    
C23   C45   T    
C36   C37   A    
H10   O29   S    
C5    C6    A    
C29   C33   A    
C30   C38   A    
H17   O22   S    
C36   O24   S    
C1    C2    S    
Cr5   O11   S    
C19   C26   A    
C7    H1    S    
C40   O23   A    
C25   O21   S    
Cr2   O13   S    
Cr3   O31   S    
C35   C36   A    
C11   H7    S    
C4    C12   S    
C44   O9    A    
C9    C10   A    
C20   O29   S    
C4    O14   A    
C39   O33   A    
C8    H5    S    
C1    O13   A    
Cr3   O15   S    
C21   C22   A    
Cr1   O31   S    
C43   O6    A    
C15   C20   A    
C18   C25   A    
Cr2   O19   S    
C44   O8    A    
Cr6   O9    S    
C52   C54   T    
Cr5   O34   S    
C46   O10   A    
C7    C14   A    
H13   O20   S    
C3    C44   S    
C21   H12   S    
Cr4   O33   S    
C43   O7    A    
H6    O26   S    
C24   C25   A    
Cr1   O17   S    
C3    C8    A    
C37   O25   S    
H3    O25   S    
C1    O4    A    
Cr6   O11   S    
C17   C21   A    
C4    O15   A    
C30   C37   A    
Cr5   O7    S    
C5    C9    A    
C29   C30   A    
Cr4   O6    S    
C6    C14   A    
Cr1   O1    S    
Cr6   O3    S    
C33   H16   S    
C31   H15   S    
C31   C32   A    
C28   C38   S    
Cr5   O35   S    
C17   C18   A    
C34   C45   S    
Cr1   O4    S    
C26   C47   S    
C27   C46   S    
C13   O27   S    
C39   O34   A    
C49   C50   S    
Cr3   O16   S    
C22   C24   A    
H8    O27   S    
Cr2   O31   S    
C15   C17   A    
Cr6   O2    S    
Cr2   O12   S    
C27   C32   A    
Cr4   O32   S    
C41   O35   A    
Cr1   O18   S    
C3    C5    A    
C2    C53   T    
H9    O28   S    
H14   O21   S    
Cr3   O23   S    
C35   H18   S    
C16   O16   A    
C31   C38   A    
C28   O18   A    
C16   O1    A    
C10   O26   S    
C42   O32   A    
Cr5   O8    S    
C15   C43   S    
Cr4   O5    S    
C6    C13   A    
C11   C13   A    
C23   C39   S    
C48   C50   T    
C33   C35   A    
C41   C48   S    
Cr4   O11   S    
C10   C11   A    
C14   C40   S    
C46   O5    A    
C19   O28   S    
C32   O22   S    
Cr2   O14   S    
Cr3   O30   S    
C47   O30   A    
C47   O17   A    
C40   O12   A    
C24   H11   S    
C42   C52   S    
H2    O24   S    
