data_mof_unit_5209.cif
_audit_creation_date              2012-12-11T15:48:43-0500
_audit_creation_method            fapswitch 2.2
_symmetry_space_group_name_H-M    P1
_symmetry_Int_Tables_number       1
_space_group_crystal_system       triclinic
_cell_length_a                    11.007591
_cell_length_b                    10.950486
_cell_length_c                    18.759847
_cell_angle_alpha                 90.391707
_cell_angle_beta                  89.831248
_cell_angle_gamma                 60.101457
_cell_volume                      1960.22933119

loop_
_atom_site_label
_atom_site_type_symbol
_atom_type_description
_atom_site_fract_x
_atom_site_fract_y
_atom_site_fract_z
_atom_type_partial_charge
C1    C     C_R   0.290735 0.622918 0.615784 0.550815
C2    C     C_3   0.631400 0.586545 0.799539 -0.275018
C3    C     C_3   0.699458 0.677994 0.810828 -0.015980
C4    C     C_3   0.671873 0.652595 0.674242 0.071822
C5    C     C_3   0.827758 0.595376 0.691523 -0.294673
C6    C     C_3   0.618442 0.569307 0.719261 -0.246903
C7    C     C_R   0.679724 0.162474 0.824716 -0.028399
C8    C     C_R   0.781493 0.174715 0.785601 0.048872
C9    C     C_R   0.773544 0.184911 0.711280 -0.051883
C10   C     C_R   0.565428 0.166000 0.714101 -0.112762
C11   C     C_R   0.565026 0.171295 0.787127 -0.157429
C12   C     C_R   0.655210 0.624712 0.599382 0.548833
C13   C     C_3   0.935557 0.079864 0.784046 0.254307
C14   C     C_3   0.928353 0.090494 0.703555 -0.215299
C15   C     C_R   0.667677 0.175027 0.674557 0.021498
C16   C     C_R   0.211796 0.657738 0.842113 0.005005
C17   C     C_R   0.255918 0.529018 0.806731 0.003699
C18   C     C_R   0.277146 0.518372 0.733005 0.009685
C19   C     C_R   0.245928 0.751182 0.731313 -0.171268
C20   C     C_R   0.228405 0.759996 0.805127 -0.183444
C21   C     C_3   0.196112 0.434142 0.806446 -0.254014
C22   C     C_3   0.207032 0.432134 0.725591 -0.251553
C23   C     C_R   0.628838 0.227802 0.602471 0.551349
C24   C     C_R   0.261036 0.633422 0.693032 -0.008349
C25   C     C_R   0.695789 0.690683 0.177826 0.032592
C26   C     C_R   0.811541 0.622295 0.222572 -0.069987
C27   C     C_R   0.793886 0.608857 0.294151 0.120885
C28   C     C_R   0.542143 0.738901 0.279106 -0.141532
C29   C     C_R   0.559903 0.747758 0.206037 0.337550
C30   C     C_3   0.929827 0.473092 0.216750 -0.220847
C31   C     C_3   0.911099 0.459197 0.295402 0.103689
C32   C     C_R   0.659853 0.666112 0.323294 -0.035944
C33   C     C_R   0.628322 0.192938 0.167853 -0.001709
C34   C     C_R   0.221718 0.648330 0.401789 0.568964
C35   C     C_R   0.549212 0.159782 0.213052 -0.035757
C36   C     C_R   0.539346 0.189869 0.283743 0.144887
C37   C     C_R   0.649218 0.328479 0.265468 -0.121135
C38   C     C_R   0.668303 0.290483 0.192363 0.201042
C39   C     C_3   0.559145 0.021743 0.226339 -0.189970
C40   C     C_3   0.548841 0.054678 0.305228 0.104018
C41   C     C_R   0.596614 0.266012 0.312648 0.018851
C42   C     C_R   0.116027 0.692309 0.187770 -0.021602
C43   C     C_R   0.042482 0.807930 0.233984 0.019124
C44   C     C_R   0.064964 0.794063 0.305924 -0.000383
C45   C     C_R   0.642087 0.623155 0.392881 0.543176
C46   C     C_R   0.209959 0.542787 0.288503 0.378301
C47   C     C_R   0.194099 0.558199 0.215394 -0.130634
C48   C     C_3   0.028874 0.950960 0.234101 -0.240322
C49   C     C_3   0.053837 0.935155 0.313783 -0.274951
C50   C     C_R   0.157441 0.662879 0.333666 0.066474
C51   C     C_R   0.701615 0.101862 0.896014 0.529313
C52   C     C_R   0.724291 0.688922 0.887626 0.559608
C53   C     C_R   0.122910 0.704077 0.906968 0.536144
C54   C     C_R   0.671068 0.114814 0.101055 0.510135
C55   C     C_R   0.725243 0.711902 0.105652 0.578240
C56   C     C_R   0.579792 0.295404 0.388501 0.583143
C57   C     C_R   0.088514 0.712716 0.113559 0.559535
C58   C     C_3   0.609158 0.827091 0.775494 0.211231
C59   C     C_3   0.588862 0.812052 0.694514 0.565595
C60   C     C_3   0.843455 0.605060 0.771836 -0.301339
Cr1   Cr    Cr6+3 0.392960 0.397920 0.502240 1.064434
Cr2   Cr    Cr6+3 0.398340 0.708480 0.501250 1.038538
Cr3   Cr    Cr6+3 0.708670 0.393570 0.496460 1.018406
Cr4   Cr    Cr6+3 0.937650 0.938540 0.007610 1.067600
Cr5   Cr    Cr6+3 0.625330 0.937370 0.994520 1.087247
Cr6   Cr    Cr6+3 0.937940 0.625230 0.001190 1.029075
H1    H     H_    0.669868 0.882824 0.781497 0.157640
H2    H     H_    0.679554 0.455825 0.705216 0.146307
H3    H     H_    0.905128 0.495337 0.791568 0.187877
H4    H     H_    0.892981 0.483052 0.674757 0.160698
H5    H     H_    0.483923 0.154900 0.688275 0.194269
H6    H     H_    0.482916 0.161229 0.813031 0.194519
H7    H     H_    0.966821 0.973757 0.804718 0.126042
H8    H     H_    0.980183 0.146911 0.681223 0.182322
H9    H     H_    0.956602 0.989045 0.676387 0.109915
H10   H     H_    0.243844 0.838998 0.704250 0.223502
H11   H     H_    0.210057 0.856198 0.831245 0.194487
H12   H     H_    0.090700 0.484401 0.829382 0.169716
H13   H     H_    0.266935 0.331677 0.831366 0.157526
H14   H     H_    0.274385 0.326149 0.702907 0.156677
H15   H     H_    0.105189 0.491481 0.698487 0.139071
H16   H     H_    0.436886 0.779695 0.299953 0.148994
H17   H     H_    0.030536 0.464266 0.202072 0.166272
H18   H     H_    0.904572 0.405064 0.183438 0.188102
H19   H     H_    0.881078 0.378783 0.307837 0.126571
H20   H     H_    0.675529 0.404733 0.285191 0.117150
H21   H     H_    0.663124 0.934436 0.209296 0.149153
H22   H     H_    0.465359 0.021467 0.205032 0.171580
H23   H     H_    0.452467 0.066439 0.331363 0.140145
H24   H     H_    0.243320 0.466296 0.180696 0.136388
H25   H     H_    0.921396 0.034701 0.220316 0.165514
H26   H     H_    0.114618 0.954045 0.204117 0.191074
H27   H     H_    0.153713 0.930043 0.329071 0.153796
H28   H     H_    0.960384 0.009821 0.345702 0.174769
H29   H     H_    0.899724 0.664200 0.782261 0.114253
H30   H     H_    0.868750 0.655918 0.662653 0.157964
H31   H     H_    0.697235 0.480989 0.823667 0.165370
H32   H     H_    0.527347 0.633254 0.826122 0.132291
H33   H     H_    0.509013 0.603916 0.706194 0.148669
O1    O     O_R   0.507380 0.255700 0.581440 -0.529326
O2    O     O_R   0.524480 0.695810 0.424040 -0.517065
O3    O     O_R   0.736390 0.504290 0.414790 -0.511080
O4    O     O_R   0.691300 0.277290 0.422170 -0.517897
O5    O     O_3   0.499990 0.499990 0.499980 -0.311758
O6    O     O_R   0.089400 0.825690 0.930570 -0.501324
O7    O     O_R   0.818460 0.054440 0.929850 -0.481648
O8    O     O_R   0.606060 0.077150 0.915510 -0.512097
O9    O     O_R   0.646550 0.806680 0.917570 -0.454890
O10   O     O_R   0.837170 0.593410 0.915250 -0.515620
O11   O     O_R   0.065200 0.635530 0.931570 -0.511753
O12   O     O_R   0.280320 0.527350 0.578930 -0.500095
O13   O     O_R   0.068260 0.828890 0.091840 -0.490556
O14   O     O_R   0.798870 0.057410 0.079340 -0.507908
O15   O     O_R   0.584930 0.080350 0.076780 -0.514833
O16   O     O_R   0.626960 0.809650 0.067060 -0.434996
O17   O     O_R   0.816040 0.596610 0.076510 -0.503585
O18   O     O_R   0.045610 0.638500 0.081060 -0.528705
O19   O     O_3   0.833640 0.833710 0.001100 -0.301025
O20   O     O_R   0.260510 0.739590 0.584590 -0.496504
O21   O     O_R   0.532300 0.695080 0.573820 -0.463059
O22   O     O_R   0.744840 0.503500 0.576370 -0.530556
O23   O     O_R   0.699120 0.276560 0.571960 -0.499830
O24   O     O_R   0.498940 0.256500 0.419860 -0.479462
O25   O     O_R   0.272500 0.528080 0.429150 -0.433060
O26   O     O_R   0.252060 0.740380 0.423010 -0.545285
F1    F     F_    0.005027 0.143526 0.814027 -0.624011
O27   O     O_3   0.479598 0.911810 0.810278 -0.653902
H34   H     H_    0.424402 0.863197 0.807548 0.352929
F2    F     F_    0.445605 0.810235 0.163488 -0.630008
F3    F     F_    0.447123 0.868885 0.680067 -0.637104
O28   O     O_3   0.022358 0.446251 0.336571 -0.637132
H35   H     H_    0.091364 0.343944 0.337815 0.349339
O29   O     O_3   0.725264 0.348995 0.148122 -0.711262
H36   H     H_    0.718688 0.323774 0.098062 0.343546
O30   O     O_3   0.674708 0.965480 0.340204 -0.705335
H37   H     H_    0.652037 0.975786 0.391863 0.345480
F4    F     F_    0.284112 0.410839 0.314177 -0.647092
O31   O     O_3   0.640592 0.885807 0.655348 -0.742938
H38   H     H_    0.600937 0.899977 0.606688 0.352192

loop_
_geom_bond_atom_site_label_1
_geom_bond_atom_site_label_2
_ccdc_geom_bond_type
C53   O11   A    
C44   C49   S    
C59   F3    S    
C8    C13   S    
C31   H19   S    
C32   C45   S    
C35   C36   A    
C39   H21   S    
C9    C14   S    
C5    H30   S    
O30   H37   S    
C7    C11   A    
C28   C32   A    
C26   C27   A    
C37   C38   A    
Cr6   O17   S    
C20   H11   S    
Cr1   O25   S    
C18   C24   A    
C14   H8    S    
C28   C29   A    
C10   C15   A    
C51   O7    A    
C30   C31   S    
Cr4   O13   S    
C57   O13   A    
C55   O17   A    
C54   O14   A    
C60   H3    S    
Cr4   O19   S    
C1    O20   A    
C38   O29   S    
C30   H17   S    
C16   C53   S    
C31   O28   S    
C12   O21   A    
C29   F2    S    
C12   O22   A    
C19   C20   A    
C2    H31   S    
C16   C17   A    
Cr6   O18   S    
C21   H12   S    
Cr5   O19   S    
C49   H28   S    
C4    C12   S    
C43   C48   S    
Cr5   O9    S    
Cr2   O21   S    
C3    C58   S    
Cr2   O2    S    
C3    C60   S    
C15   C23   S    
C23   O1    A    
C58   O27   S    
C21   C22   S    
C37   C41   A    
Cr5   O16   S    
C36   C41   A    
C2    C6    S    
C39   H22   S    
Cr3   O3    S    
C42   C57   S    
Cr3   O22   S    
C23   O23   A    
Cr2   O5    S    
C25   C29   A    
C40   O30   S    
C34   C50   S    
C27   C31   S    
C22   H15   S    
C37   H20   S    
C7    C8    A    
Cr1   O5    S    
Cr3   O4    S    
C45   O3    A    
C39   C40   S    
C11   H6    S    
C8    C9    A    
C59   O31   S    
C58   C59   S    
C28   H16   S    
C48   H25   S    
C17   C21   S    
C35   C39   S    
C43   C44   A    
C56   O24   A    
C41   C56   S    
C5    H4    S    
Cr5   O15   S    
C36   C40   S    
C16   C20   A    
C21   H13   S    
C17   C18   A    
Cr6   O11   S    
C52   O9    A    
Cr2   O20   S    
C45   O2    A    
C46   F4    S    
C13   F1    S    
C4    C6    S    
C48   C49   S    
C13   H7    S    
C26   C30   S    
C10   C11   A    
Cr6   O19   S    
O29   H36   S    
C40   H23   S    
C47   H24   S    
Cr1   O1    S    
C42   C43   A    
O27   H34   S    
Cr1   O12   S    
Cr3   O23   S    
C57   O18   A    
C44   C50   A    
C33   C54   S    
C46   C47   A    
C19   H10   S    
C34   O25   A    
Cr4   O14   S    
C5    C60   S    
Cr4   O6    S    
C27   C32   A    
C18   C22   S    
C25   C55   S    
C56   O4    A    
C4    C5    S    
Cr2   O26   S    
C3    C52   S    
Cr4   O7    S    
C14   H9    S    
C46   C50   A    
C33   C38   A    
Cr1   O24   S    
C6    H33   S    
C2    C3    S    
C25   C26   A    
C22   H14   S    
C10   H5    S    
C55   O16   A    
C52   O10   A    
C34   O26   A    
C54   O15   A    
C4    C59   S    
C6    H2    S    
C33   C35   A    
C19   C24   A    
Cr3   O5    S    
C42   C47   A    
Cr6   O10   S    
C30   H18   S    
O31   H38   S    
C7    C51   S    
C60   H29   S    
C53   O6    A    
C58   H1    S    
C2    H32   S    
C1    C24   S    
C51   O8    A    
C48   H26   S    
C49   H27   S    
C13   C14   S    
Cr5   O8    S    
C1    O12   A    
O28   H35   S    
C9    C15   A    
