data_mof_unit_39105.cif
_audit_creation_date              2012-12-11T17:08:23-0500
_audit_creation_method            fapswitch 2.2
_symmetry_space_group_name_H-M    P1
_symmetry_Int_Tables_number       1
_space_group_crystal_system       triclinic
_cell_length_a                    6.96431
_cell_length_b                    14.442187
_cell_length_c                    16.178975
_cell_angle_alpha                 90.020674
_cell_angle_beta                  89.492393
_cell_angle_gamma                 90.015523
_cell_volume                      1627.21513353

loop_
_atom_site_label
_atom_site_type_symbol
_atom_type_description
_atom_site_fract_x
_atom_site_fract_y
_atom_site_fract_z
_atom_type_partial_charge
O1    O     O_R   0.505700 0.583890 0.413310 -0.536452
O2    O     O_R   0.175960 0.594920 0.586080 -0.549684
O3    O     O_R   0.005660 0.416110 0.586690 -0.547043
C1    C     C_R   0.344424 0.617754 0.614225 0.687108
O4    O     O_R   0.175980 0.594920 0.413930 -0.543054
O5    O     O_R   0.005680 0.416110 0.413310 -0.539888
C2    C     C_R   0.345178 0.617089 0.385512 0.720125
O6    O     O_R   0.505680 0.583890 0.586690 -0.537279
O7    O     O_3   0.339200 0.441330 0.500000 -0.371602
V1    V     V_3+5 0.064350 0.510880 0.500000 1.372286
O8    O     O_R   0.675960 0.405080 0.413920 -0.540098
C3    C     C_R   0.845753 0.382033 0.386038 0.698290
O9    O     O_R   0.675940 0.405080 0.586070 -0.537607
C4    C     C_R   0.844010 0.382684 0.614378 0.705371
V2    V     V_3+5 0.564340 0.489120 0.500000 1.391792
O10   O     O_3   0.839360 0.558670 0.500000 -0.379536
C5    C     C_R   0.991418 0.322290 0.744695 0.025144
C6    C     C_R   0.849810 0.316811 0.684396 -0.127082
C7    C     C_R   0.704512 0.249878 0.697304 -0.169252
H1    H     H_    0.586506 0.244371 0.654512 0.116774
C8    C     C_R   0.716837 0.185327 0.762985 -0.175183
H2    H     H_    0.607505 0.132316 0.768482 0.121415
C9    C     C_R   0.874143 0.186241 0.817898 -0.137691
C10   C     C_R   0.001833 0.260159 0.809392 0.025339
C11   C     C_3   0.214260 0.271963 0.816981 0.152447
C12   C     C_3   0.202860 0.338956 0.743089 0.147962
H3    H     H_    0.295954 0.207640 0.803305 0.061582
H4    H     H_    0.275368 0.313257 0.685959 0.059777
C13   C     C_R   0.714930 0.195449 0.230988 0.050310
C14   C     C_R   0.878306 0.188647 0.180826 -0.101168
C15   C     C_R   0.032122 0.247659 0.199120 -0.195842
H5    H     H_    0.153314 0.250852 0.157547 0.162340
C16   C     C_R   0.023470 0.308361 0.267229 -0.176459
H6    H     H_    0.139743 0.356830 0.276052 0.141527
C17   C     C_R   0.860583 0.311263 0.319736 -0.099414
C18   C     C_R   0.710067 0.249504 0.303003 0.040723
C19   C     C_3   0.504600 0.274250 0.291327 -0.438893
C20   C     C_3   0.520374 0.229649 0.206782 0.136370
H7    H     H_    0.478381 0.350215 0.290189 0.181282
H8    H     H_    0.409341 0.235502 0.334660 0.148605
H9    H     H_    0.416052 0.173108 0.194954 0.111410
C21   C     C_R   0.505228 0.750766 0.687576 0.085179
C22   C     C_R   0.351921 0.688302 0.680884 -0.133303
C23   C     C_R   0.201476 0.696721 0.739255 -0.119434
H10   H     H_    0.079473 0.650624 0.736468 0.124912
C24   C     C_R   0.213426 0.760173 0.805399 -0.170025
H11   H     H_    0.098826 0.761974 0.850926 0.123390
C25   C     C_R   0.377348 0.816256 0.815794 -0.106808
C26   C     C_R   0.518430 0.812298 0.753859 0.028887
C27   C     C_3   0.730162 0.800374 0.761041 -0.395114
C28   C     C_3   0.717412 0.733941 0.688028 0.145896
H12   H     H_    0.768917 0.765228 0.819648 0.137199
H13   H     H_    0.810451 0.865433 0.748481 0.181336
H14   H     H_    0.754493 0.661286 0.704190 0.086257
C29   C     C_R   0.487670 0.676604 0.252418 0.027805
C30   C     C_R   0.352943 0.684385 0.316621 -0.152240
C31   C     C_R   0.216834 0.756164 0.311115 -0.193913
H15   H     H_    0.107782 0.763372 0.358895 0.137327
C32   C     C_R   0.227374 0.823535 0.247849 0.293126
C33   C     C_R   0.373193 0.817432 0.185336 -0.199365
C34   C     C_R   0.496033 0.740659 0.188143 0.040577
C35   C     C_3   0.711094 0.735492 0.185185 0.153824
C36   C     C_3   0.700558 0.664717 0.255032 -0.370494
H16   H     H_    0.780504 0.801227 0.204160 0.099786
H17   H     H_    0.762972 0.690697 0.313670 0.148414
H18   H     H_    0.746390 0.593558 0.237795 0.169570
O11   O     O_R   0.229000 0.916070 0.913330 -0.539119
O12   O     O_R   0.558770 0.905070 0.086080 -0.544708
O13   O     O_R   0.729000 0.083900 0.086690 -0.539857
C37   C     C_R   0.389072 0.885113 0.116396 0.716450
O14   O     O_R   0.558720 0.905070 0.913930 -0.538698
O15   O     O_R   0.728960 0.083900 0.913310 -0.538093
C38   C     C_R   0.390016 0.882520 0.885625 0.704999
O16   O     O_R   0.229050 0.916070 0.086710 -0.540505
O17   O     O_3   0.395460 0.058650 0.000020 -0.372037
V3    V     V_3+5 0.670340 0.989120 0.000000 1.376281
O18   O     O_R   0.058670 0.094960 0.913900 -0.535165
C39   C     C_R   0.889754 0.116810 0.885070 0.705355
O19   O     O_R   0.058720 0.094960 0.086050 -0.543869
C40   C     C_R   0.889264 0.119038 0.113211 0.682020
V4    V     V_3+5 0.170330 0.010930 0.999970 1.387301
O20   O     O_3   0.895340 0.941350 0.999980 -0.376667
N1    N     N_2   0.529365 0.302038 0.143879 -0.529846
H19   H     H_    0.626454 0.354668 0.154826 0.267627
C41   C     C_3   0.523192 0.274966 0.058311 -0.485268
H20   H     H_    0.510969 0.338410 0.020606 0.180357
H21   H     H_    0.398012 0.229492 0.046775 0.231922
H22   H     H_    0.658704 0.241424 0.038908 0.185499
N2    N     N_2   0.819349 0.766912 0.614462 -0.493461
H23   H     H_    0.861585 0.714322 0.575408 0.280028
C42   C     C_3   0.747749 0.847137 0.570431 -0.529876
H24   H     H_    0.855460 0.868950 0.523317 0.189069
H25   H     H_    0.722901 0.906115 0.613162 0.198544
H26   H     H_    0.612087 0.829557 0.538370 0.182876
N3    N     N_2   0.100287 0.900503 0.253656 -0.533040
H27   H     H_    0.020849 0.913949 0.201738 0.265808
C43   C     C_3   0.182575 0.982593 0.290337 -0.554233
H28   H     H_    0.069574 0.036262 0.297830 0.195284
H29   H     H_    0.298690 0.010837 0.250128 0.177852
H30   H     H_    0.241260 0.966293 0.352299 0.200412
N4    N     N_2   0.790593 0.698762 0.108069 -0.497525
H31   H     H_    0.847162 0.749570 0.070265 0.262469
C44   C     C_3   0.683676 0.629459 0.062559 -0.515256
H32   H     H_    0.775602 0.601235 0.012114 0.184694
H33   H     H_    0.554232 0.661121 0.034555 0.184794
H34   H     H_    0.640213 0.571129 0.103226 0.199130
N5    N     N_2   0.274317 0.316164 0.893676 -0.486774
H35   H     H_    0.406765 0.347625 0.888456 0.277222
C45   C     C_3   0.135244 0.367899 0.942858 -0.472106
H36   H     H_    0.206494 0.399816 0.996887 0.178077
H37   H     H_    0.021403 0.320773 0.966617 0.175447
H38   H     H_    0.069713 0.424088 0.905771 0.222682
O21   O     O_3   0.248004 0.430738 0.763388 -0.637060
H39   H     H_    0.235179 0.466571 0.711582 0.293430

loop_
_geom_bond_atom_site_label_1
_geom_bond_atom_site_label_2
_ccdc_geom_bond_type
C29   C30   A    
C36   H17   S    
N4    H31   S    
C20   N1    S    
C4    C6    S    
N3    H27   S    
C1    O6    A    
C43   H28   S    
O18   C39   A    
C13   C18   A    
C35   C36   S    
C5    C12   S    
C18   C19   S    
C7    C8    A    
C19   C20   S    
C19   H8    S    
C45   H37   S    
O5    C3    A    
C14   C15   A    
C31   C32   A    
V2    O10   S    
O14   C38   A    
C30   C31   A    
O13   V3    S    
C6    C7    A    
C35   H16   S    
O8    V2    S    
C17   C18   A    
C29   C36   S    
C13   C20   S    
C37   O16   A    
C27   H12   S    
C9    C10   A    
C15   C16   A    
O11   C38   A    
O18   V4    S    
N2    C42   S    
O7    V1    S    
O15   V3    S    
C21   C28   S    
C35   N4    S    
C14   C40   S    
C36   H18   S    
C32   C33   A    
N4    C44   S    
O9    C4    A    
N5    C45   S    
C32   N3    S    
C2    C30   S    
C43   H29   S    
C23   C24   A    
C5    C6    A    
C41   H21   S    
C24   C25   A    
C5    C10   A    
C27   H13   S    
C10   C11   S    
C20   H9    S    
C45   H38   S    
V3    O20   S    
C42   H24   S    
O19   V4    S    
O17   V4    S    
C27   C28   S    
C11   C12   S    
C41   H20   S    
V4    O20   S    
C33   C34   A    
O2    C1    A    
O17   V3    S    
C13   C14   A    
C42   H25   S    
N1    H19   S    
C33   C37   S    
N5    H35   S    
C16   H6    S    
C44   H33   S    
C3    C17   S    
O3    C4    A    
O1    V2    S    
C25   C26   A    
N1    C41   S    
O11   V4    S    
O6    V2    S    
C8    C9    A    
C22   C23   A    
O12   V3    S    
C21   C22   A    
O16   V4    S    
O2    V1    S    
C43   H30   S    
C23   H10   S    
C11   N5    S    
O4    C2    A    
O21   H39   S    
C41   H22   S    
C24   H11   S    
O1    C2    A    
C25   C38   S    
C15   H5    S    
O5    V1    S    
O8    C3    A    
N3    C43   S    
C1    C22   S    
C11   H3    S    
C12   H4    S    
C28   H14   S    
C7    H1    S    
O9    V2    S    
O7    V2    S    
C12   O21   S    
O4    V1    S    
C19   H7    S    
O3    V1    S    
V1    O10   S    
C45   H36   S    
C28   N2    S    
C42   H26   S    
C31   H15   S    
O14   V3    S    
C29   C34   A    
C16   C17   A    
C44   H34   S    
C9    C39   S    
C34   C35   S    
C21   C26   A    
O19   C40   A    
O12   C37   A    
C26   C27   S    
O15   C39   A    
C44   H32   S    
O13   C40   A    
N2    H23   S    
C8    H2    S    
