data_mof_unit_21331.cif
_audit_creation_date              2012-12-10T20:35:51-0500
_audit_creation_method            fapswitch 2.2
_symmetry_space_group_name_H-M    P1
_symmetry_Int_Tables_number       1
_space_group_crystal_system       triclinic
_cell_length_a                    15.741168
_cell_length_b                    10.67703
_cell_length_c                    9.858706
_cell_angle_alpha                 89.935163
_cell_angle_beta                  90.367231
_cell_angle_gamma                 89.929163
_cell_volume                      1656.90572344

loop_
_atom_site_label
_atom_site_type_symbol
_atom_type_description
_atom_site_fract_x
_atom_site_fract_y
_atom_site_fract_z
_atom_type_partial_charge
C1    C     C_R   0.502617 0.259914 0.500131 0.880672
C2    C     C_3   0.952487 0.397292 0.609375 0.290374
C3    C     C_3   0.916785 0.487654 0.494793 -0.020683
C4    C     C_3   0.951834 0.622255 0.523345 -0.516658
C5    C     C_3   0.049071 0.623572 0.516962 -0.512844
C6    C     C_1   0.825599 0.491429 0.498950 0.041691
C7    C     C_1   0.174273 0.493098 0.496667 0.070243
C8    C     C_1   0.249504 0.496479 0.498253 -0.194551
C9    C     C_R   0.514903 0.063614 0.623498 0.145527
C10   C     C_R   0.516211 0.128523 0.501020 -0.102392
C11   C     C_R   0.533853 0.064871 0.379991 -0.233295
C12   C     C_R   0.338293 0.499695 0.499605 0.901053
C13   C     C_R   0.533879 0.935321 0.379887 -0.228706
C14   C     C_R   0.516246 0.871376 0.500800 -0.104261
C15   C     C_R   0.514884 0.935884 0.623354 0.132721
C16   C     C_3   0.453241 0.928540 0.737829 -0.474052
C17   C     C_3   0.453283 0.070493 0.738053 -0.496629
C18   C     C_R   0.425541 0.491801 0.070519 0.231622
C19   C     C_R   0.572921 0.519027 0.072589 -0.147329
C20   C     C_R   0.572924 0.518990 0.928745 -0.137093
C21   C     C_R   0.425463 0.492123 0.927987 0.225459
C22   C     C_3   0.362676 0.387807 0.921759 -0.522387
C23   C     C_R   0.502652 0.740058 0.499968 0.876413
C24   C     C_3   0.363140 0.387181 0.075829 -0.513725
C25   C     C_R   0.661691 0.499794 0.500354 0.895118
C26   C     C_3   0.051616 0.404831 0.615294 0.196514
C27   C     C_3   0.050029 0.438592 0.355301 0.315610
C28   C     C_3   0.949755 0.432895 0.352144 0.829131
C29   C     C_1   0.750420 0.495811 0.500912 -0.206939
C30   C     C_3   0.082677 0.489224 0.495414 0.027750
H1    H     H_    0.938672 0.300703 0.575251 0.202053
H2    H     H_    0.073901 0.450603 0.710559 0.112326
H3    H     H_    0.924992 0.696123 0.457990 0.186755
H4    H     H_    0.541679 0.114050 0.284710 0.171488
H5    H     H_    0.541733 0.886394 0.284568 0.172097
H6    H     H_    0.391156 0.887434 0.707038 0.202459
H7    H     H_    0.482327 0.887184 0.830699 0.205798
H8    H     H_    0.391193 0.112016 0.707474 0.202323
H9    H     H_    0.482492 0.111051 0.831072 0.205018
H10   H     H_    0.632032 0.532470 0.875516 0.160438
H11   H     H_    0.300901 0.418335 0.877437 0.199637
H12   H     H_    0.389587 0.301264 0.876691 0.213790
H13   H     H_    0.301845 0.417517 0.120249 0.208703
H14   H     H_    0.390583 0.300319 0.120583 0.215471
H15   H     H_    0.075940 0.341015 0.348799 0.135199
H16   H     H_    0.075102 0.663283 0.613027 0.180786
H17   H     H_    0.070178 0.686258 0.433536 0.238594
N1    N     N_R   0.499430 0.499140 0.142800 -0.109508
N2    N     N_R   0.499430 0.499180 0.857150 -0.108703
O1    O     O_R   0.500010 0.316790 0.614690 -0.612744
O2    O     O_R   0.500000 0.316760 0.385350 -0.623607
O3    O     O_R   0.377150 0.500020 0.614720 -0.618061
O4    O     O_R   0.377140 0.499990 0.385380 -0.605563
O5    O     O_R   0.500000 0.683240 0.614650 -0.617659
O6    O     O_R   0.499990 0.683210 0.385310 -0.620886
O7    O     O_R   0.622860 0.500010 0.614620 -0.614654
O8    O     O_R   0.622850 0.499980 0.385280 -0.629067
Zn1   Zn    Zn3+2 0.500010 0.500020 0.653130 0.946150
Zn2   Zn    Zn3+2 0.499990 0.499980 0.346870 0.942937
O9    O     O_3   0.910562 0.395978 0.737459 -0.611657
C31   C     C_3   0.916315 0.506189 0.815437 -0.306947
H18   H     H_    0.861515 0.568204 0.792034 0.175127
H19   H     H_    0.977207 0.557010 0.806377 0.131648
H20   H     H_    0.910569 0.479551 0.923730 0.213122
H21   H     H_    0.632055 0.532591 0.126876 0.159531
O10   O     O_3   0.087535 0.283154 0.602469 -0.615442
C32   C     C_3   0.098304 0.227071 0.731158 -0.306018
H22   H     H_    0.037616 0.224245 0.788261 0.192643
H23   H     H_    0.148030 0.276768 0.790959 0.151894
H24   H     H_    0.119933 0.129106 0.716761 0.190716
O11   O     O_3   0.082773 0.513497 0.248320 -0.605375
C33   C     C_3   0.099032 0.439979 0.132238 -0.300670
H25   H     H_    0.041583 0.387798 0.098455 0.199368
H26   H     H_    0.152141 0.373574 0.151763 0.148371
H27   H     H_    0.118217 0.502796 0.048161 0.178095
O12   O     O_3   0.931041 0.301341 0.347916 -0.699376
C34   C     C_3   0.856151 0.269048 0.275878 -0.230886
H28   H     H_    0.868597 0.268846 0.165066 0.198595
H29   H     H_    0.801925 0.331751 0.298640 0.177173
H30   H     H_    0.837447 0.172708 0.305292 0.164624
O13   O     O_3   0.915902 0.487633 0.229193 -0.614505
C35   C     C_3   0.909516 0.618650 0.221006 -0.324458
H31   H     H_    0.968903 0.666974 0.250559 0.213009
H32   H     H_    0.852595 0.651976 0.276052 0.158700
H33   H     H_    0.898421 0.643706 0.113170 0.172182
H34   H     H_    0.931787 0.657815 0.622808 0.200606

loop_
_geom_bond_atom_site_label_1
_geom_bond_atom_site_label_2
_ccdc_geom_bond_type
C26   H2    S    
O6    Zn2   S    
C18   C21   A    
C19   C20   A    
C25   O7    A    
C3    C6    S    
C21   N2    A    
O13   C35   S    
O4    Zn2   S    
C7    C8    T    
C34   H28   S    
C5    H17   S    
N1    Zn2   S    
C18   C24   S    
C3    C28   S    
C13   H5    S    
O5    Zn1   S    
C20   H10   S    
C2    O9    S    
O8    Zn2   S    
C22   H11   S    
C4    H34   S    
C15   C16   S    
C17   H9    S    
C31   H19   S    
C16   C17   S    
C1    O1    A    
C12   O4    A    
C16   H7    S    
C27   H15   S    
O10   C32   S    
C7    C30   S    
C21   C22   S    
C27   C30   S    
C25   O8    A    
C33   H27   S    
C12   O3    A    
C34   H29   S    
C25   C29   S    
C32   H22   S    
O1    Zn1   S    
O12   C34   S    
C33   H26   S    
C19   N1    A    
C4    C5    S    
N2    Zn1   S    
C2    H1    S    
C32   H23   S    
C26   O10   S    
C14   C23   S    
C31   H20   S    
C20   N2    A    
C8    C12   S    
C2    C26   S    
C1    O2    A    
O3    Zn1   S    
C9    C17   S    
C26   C30   S    
C35   H32   S    
C24   H14   S    
C22   C24   S    
O2    Zn2   S    
C3    C4    S    
C28   O12   S    
C27   O11   S    
C23   O5    A    
C5    C30   S    
C9    C10   A    
C34   H30   S    
C4    H3    S    
C28   O13   S    
C11   H4    S    
C1    C10   S    
C33   H25   S    
C18   N1    A    
C23   O6    A    
C35   H33   S    
C5    H16   S    
C32   H24   S    
C2    C3    S    
C9    C15   A    
O11   C33   S    
C16   H6    S    
C11   C13   A    
C22   H12   S    
O7    Zn1   S    
C19   H21   S    
C17   H8    S    
C31   H18   S    
C10   C11   A    
C6    C29   T    
C35   H31   S    
C27   C28   S    
C24   H13   S    
C14   C15   A    
O9    C31   S    
C13   C14   A    
