data_mof_unit_6914.cif
_audit_creation_date              2012-12-10T18:09:56-0500
_audit_creation_method            fapswitch 2.2
_symmetry_space_group_name_H-M    P1
_symmetry_Int_Tables_number       1
_space_group_crystal_system       triclinic
_cell_length_a                    10.742978
_cell_length_b                    12.596915
_cell_length_c                    13.259997
_cell_angle_alpha                 82.312531
_cell_angle_beta                  91.655898
_cell_angle_gamma                 101.8256
_cell_volume                      1740.58086111

loop_
_atom_site_label
_atom_site_type_symbol
_atom_type_description
_atom_site_fract_x
_atom_site_fract_y
_atom_site_fract_z
_atom_type_partial_charge
C1    C     C_R   0.475385 0.439876 0.690591 0.922977
C2    C     C_R   0.479958 0.464921 0.967060 -0.106943
C3    C     C_R   0.445740 0.485549 0.864840 -0.139440
C4    C     C_R   0.741720 0.500301 0.499637 1.066856
C5    C     C_R   0.483181 0.547758 0.029355 0.016972
C6    C     C_R   0.489219 0.657457 0.986446 -0.126220
C7    C     C_R   0.448269 0.676626 0.884441 -0.149683
C8    C     C_R   0.410820 0.587000 0.830423 0.654294
C9    C     C_R   0.463099 0.521257 0.133207 -0.021357
C10   C     C_R   0.546888 0.711380 0.155128 -0.190736
C11   C     C_R   0.451587 0.405813 0.800014 -0.198890
C12   C     C_3   0.121857 0.501480 0.498472 -0.547281
C13   C     C_R   0.320146 0.088210 0.346868 -0.274000
C14   C     C_R   0.665929 0.803135 0.618294 0.608775
C15   C     C_R   0.726162 0.911756 0.618379 0.552529
C16   C     C_R   0.511534 0.561395 0.308451 0.893267
C17   C     C_R   0.676272 0.993255 0.559539 0.494991
C18   C     C_R   0.558556 0.966319 0.508741 -0.188412
C19   C     C_R   0.514124 0.855298 0.497424 -0.020959
C20   C     C_R   0.486694 0.044367 0.464799 0.113895
C21   C     C_R   0.391884 0.013623 0.391631 0.042651
C22   C     C_R   0.364190 0.906542 0.368766 -0.044673
C23   C     C_3   0.070121 0.494786 0.385779 0.378638
C24   C     C_R   0.421832 0.827789 0.423348 0.035600
C25   C     C_R   0.496641 0.148577 0.496750 -0.077950
C26   C     C_R   0.342161 0.192611 0.375042 0.788800
C27   C     C_R   0.258548 0.500319 0.499657 0.918256
C28   C     C_3   0.909235 0.410488 0.579868 0.288771
C29   C     C_3   0.049980 0.400232 0.572672 0.390460
C30   C     C_3   0.919317 0.481966 0.385121 -0.323412
C31   C     C_3   0.956447 0.612967 0.525626 0.995462
C32   C     C_3   0.878747 0.501484 0.495516 -0.541594
C33   C     C_2   0.875553 0.558159 0.296947 0.628716
C34   C     C_3   0.097574 0.608980 0.536253 0.910925
C35   C     C_2   0.143781 0.589878 0.312441 0.418379
C36   C     C_2   0.606872 0.798979 0.216437 0.539412
C37   C     C_2   0.432087 0.784819 0.833426 0.603630
C38   C     C_2   0.364559 0.422733 0.166606 0.557343
C39   C     C_2   0.512725 0.166954 0.986225 0.646834
C40   C     C_2   0.550118 0.170816 0.597250 0.739150
C41   C     C_2   0.113326 0.387515 0.676934 0.617698
C42   C     C_2   0.856364 0.365571 0.364233 0.698548
C43   C     C_R   0.524478 0.739971 0.050505 0.718493
C44   C     C_R   0.509353 0.599725 0.198253 -0.264287
C45   C     C_R   0.459045 0.299153 0.842749 0.487053
C46   C     C_R   0.493264 0.277840 0.944760 -0.250029
C47   C     C_R   0.514376 0.363888 0.004122 0.574653
F1    F     F_    0.830984 0.309396 0.575276 -0.580665
F2    F     F_    0.835593 0.937645 0.671438 -0.493410
F3    F     F_    0.053541 0.304513 0.532768 -0.515351
F4    F     F_    0.100218 0.403054 0.352385 -0.558234
F5    F     F_    0.940937 0.700347 0.454313 -0.536591
F6    F     F_    0.914026 0.632624 0.618154 -0.551756
F7    F     F_    0.133774 0.611165 0.637242 -0.564144
F8    F     F_    0.167949 0.703048 0.482977 -0.591215
F9    F     F_    0.542827 0.847355 0.012210 -0.575977
F10   F     F_    0.438918 0.217163 0.784276 -0.625295
F11   F     F_    0.575175 0.351547 0.095015 -0.609810
F12   F     F_    0.339564 0.599166 0.745035 -0.616070
F13   F     F_    0.264963 0.261501 0.339522 -0.574226
F14   F     F_    0.715352 0.723038 0.673375 -0.529745
F15   F     F_    0.748162 0.095960 0.546096 -0.555469
H1    H     H_    0.888310 0.433661 0.654573 0.173473
H2    H     H_    0.505815 0.104181 0.936494 0.162865
H3    H     H_    0.606541 0.249382 0.607826 0.156741
H4    H     H_    0.207705 0.369257 0.682159 0.059895
H5    H     H_    0.889828 0.295150 0.402288 0.243739
H6    H     H_    0.292703 0.882181 0.312358 0.200892
H7    H     H_    0.245134 0.064885 0.292837 0.204187
H8    H     H_    0.393340 0.746329 0.405137 0.194096
H9    H     H_    0.904044 0.553506 0.219970 0.105979
H10   H     H_    0.228758 0.579185 0.276118 0.103470
H11   H     H_    0.670297 0.782257 0.278831 0.140049
H12   H     H_    0.340531 0.794481 0.801003 0.130427
H13   H     H_    0.392010 0.346722 0.196385 0.160760
N1    N     N_R   0.433240 0.222190 0.444680 -0.213545
N2    N     N_R   0.566070 0.776970 0.554790 -0.217346
O1    O     O_R   0.468120 0.366740 0.627160 -0.641339
O2    O     O_2   0.114533 0.679348 0.296604 -0.525411
O3    O     O_2   0.587767 0.891825 0.197012 -0.469701
O4    O     O_2   0.522720 0.861405 0.820134 -0.470271
O5    O     O_2   0.252048 0.425884 0.156607 -0.501166
O6    O     O_2   0.535169 0.143548 0.076343 -0.447255
O7    O     O_2   0.530569 0.099796 0.670572 -0.493940
O8    O     O_2   0.060709 0.394591 0.755490 -0.503099
O9    O     O_2   0.767405 0.348438 0.304838 -0.526113
O10   O     O_R   0.510770 0.544830 0.662520 -0.534379
O11   O     O_R   0.663880 0.410950 0.482330 -0.620875
O12   O     O_R   0.706530 0.589040 0.517700 -0.501846
O13   O     O_R   0.489230 0.455170 0.337480 -0.588830
O14   O     O_R   0.531880 0.633260 0.372840 -0.683349
O15   O     O_R   0.293470 0.410960 0.482300 -0.496989
O16   O     O_R   0.336120 0.589050 0.517670 -0.572176
O17   O     O_2   0.807154 0.621671 0.308843 -0.550942
Zn1   Zn    Zn3+2 0.471520 0.381090 0.476390 1.078210
Zn2   Zn    Zn3+2 0.528480 0.618910 0.523610 1.083584

loop_
_geom_bond_atom_site_label_1
_geom_bond_atom_site_label_2
_ccdc_geom_bond_type
C1    O10   A    
C37   H12   S    
C16   O13   A    
C12   C29   S    
C40   O7    D    
C1    C11   S    
C31   F5    S    
C33   O17   D    
C24   H8    S    
C7    C8    A    
C45   C46   A    
C39   H2    S    
C12   C23   S    
C45   F10   S    
C28   C29   S    
N1    Zn1   S    
C5    C6    A    
C20   C25   A    
C18   C19   A    
C14   N2    A    
C19   N2    A    
O14   Zn2   S    
C26   N1    A    
C42   O9    D    
C16   C44   S    
C29   F3    S    
O11   Zn1   S    
C34   F8    S    
C21   C22   A    
C38   O5    D    
C1    O1    A    
C37   O4    D    
C6    C7    A    
C38   H13   S    
C12   C27   S    
C10   C44   A    
C23   C30   S    
C28   C32   S    
C3    C11   A    
C3    C8    A    
C36   O3    D    
C14   F14   S    
O15   Zn1   S    
C5    C9    A    
C17   F15   S    
C23   F4    S    
C31   C32   S    
O1    Zn1   S    
O10   Zn2   S    
C17   C18   A    
C7    C37   S    
C31   C34   S    
C13   C21   A    
C27   O15   A    
C31   F6    S    
C22   H6    S    
C4    C32   S    
C39   C46   S    
C35   H10   S    
C34   F7    S    
O16   Zn2   S    
C23   C35   S    
C6    C43   A    
C42   H5    S    
C22   C24   A    
C13   C26   A    
C27   O16   A    
C2    C5    A    
C12   C34   S    
C4    O12   A    
C15   C17   A    
C46   C47   A    
C28   F1    S    
C9    C44   A    
C30   C33   S    
C29   C41   S    
C10   C43   A    
O13   Zn1   S    
C41   H4    S    
C4    O11   A    
C2    C47   A    
C41   O8    D    
N2    Zn2   S    
C40   H3    S    
C25   N1    A    
C25   C40   S    
O12   Zn2   S    
C2    C3    A    
C39   O6    D    
C8    F12   S    
C47   F11   S    
C30   C32   S    
C13   H7    S    
C35   O2    D    
C9    C38   S    
C19   C24   A    
C18   C20   A    
C15   F2    S    
C11   C45   A    
C36   H11   S    
C33   H9    S    
C28   H1    S    
C43   F9    S    
C20   C21   A    
C16   O14   A    
C14   C15   A    
C30   C42   S    
C10   C36   S    
C26   F13   S    
