data_mof_unit_46667.cif
_audit_creation_date              2012-12-10T16:38:27-0500
_audit_creation_method            fapswitch 2.2
_symmetry_space_group_name_H-M    P1
_symmetry_Int_Tables_number       1
_space_group_crystal_system       triclinic
_cell_length_a                    10.876312
_cell_length_b                    10.857713
_cell_length_c                    17.8926
_cell_angle_alpha                 98.266383
_cell_angle_beta                  73.138752
_cell_angle_gamma                 98.039714
_cell_volume                      1990.34780629

loop_
_atom_site_label
_atom_site_type_symbol
_atom_type_description
_atom_site_fract_x
_atom_site_fract_y
_atom_site_fract_z
_atom_type_partial_charge
C1    C     C_R   0.158338 0.481285 0.516912 0.487469
C2    C     C_R   0.597499 0.391064 0.919744 -0.144875
C3    C     C_R   0.656245 0.328743 0.960130 -0.117264
C4    C     C_R   0.842675 0.520088 0.482937 0.525501
C5    C     C_R   0.628641 0.349527 0.041855 -0.038514
C6    C     C_R   0.541737 0.438172 0.083823 -0.026286
C7    C     C_R   0.687899 0.283395 0.082085 0.282095
C8    C     C_R   0.665403 0.309074 0.163607 0.234847
C9    C     C_R   0.535212 0.475239 0.164080 0.192700
C10   C     C_2   0.979841 0.521961 0.475897 -0.074534
C11   C     C_2   0.020406 0.472504 0.528369 0.280992
C12   C     C_R   0.298843 0.648384 0.842237 -0.128263
C13   C     C_2   0.535682 0.965777 0.477208 -0.077939
C14   C     C_2   0.450454 0.037818 0.528003 0.286370
C15   C     C_R   0.469093 0.168989 0.517323 0.472283
C16   C     C_R   0.529405 0.832869 0.483194 0.528284
C17   C     C_R   0.565213 0.434725 0.288503 0.582285
C18   C     C_R   0.436419 0.563399 0.712271 0.498329
C19   C     C_R   0.403609 0.583272 0.798447 0.018458
C20   C     C_R   0.590694 0.406393 0.203826 0.007655
C21   C     C_R   0.263383 0.657205 0.923949 -0.130472
C22   C     C_3   0.703547 0.079059 0.034098 -0.112490
C23   C     C_R   0.474254 0.529912 0.837142 -0.127488
C24   C     C_3   0.982227 0.347320 0.630211 -0.101584
C25   C     C_3   0.259390 0.068234 0.628072 -0.100763
C26   C     C_3   0.569119 0.687019 0.185345 -0.117116
C27   C     C_3   0.643910 0.158270 0.245798 -0.103004
C28   C     C_R   0.437540 0.533289 0.919493 0.027154
C29   C     C_R   0.331024 0.599507 0.962818 0.048246
C30   C     C_R   0.502872 0.472334 0.959864 0.026619
C31   C     C_R   0.468529 0.489177 0.043406 0.047856
C32   C     C_R   0.357104 0.549354 0.083945 -0.104179
C33   C     C_R   0.290709 0.604641 0.044357 -0.143940
H1    H     H_    0.206239 0.650620 0.077868 0.116377
H2    H     H_    0.018879 0.268269 0.585963 0.111696
H3    H     H_    0.902672 0.307295 0.677555 0.136259
H4    H     H_    0.610970 0.005723 0.429655 0.038163
H5    H     H_    0.212057 0.089632 0.584689 0.113704
H6    H     H_    0.297204 0.155613 0.658416 0.118427
H7    H     H_    0.184356 0.018577 0.673278 0.140115
H8    H     H_    0.590887 0.700080 0.122109 0.115775
H9    H     H_    0.660026 0.680961 0.200751 0.140022
H10   H     H_    0.526161 0.771393 0.220020 0.133212
H11   H     H_    0.551214 0.131626 0.229657 0.090104
H12   H     H_    0.181447 0.707265 0.956799 0.113219
H13   H     H_    0.622737 0.192930 0.309188 0.140455
H14   H     H_    0.692244 0.071772 0.237027 0.129179
H15   H     H_    0.725039 0.264498 0.926405 0.155915
H16   H     H_    0.243012 0.690592 0.813387 0.143087
H17   H     H_    0.624096 0.367842 0.856991 0.110190
H18   H     H_    0.558258 0.486928 0.801317 0.135676
H19   H     H_    0.314928 0.549329 0.146400 0.187737
H20   H     H_    0.628873 0.080038 0.002884 0.100535
H21   H     H_    0.657978 0.044196 0.092257 0.119614
H22   H     H_    0.771691 0.011699 0.998810 0.141298
H23   H     H_    0.049257 0.562006 0.426034 0.062135
H24   H     H_    0.058665 0.394825 0.657380 0.115884
O1    O     O_3   0.500000 0.500000 0.500000 -0.455502
O2    O     O_R   0.470800 0.371790 0.332500 -0.548922
O3    O     O_R   0.380610 0.619380 0.674980 -0.542910
O4    O     O_R   0.632640 0.524780 0.317540 -0.527123
O5    O     O_R   0.515950 0.484050 0.674980 -0.542032
O6    O     O_3   0.773560 0.197685 0.041528 -0.531297
O7    O     O_3   0.932972 0.433469 0.597182 -0.540581
O8    O     O_3   0.358207 0.989606 0.592341 -0.539970
O9    O     O_3   0.479460 0.581314 0.204501 -0.581850
O10   O     O_3   0.730116 0.248184 0.201280 -0.535795
O11   O     O_R   0.535460 0.243030 0.556410 -0.541878
O12   O     O_R   0.437420 0.784080 0.535340 -0.471188
O13   O     O_R   0.223560 0.397520 0.472140 -0.555802
O14   O     O_R   0.803560 0.575360 0.436110 -0.548847
O15   O     O_R   0.209690 0.568800 0.556400 -0.538946
O16   O     O_R   0.763190 0.458310 0.535350 -0.473728
O17   O     O_R   0.414000 0.207090 0.472140 -0.574384
O18   O     O_R   0.613120 0.765800 0.436110 -0.552571
Zn1   Zn    Zn3+2 0.577310 0.422690 0.565550 0.956018
Zn2   Zn    Zn3+2 0.403760 0.371330 0.445150 0.918766
Zn3   Zn    Zn3+2 0.634990 0.589920 0.423760 0.952438
Zn4   Zn    Zn3+2 0.383940 0.616050 0.565540 0.968896

loop_
_geom_bond_atom_site_label_1
_geom_bond_atom_site_label_2
_ccdc_geom_bond_type
O3    Zn4   S    
C16   O18   A    
C1    C11   S    
O2    Zn2   S    
C6    C9    A    
C12   H16   S    
O1    Zn1   S    
C7    C8    A    
C22   H21   S    
C24   H3    S    
C28   C29   A    
O15   Zn4   S    
C25   H7    S    
C30   C31   A    
C29   C33   A    
C3    H15   S    
C17   C20   S    
C18   C19   S    
C9    O9    S    
C32   H19   S    
C2    H17   S    
O1    Zn2   S    
C17   O4    A    
C22   O6    S    
C27   H11   S    
C24   H24   S    
O17   Zn2   S    
C10   H23   S    
C13   H4    S    
C6    C31   A    
C24   O7    S    
C13   C14   D    
O13   Zn2   S    
O5    Zn1   S    
C26   H10   S    
C22   H20   S    
C21   H12   S    
C24   H2    S    
C1    O15   A    
C25   O8    S    
C11   O7    S    
C5    C7    A    
C18   O5    A    
C21   C29   A    
C12   C21   A    
C26   O9    S    
C19   C23   A    
C25   H5    S    
C9    C20   A    
C23   H18   S    
C31   C32   A    
O4    Zn3   S    
C33   H1    S    
C8    C20   A    
C23   C28   A    
C7    O6    S    
C4    O16   A    
O1    Zn4   S    
C17   O2    A    
C27   H13   S    
C18   O3    A    
O16   Zn1   S    
O12   Zn4   S    
C4    C10   S    
C26   H9    S    
C27   H14   S    
C16   O12   A    
C3    C5    A    
C22   H22   S    
O11   Zn1   S    
C1    O13   A    
C2    C30   A    
C32   C33   A    
C28   C30   A    
C2    C3    A    
C25   H6    S    
C5    C6    A    
C15   O11   A    
C12   C19   A    
C14   O8    S    
O14   Zn3   S    
O18   Zn3   S    
C27   O10   S    
C10   C11   D    
O1    Zn3   S    
C15   O17   A    
C8    O10   S    
C13   C16   S    
C14   C15   S    
C4    O14   A    
C26   H8    S    
