data_mof_unit_36222.cif
_audit_creation_date              2012-12-10T19:13:22-0500
_audit_creation_method            fapswitch 2.2
_symmetry_space_group_name_H-M    P1
_symmetry_Int_Tables_number       1
_space_group_crystal_system       triclinic
_cell_length_a                    9.758986
_cell_length_b                    10.626471
_cell_length_c                    16.62792
_cell_angle_alpha                 89.82919
_cell_angle_beta                  85.516777
_cell_angle_gamma                 91.194973
_cell_volume                      1718.70646126

loop_
_atom_site_label
_atom_site_type_symbol
_atom_type_description
_atom_site_fract_x
_atom_site_fract_y
_atom_site_fract_z
_atom_type_partial_charge
C1    C     C_R   0.501313 0.742193 0.498995 0.839748
C2    C     C_R   0.352630 0.516715 0.787317 -0.216338
C3    C     C_R   0.440710 0.668180 0.157519 -0.163040
C4    C     C_R   0.427114 0.619746 0.235132 -0.228046
C5    C     C_R   0.648179 0.519749 0.212592 -0.215630
C6    C     C_R   0.660410 0.566091 0.133971 -0.171830
C7    C     C_R   0.555022 0.637621 0.105446 0.208034
C8    C     C_2   0.444261 0.664495 0.980076 -0.238020
C9    C     C_2   0.559720 0.665517 0.019034 -0.238607
C10   C     C_R   0.529655 0.543772 0.262638 -0.024716
C11   C     C_3   0.426971 0.926240 0.426101 -0.398035
C12   C     C_R   0.481457 0.505140 0.653240 0.857544
C13   C     C_3   0.424646 0.070592 0.426702 -0.411628
C14   C     C_3   0.429622 0.925123 0.578524 -0.393209
C15   C     C_3   0.652727 0.931095 0.490570 -0.408256
C16   C     C_3   0.502985 0.878354 0.498485 0.188892
C17   C     C_3   0.500547 0.120853 0.498778 0.193224
C18   C     C_3   0.428423 0.069403 0.578684 -0.422174
C19   C     C_3   0.651435 0.074039 0.490484 -0.383168
C20   C     C_3   0.918391 0.627080 0.521949 -0.279260
C21   C     C_3   0.081720 0.631466 0.514775 -0.355646
C22   C     C_3   0.907803 0.408265 0.559465 -0.220909
C23   C     C_R   0.499569 0.257534 0.499385 0.832999
C24   C     C_3   0.925349 0.468706 0.421243 -0.241369
C25   C     C_3   0.065833 0.425263 0.569681 0.116921
C26   C     C_3   0.087122 0.463558 0.420803 0.120959
C27   C     C_R   0.518692 0.505298 0.346719 0.861429
C28   C     C_R   0.471617 0.543325 0.737111 -0.026084
C29   C     C_R   0.575725 0.621610 0.764134 -0.222114
C30   C     C_R   0.563200 0.669791 0.841530 -0.163779
C31   C     C_R   0.448295 0.636732 0.893805 0.207770
C32   C     C_R   0.341403 0.562861 0.865694 -0.171816
H1    H     H_    0.749742 0.542346 0.094557 0.121620
H2    H     H_    0.319341 0.888564 0.429493 0.170016
H3    H     H_    0.479367 0.893285 0.368316 0.158380
H4    H     H_    0.316012 0.101340 0.431521 0.167887
H5    H     H_    0.321898 0.887692 0.585825 0.172224
H6    H     H_    0.320341 0.100402 0.585904 0.177092
H7    H     H_    0.709985 0.898112 0.541807 0.169664
H8    H     H_    0.707871 0.897799 0.433644 0.167612
H9    H     H_    0.706008 0.110171 0.433428 0.167153
H10   H     H_    0.337701 0.644315 0.274253 0.142736
H11   H     H_    0.708963 0.109139 0.541512 0.168910
H12   H     H_    0.483393 0.890933 0.630801 0.158875
H13   H     H_    0.481512 0.105897 0.630998 0.157993
H14   H     H_    0.879344 0.653249 0.584194 0.147644
H15   H     H_    0.880921 0.699547 0.481091 0.164085
H16   H     H_    0.119866 0.696282 0.464871 0.152566
H17   H     H_    0.119759 0.673113 0.570394 0.165065
H18   H     H_    0.849122 0.419644 0.618916 0.158144
H19   H     H_    0.073230 0.479242 0.626812 0.130931
H20   H     H_    0.729958 0.464202 0.233948 0.136812
H21   H     H_    0.897990 0.540194 0.376442 0.138690
H22   H     H_    0.130420 0.533058 0.374747 0.144995
H23   H     H_    0.883302 0.311625 0.538463 0.153349
H24   H     H_    0.251626 0.537157 0.905268 0.121812
H25   H     H_    0.360755 0.727749 0.138218 0.124230
H26   H     H_    0.269724 0.459297 0.766262 0.142182
H27   H     H_    0.344405 0.657169 0.013595 0.144268
H28   H     H_    0.644397 0.731103 0.860538 0.124314
N1    N     N_3   0.861190 0.500250 0.501720 -0.064068
N2    N     N_3   0.138550 0.503270 0.501080 -0.078223
O1    O     O_R   0.383960 0.685090 0.500020 -0.631773
O2    O     O_R   0.616040 0.685320 0.499960 -0.631497
O3    O     O_R   0.370240 0.499890 0.615830 -0.632302
O4    O     O_R   0.602330 0.500120 0.615770 -0.620103
O5    O     O_R   0.383960 0.314680 0.500040 -0.667774
O6    O     O_R   0.616040 0.314910 0.499980 -0.628481
O7    O     O_R   0.397670 0.499880 0.384230 -0.627934
O8    O     O_R   0.629760 0.500110 0.384170 -0.621716
Zn1   Zn    Zn3+2 0.345040 0.499850 0.500040 0.886169
Zn2   Zn    Zn3+2 0.654960 0.500150 0.499960 0.893698
H29   H     H_    0.665531 0.648109 0.724776 0.143091
H30   H     H_    0.474690 0.108416 0.368917 0.156925
H31   H     H_    0.878777 0.378705 0.401330 0.163636
C33   C     C_3   0.135034 0.333504 0.388782 -0.408446
C34   C     C_3   0.125628 0.321733 0.297576 -0.969370
H32   H     H_    0.018517 0.333741 0.281301 0.257082
H33   H     H_    0.193553 0.393412 0.264923 0.273750
H34   H     H_    0.159705 0.226991 0.277566 0.260344
H35   H     H_    0.242453 0.317898 0.398968 0.274241
H36   H     H_    0.071195 0.256341 0.418325 0.184793
C35   C     C_3   0.130252 0.298178 0.590325 -0.383654
C36   C     C_3   0.049399 0.227010 0.659786 -1.026140
H37   H     H_    0.028457 0.290022 0.712309 0.267363
H38   H     H_    0.950912 0.187567 0.640796 0.265224
H39   H     H_    0.110598 0.147028 0.679245 0.263640
H40   H     H_    0.140872 0.234707 0.537985 0.209927
H41   H     H_    0.231702 0.316201 0.612986 0.264233
H42   H     H_    0.659408 0.660093 0.985519 0.144272

loop_
_geom_bond_atom_site_label_1
_geom_bond_atom_site_label_2
_ccdc_geom_bond_type
C10   C27   S    
C18   H13   S    
C24   N1    S    
C14   C18   S    
C36   H39   S    
C21   H17   S    
C34   H32   S    
C15   C19   S    
C17   C23   S    
C12   C28   S    
C28   C29   A    
C24   C26   S    
C3    C7    A    
C8    H27   S    
C5    C6    A    
C29   H29   S    
C15   C16   S    
C26   H22   S    
C2    C32   A    
C23   O5    A    
C20   N1    S    
O7    Zn1   S    
O4    Zn2   S    
C35   C36   S    
C8    C9    D    
C22   C25   S    
C30   H28   S    
C26   C33   S    
C5    H20   S    
C27   O7    A    
C22   H18   S    
C21   H16   S    
C35   H40   S    
C1    O1    A    
C19   H11   S    
C34   H33   S    
C35   H41   S    
C36   H37   S    
C13   H4    S    
C33   H36   S    
C24   H21   S    
O3    Zn1   S    
C12   O4    A    
C23   O6    A    
C9    H42   S    
C25   H19   S    
C29   C30   A    
C11   C16   S    
C31   C32   A    
O6    Zn2   S    
C20   C21   S    
C17   C18   S    
C1    C16   S    
C33   C34   S    
C15   H7    S    
C21   N2    S    
C22   H23   S    
C27   O8    A    
C3    H25   S    
N1    Zn2   S    
O1    Zn1   S    
C14   C16   S    
C4    C10   A    
C3    C4    A    
C1    O2    A    
C14   H12   S    
C34   H34   S    
C7    C9    S    
C8    C31   S    
C11   H2    S    
C36   H38   S    
C33   H35   S    
C2    C28   A    
C2    H26   S    
C24   H31   S    
C6    C7    A    
C12   O3    A    
C6    H1    S    
C13   C17   S    
C11   H3    S    
C26   N2    S    
C5    C10   A    
C14   H5    S    
C11   C13   S    
C30   C31   A    
C4    H10   S    
C17   C19   S    
N2    Zn1   S    
O5    Zn1   S    
C25   N2    S    
O2    Zn2   S    
C18   H6    S    
C15   H8    S    
C20   H15   S    
C13   H30   S    
C25   C35   S    
O8    Zn2   S    
C32   H24   S    
C20   H14   S    
C19   H9    S    
C22   N1    S    
