data_mof_unit_30102.cif
_audit_creation_date              2012-12-10T18:53:43-0500
_audit_creation_method            fapswitch 2.2
_symmetry_space_group_name_H-M    P1
_symmetry_Int_Tables_number       1
_space_group_crystal_system       triclinic
_cell_length_a                    10.724199
_cell_length_b                    9.981772
_cell_length_c                    19.195984
_cell_angle_alpha                 90.004329
_cell_angle_beta                  93.717272
_cell_angle_gamma                 89.9985
_cell_volume                      2050.53988702

loop_
_atom_site_label
_atom_site_type_symbol
_atom_type_description
_atom_site_fract_x
_atom_site_fract_y
_atom_site_fract_z
_atom_type_partial_charge
C1    C     C_R   0.260256 0.500001 0.499746 0.859654
C2    C     C_R   0.739742 0.499999 0.500236 0.858743
C3    C     C_R   0.528554 0.501617 0.931130 0.286831
C4    C     C_R   0.525254 0.501207 0.070688 0.286925
C5    C     C_R   0.500157 0.500020 0.365702 0.879803
C6    C     C_R   0.501565 0.500030 0.634347 0.880868
C7    C     C_R   0.063860 0.377837 0.499878 -0.194397
C8    C     C_R   0.936124 0.622164 0.500026 -0.194504
C9    C     C_R   0.936143 0.377837 0.500134 -0.194130
C10   C     C_R   0.063842 0.622164 0.499769 -0.194583
C11   C     C_R   0.872437 0.500000 0.500196 -0.007267
C12   C     C_R   0.127552 0.500001 0.499732 -0.007987
C13   C     C_R   0.580522 0.071742 0.545078 0.202668
C14   C     C_R   0.419560 0.928257 0.454880 0.202324
C15   C     C_R   0.419553 0.071733 0.454883 0.202497
C16   C     C_R   0.580521 0.928266 0.545079 0.203259
C17   C     C_R   0.510714 0.622028 0.254252 -0.208513
C18   C     C_R   0.515156 0.379072 0.747038 -0.195921
C19   C     C_R   0.514263 0.622127 0.746557 -0.209239
C20   C     C_R   0.508111 0.378963 0.253654 -0.194251
C21   C     C_R   0.520402 0.624199 0.182382 0.179369
C22   C     C_R   0.524924 0.378276 0.819716 0.171320
C23   C     C_R   0.525154 0.624404 0.819112 0.180061
C24   C     C_R   0.516669 0.378083 0.181595 0.170921
C25   C     C_R   0.522770 0.501347 0.145910 0.073999
C26   C     C_R   0.529091 0.501619 0.855809 0.073757
C27   C     C_R   0.505195 0.500276 0.290046 -0.123250
C28   C     C_R   0.509132 0.500328 0.710399 -0.123639
N1    N     N_R   0.500000 0.857200 0.500000 -0.117288
N2    N     N_R   0.500000 0.142800 0.500000 -0.117220
N3    N     N_R   0.626946 0.455510 0.039787 -0.168014
N4    N     N_R   0.426868 0.547090 0.962070 -0.164141
N5    N     N_R   0.628575 0.455678 0.970715 -0.168698
N6    N     N_R   0.425231 0.546905 0.031075 -0.165236
O1    O     O_R   0.316770 0.614620 0.500000 -0.630182
O2    O     O_R   0.683230 0.385380 0.500000 -0.630558
O3    O     O_R   0.683230 0.614620 0.500000 -0.630708
O4    O     O_R   0.316770 0.385380 0.500000 -0.630183
O5    O     O_R   0.499990 0.614700 0.398140 -0.625886
O6    O     O_R   0.500010 0.385300 0.601860 -0.625292
O7    O     O_R   0.500010 0.614700 0.601860 -0.625306
O8    O     O_R   0.499990 0.385300 0.398140 -0.625637
Zn1   Zn    Zn3+2 0.500000 0.653120 0.500000 0.932984
Zn2   Zn    Zn3+2 0.500000 0.346880 0.500000 0.933338
H1    H     H_    0.112162 0.282506 0.499866 0.161190
H2    H     H_    0.887822 0.717494 0.500032 0.161077
H3    H     H_    0.887854 0.282509 0.500229 0.161086
H4    H     H_    0.112130 0.717493 0.499669 0.161179
H5    H     H_    0.509116 0.716275 0.282262 0.175537
H6    H     H_    0.511682 0.284728 0.719062 0.168878
H7    H     H_    0.510811 0.716347 0.718417 0.175094
H8    H     H_    0.503721 0.284651 0.281343 0.169006
C29   C     C_3   0.530092 0.759280 0.147618 -0.903060
H9    H     H_    0.548034 0.752769 0.091531 0.251433
H10   H     H_    0.442046 0.815989 0.152630 0.244834
H11   H     H_    0.608504 0.816824 0.173740 0.240375
C30   C     C_3   0.527384 0.245771 0.857719 -0.896690
H12   H     H_    0.448827 0.240812 0.892580 0.248749
H13   H     H_    0.518203 0.159700 0.821042 0.233154
H14   H     H_    0.617187 0.234516 0.889278 0.255364
C31   C     C_3   0.533794 0.759539 0.854563 -0.903137
H15   H     H_    0.553689 0.753036 0.911827 0.251046
H16   H     H_    0.610577 0.818558 0.833380 0.237334
H17   H     H_    0.444631 0.814671 0.844048 0.247673
C32   C     C_3   0.516429 0.245625 0.143590 -0.897266
H18   H     H_    0.437628 0.242530 0.103135 0.247689
H19   H     H_    0.605850 0.232415 0.118375 0.256294
H20   H     H_    0.505682 0.159708 0.179504 0.233205
C33   C     C_3   0.671670 0.142680 0.596045 -0.833981
H21   H     H_    0.668056 0.251078 0.593882 0.288436
H22   H     H_    0.652922 0.115246 0.650393 0.212517
H23   H     H_    0.768960 0.115065 0.585697 0.211287
C34   C     C_3   0.328659 0.857307 0.403783 -0.834085
H24   H     H_    0.331989 0.748916 0.406123 0.288672
H25   H     H_    0.231301 0.885155 0.413846 0.210981
H26   H     H_    0.347955 0.884442 0.349469 0.213393
C35   C     C_3   0.328600 0.142669 0.403815 -0.834040
H27   H     H_    0.332009 0.251061 0.406112 0.288545
H28   H     H_    0.347760 0.115430 0.349494 0.212994
H29   H     H_    0.231256 0.114901 0.413953 0.211108
C36   C     C_3   0.671685 0.857338 0.596038 -0.835178
H30   H     H_    0.668037 0.748940 0.593891 0.288553
H31   H     H_    0.768970 0.884913 0.585662 0.211407
H32   H     H_    0.652991 0.884825 0.650388 0.212055

loop_
_geom_bond_atom_site_label_1
_geom_bond_atom_site_label_2
_ccdc_geom_bond_type
C5    O8    A    
C31   H17   S    
C34   H25   S    
C34   H24   S    
C22   C30   S    
C4    C25   S    
C29   H9    S    
C1    O1    A    
C7    H1    S    
C33   H21   S    
C29   H11   S    
C3    N5    A    
C33   H22   S    
C23   C26   A    
C31   H16   S    
C5    C27   S    
C6    C28   S    
C20   C24   A    
C32   H19   S    
C6    O7    A    
N3    N5    A    
O1    Zn1   S    
C35   H28   S    
N1    Zn1   S    
O7    Zn1   S    
N2    Zn2   S    
C3    N4    A    
C1    C12   S    
O8    Zn2   S    
C2    C11   S    
C36   H31   S    
C36   H30   S    
C29   H10   S    
C7    C12   A    
C4    N6    A    
C17   C27   A    
C14   C34   S    
C13   N2    A    
C18   C28   A    
C24   C25   A    
C17   H5    S    
C30   H14   S    
O5    Zn1   S    
C16   N1    A    
C35   H27   S    
C17   C21   A    
N4    N6    A    
O3    Zn1   S    
C33   H23   S    
C19   C23   A    
O4    Zn2   S    
C23   C31   S    
C32   H20   S    
C19   C28   A    
C9    C11   A    
C10   C12   A    
C1    O4    A    
C24   C32   S    
C9    H3    S    
C5    O5    A    
C10   H4    S    
C34   H26   S    
C6    O6    A    
O2    Zn2   S    
C14   N1    A    
C36   H32   S    
C18   H6    S    
C15   N2    A    
C35   H29   S    
C2    O2    A    
C7    C9    A    
C21   C25   A    
C18   C22   A    
C3    C26   S    
C20   C27   A    
C20   H8    S    
C21   C29   S    
C2    O3    A    
C30   H12   S    
C15   C35   S    
C13   C33   S    
C8    C11   A    
C16   C36   S    
C31   H15   S    
C8    H2    S    
C4    N3    A    
C30   H13   S    
C19   H7    S    
O6    Zn2   S    
C8    C10   A    
C32   H18   S    
C22   C26   A    
C13   C16   A    
C14   C15   A    
