data_mof_unit_33594.cif
_audit_creation_date              2012-12-10T18:36:14-0500
_audit_creation_method            fapswitch 2.2
_symmetry_space_group_name_H-M    P1
_symmetry_Int_Tables_number       1
_space_group_crystal_system       triclinic
_cell_length_a                    14.970136
_cell_length_b                    15.529276
_cell_length_c                    19.129433
_cell_angle_alpha                 89.329059
_cell_angle_beta                  104.371907
_cell_angle_gamma                 82.268005
_cell_volume                      4264.06715158

loop_
_atom_site_label
_atom_site_type_symbol
_atom_type_description
_atom_site_fract_x
_atom_site_fract_y
_atom_site_fract_z
_atom_type_partial_charge
C1    C     C_R   0.441478 0.661709 0.489913 0.856213
C2    C     C_R   0.558399 0.338112 0.510464 0.865243
C3    C     C_R   0.405741 0.752893 0.492680 -0.052798
C4    C     C_R   0.594628 0.245751 0.517390 -0.058900
C5    C     C_R   0.308328 0.863565 0.537771 -0.172434
C6    C     C_R   0.713130 0.126387 0.510915 -0.156310
C7    C     C_R   0.327255 0.778131 0.518730 -0.221827
C8    C     C_R   0.685054 0.215385 0.512397 -0.223120
C9    C     C_R   0.460978 0.813663 0.481245 -0.229658
C10   C     C_R   0.535184 0.187240 0.525980 -0.210868
C11   C     C_R   0.450201 0.896777 0.507847 0.059529
C12   C     C_R   0.562235 0.097683 0.526170 0.047800
C13   C     C_R   0.370511 0.922970 0.534374 0.049782
C14   C     C_R   0.651009 0.067099 0.514771 0.067886
C15   C     C_R   0.518706 0.952517 0.511729 0.008588
C16   C     C_R   0.499845 0.038814 0.531902 -0.002482
C17   C     C_R   0.420069 0.063578 0.558119 -0.301411
C18   C     C_R   0.607339 0.923439 0.499753 -0.337350
C19   C     C_R   0.356048 0.006708 0.559425 0.439303
C20   C     C_R   0.675275 0.978521 0.505688 0.448178
C21   C     C_R   0.855637 0.596679 0.633573 0.300716
C22   C     C_R   0.154641 0.371274 0.383952 0.290645
C23   C     C_R   0.499724 0.502637 0.634286 0.850701
C24   C     C_R   0.498854 0.501012 0.365349 0.835733
C25   C     C_R   0.760125 0.595367 0.602681 0.474178
C26   C     C_R   0.247843 0.385374 0.410085 0.503820
C27   C     C_R   0.792202 0.518888 0.503009 -0.163292
C28   C     C_R   0.203465 0.491339 0.488336 -0.162579
C29   C     C_R   0.888164 0.525298 0.527404 -0.095123
C30   C     C_R   0.113083 0.467971 0.474510 -0.075652
C31   C     C_R   0.919072 0.569057 0.592126 -0.097599
C32   C     C_R   0.087876 0.407881 0.420226 -0.158239
C33   C     C_R   0.954410 0.485957 0.491382 0.064800
C34   C     C_R   0.048095 0.501946 0.513578 0.077787
C35   C     C_R   0.076221 0.546678 0.576892 -0.368560
C36   C     C_R   0.931749 0.425002 0.438173 -0.327622
C37   C     C_R   0.013181 0.582549 0.615446 0.542623
C38   C     C_R   0.998277 0.382531 0.406364 0.479716
C39   C     C_R   0.411096 0.515391 0.727934 -0.201200
C40   C     C_R   0.574800 0.522369 0.266772 -0.184475
C41   C     C_R   0.405196 0.533018 0.797657 -0.163627
C42   C     C_R   0.569910 0.538173 0.194397 -0.159831
C43   C     C_R   0.483769 0.551631 0.849368 0.088405
C44   C     C_R   0.484736 0.541240 0.142552 0.087101
C45   C     C_R   0.567736 0.554530 0.829768 -0.173101
C46   C     C_R   0.404527 0.527678 0.164200 -0.156150
C47   C     C_R   0.573597 0.537018 0.759921 -0.172219
C48   C     C_R   0.409383 0.512121 0.236821 -0.216793
C49   C     C_R   0.495546 0.516526 0.708760 -0.040337
C50   C     C_R   0.494511 0.509815 0.288547 -0.035935
C51   C     C_R   0.481079 0.554119 0.066016 0.287843
C52   C     C_R   0.480353 0.560403 0.924708 0.290837
H1    H     H_    0.349250 0.501344 0.689082 0.155802
H2    H     H_    0.641416 0.520880 0.305668 0.153070
H3    H     H_    0.465272 0.213038 0.527823 0.176767
H4    H     H_    0.514966 0.792378 0.454524 0.139925
H5    H     H_    0.732421 0.260304 0.506456 0.159788
H6    H     H_    0.283393 0.731155 0.527635 0.147756
H7    H     H_    0.247718 0.881554 0.558569 0.175890
H8    H     H_    0.782171 0.104552 0.504121 0.182651
H9    H     H_    0.408330 0.125381 0.582009 0.166926
H10   H     H_    0.627273 0.857522 0.487412 0.138214
N1    N     N_R   0.558229 0.570879 0.976015 -0.179244
N2    N     N_R   0.402354 0.546223 0.014635 -0.178663
N3    N     N_R   0.558545 0.567868 0.045403 -0.179623
N4    N     N_R   0.402044 0.549226 0.945200 -0.177461
N5    N     N_R   0.731690 0.552730 0.540620 -0.153401
N6    N     N_R   0.268310 0.447270 0.459380 -0.156668
O1    O     O_R   0.383120 0.605620 0.479520 -0.620980
O2    O     O_R   0.616880 0.394380 0.520480 -0.615297
O3    O     O_R   0.531890 0.639510 0.505590 -0.606483
O4    O     O_R   0.468110 0.360490 0.494410 -0.562625
O5    O     O_R   0.425590 0.483060 0.588820 -0.626378
O6    O     O_R   0.574410 0.516940 0.411180 -0.624110
O7    O     O_R   0.574360 0.516950 0.614890 -0.552501
O8    O     O_R   0.425640 0.483050 0.385110 -0.626063
Zn1   Zn    Zn3+2 0.400660 0.477370 0.482600 0.959843
Zn2   Zn    Zn3+2 0.599340 0.522630 0.517400 0.975380
O9    O     O_3   0.042138 0.628456 0.677497 -0.581536
C53   C     C_3   0.108377 0.683301 0.670766 0.061899
H11   H     H_    0.093391 0.713637 0.615201 0.127606
H12   H     H_    0.179593 0.645716 0.685122 0.152762
C54   C     C_3   0.107422 0.756270 0.723078 -0.835469
H13   H     H_    0.130945 0.729173 0.779632 0.255827
H14   H     H_    0.155575 0.801730 0.714853 0.220661
H15   H     H_    0.036265 0.792968 0.713817 0.248451
O10   O     O_3   0.974002 0.315481 0.361769 -0.591324
C55   C     C_3   0.994761 0.237102 0.404400 0.147175
H16   H     H_    0.950182 0.238315 0.443265 0.117234
H17   H     H_    0.069593 0.225460 0.434596 0.145671
C56   C     C_3   0.975747 0.161578 0.355617 -0.798882
H18   H     H_    0.020573 0.157816 0.317067 0.267224
H19   H     H_    0.991305 0.099659 0.388788 0.199671
H20   H     H_    0.901448 0.170592 0.324910 0.255159
H21   H     H_    0.224905 0.543223 0.522707 0.154654
H22   H     H_    0.763300 0.487397 0.454452 0.161341
O11   O     O_3   0.320419 0.325844 0.399053 -0.590660
C57   C     C_3   0.327573 0.326746 0.326761 0.193258
H23   H     H_    0.396175 0.345408 0.325859 0.159221
H24   H     H_    0.274389 0.373656 0.289226 0.095336
C58   C     C_3   0.326747 0.235150 0.299171 -0.822152
H25   H     H_    0.331806 0.235728 0.242237 0.201849
H26   H     H_    0.387088 0.190791 0.332578 0.251385
H27   H     H_    0.261856 0.209891 0.302004 0.290375
O12   O     O_3   0.695762 0.628247 0.639488 -0.587406
C59   C     C_3   0.668789 0.717954 0.620029 0.080594
H28   H     H_    0.640698 0.729570 0.560999 0.158290
H29   H     H_    0.728128 0.755536 0.635252 0.055274
C60   C     C_3   0.595244 0.754337 0.658431 -0.765196
H30   H     H_    0.623593 0.744659 0.717825 0.236426
H31   H     H_    0.574496 0.825022 0.644690 0.212607
H32   H     H_    0.532933 0.720661 0.641853 0.257618
O13   O     O_3   0.888703 0.595387 0.708362 -0.550197
C61   C     C_3   0.874802 0.678667 0.735767 0.185199
H33   H     H_    0.803365 0.692643 0.743308 0.158571
H34   H     H_    0.888493 0.730537 0.700624 0.117048
C62   C     C_3   0.940279 0.679163 0.810612 -0.783513
H35   H     H_    0.013199 0.656858 0.808986 0.293351
H36   H     H_    0.935322 0.745965 0.830764 0.190508
H37   H     H_    0.920933 0.634794 0.848628 0.243488
O14   O     O_3   0.131681 0.317447 0.327045 -0.580925
C63   C     C_3   0.084485 0.369362 0.263793 0.160079
H38   H     H_    0.123911 0.421985 0.253499 0.078533
H39   H     H_    0.014742 0.400814 0.267469 0.179198
C64   C     C_3   0.070814 0.312176 0.199076 -0.811795
H40   H     H_    0.030587 0.259572 0.207485 0.267522
H41   H     H_    0.031918 0.351886 0.149540 0.206530
H42   H     H_    0.139375 0.282780 0.191521 0.243918
H43   H     H_    0.148798 0.549681 0.600148 0.132822
H44   H     H_    0.864587 0.402975 0.423994 0.155059
H45   H     H_    0.339469 0.530565 0.811188 0.155567
H46   H     H_    0.633107 0.547522 0.179226 0.150617
H47   H     H_    0.629469 0.568753 0.868595 0.153268
H48   H     H_    0.338004 0.529327 0.125216 0.147684
H49   H     H_    0.639204 0.539373 0.746181 0.201606
H50   H     H_    0.346267 0.503664 0.252461 0.137457
O15   O     O_3   0.284675 0.030280 0.592499 -0.608456
C65   C     C_3   0.208403 0.077300 0.541662 0.081321
H51   H     H_    0.188269 0.041096 0.491435 0.136338
H52   H     H_    0.225148 0.142025 0.527609 0.152191
C66   C     C_3   0.125339 0.091037 0.574764 -0.821711
H53   H     H_    0.141671 0.129851 0.623540 0.265936
H54   H     H_    0.063666 0.126099 0.535281 0.190273
H55   H     H_    0.108307 0.027193 0.590228 0.253920
O16   O     O_3   0.761632 0.948859 0.493549 -0.610889
C67   C     C_3   0.809015 0.880425 0.544092 0.092520
H56   H     H_    0.782588 0.818248 0.527685 0.126082
H57   H     H_    0.802173 0.894223 0.599806 0.123035
C68   C     C_3   0.911979 0.868765 0.545864 -0.840112
H58   H     H_    0.942038 0.928687 0.564247 0.252223
H59   H     H_    0.948948 0.813435 0.583753 0.207158
H60   H     H_    0.921715 0.854771 0.491222 0.263180

loop_
_geom_bond_atom_site_label_1
_geom_bond_atom_site_label_2
_ccdc_geom_bond_type
C15   C18   A    
O10   C55   S    
N1    N3    A    
C58   H25   S    
C29   C33   A    
O2    Zn2   S    
C62   H35   S    
O1    Zn1   S    
C25   N5    A    
C4    C8    A    
C62   H36   S    
C61   H33   S    
C25   O12   S    
C39   C41   A    
C37   O9    S    
C6    C14   A    
C1    O3    A    
C22   C32   A    
C28   H21   S    
C28   N6    A    
O13   C61   S    
C3    C7    A    
C66   H54   S    
C43   C52   S    
C23   C49   S    
C27   C29   A    
C59   H28   S    
C15   C16   A    
O11   C57   S    
C36   H44   S    
C33   C36   A    
C34   C35   A    
C51   N3    A    
C17   H9    S    
C11   C15   A    
C12   C16   A    
C16   C17   A    
C64   H42   S    
C32   C38   A    
C35   H43   S    
C7    H6    S    
C5    C13   A    
C48   C50   A    
C58   H26   S    
C41   C43   A    
C68   H59   S    
C27   H22   S    
N5    Zn2   S    
C42   C44   A    
C23   O5    A    
C53   C54   S    
C2    O4    A    
O7    Zn2   S    
C44   C46   A    
O16   C67   S    
C67   H57   S    
C45   C47   A    
C24   C50   S    
C46   C48   A    
C5    H7    S    
C14   C20   A    
O8    Zn1   S    
C53   H12   S    
C66   H55   S    
C56   H18   S    
C41   H45   S    
C30   C34   A    
C24   O8    A    
C13   C19   A    
C6    C8    A    
C56   H19   S    
C65   C66   S    
C1    O1    A    
C31   C37   A    
C1    C3    S    
N2    N4    A    
C2    C4    S    
O4    Zn1   S    
C3    C9    A    
C6    H8    S    
C8    H5    S    
C46   H48   S    
C67   C68   S    
C21   C31   A    
C40   C42   A    
C54   H13   S    
C55   C56   S    
C19   O15   S    
C33   C34   A    
C9    H4    S    
C10   H3    S    
C9    C11   A    
O14   C63   S    
C10   C12   A    
C68   H60   S    
C44   C51   S    
C21   O13   S    
C54   H14   S    
C55   H17   S    
C58   H27   S    
C40   H2    S    
C66   H53   S    
O6    Zn2   S    
C64   H40   S    
C62   H37   S    
C60   H32   S    
C63   H39   S    
C52   N4    A    
C35   C37   A    
C22   O14   S    
C5    C7    A    
C67   H56   S    
O15   C65   S    
N6    Zn1   S    
C21   C25   A    
C47   H49   S    
C48   H50   S    
C18   H10   S    
C51   N2    A    
C23   O7    A    
C53   H11   S    
C52   N1    A    
C61   H34   S    
C39   C49   A    
C65   H52   S    
C47   C49   A    
C57   C58   S    
O12   C59   S    
C45   H47   S    
C38   O10   S    
C26   N6    A    
C63   C64   S    
C60   H31   S    
C12   C14   A    
C28   C30   A    
C43   C45   A    
C68   H58   S    
C56   H20   S    
C30   C32   A    
C11   C13   A    
C24   O6    A    
C39   H1    S    
C59   H29   S    
C40   C50   A    
C36   C38   A    
C17   C19   A    
C18   C20   A    
C57   H24   S    
C61   C62   S    
C27   N5    A    
C65   H51   S    
C26   O11   S    
O9    C53   S    
C54   H15   S    
C55   H16   S    
C29   C31   A    
C57   H23   S    
C22   C26   A    
C60   H30   S    
C64   H41   S    
O5    Zn1   S    
C20   O16   S    
C42   H46   S    
C63   H38   S    
C2    O2    A    
C4    C10   A    
O3    Zn2   S    
C59   C60   S    
