data_mof_unit_42705.cif
_audit_creation_date              2012-12-11T15:22:26-0500
_audit_creation_method            fapswitch 2.2
_symmetry_space_group_name_H-M    P1
_symmetry_Int_Tables_number       1
_space_group_crystal_system       triclinic
_cell_length_a                    22.436498
_cell_length_b                    12.998694
_cell_length_c                    26.985087
_cell_angle_alpha                 90.000458
_cell_angle_beta                  90.762379
_cell_angle_gamma                 90.000159
_cell_volume                      7869.37364873

loop_
_atom_site_label
_atom_site_type_symbol
_atom_type_description
_atom_site_fract_x
_atom_site_fract_y
_atom_site_fract_z
_atom_type_partial_charge
C1    C     C_R   0.720565 0.344809 0.178153 0.553351
C2    C     C_R   0.279435 0.344809 0.821847 0.553349
C3    C     C_R   0.220565 0.844808 0.178153 0.553350
C4    C     C_R   0.779435 0.844809 0.821847 0.553350
C5    C     C_R   0.474855 0.163605 0.871721 -0.017110
C6    C     C_R   0.525154 0.163584 0.128275 -0.017099
C7    C     C_R   0.974853 0.663600 0.871722 -0.017107
C8    C     C_R   0.025152 0.663589 0.128276 -0.017102
C9    C     C_R   0.519609 0.258272 0.103648 -0.099817
C10   C     C_R   0.480339 0.258290 0.896361 -0.099828
C11   C     C_R   0.019621 0.758276 0.103646 -0.099820
C12   C     C_R   0.980352 0.758286 0.896359 -0.099826
C13   C     C_R   0.506883 0.262432 0.052310 0.013548
C14   C     C_R   0.493060 0.262447 0.947698 0.013525
C15   C     C_R   0.006896 0.762436 0.052309 0.013542
C16   C     C_R   0.993074 0.762444 0.947697 0.013531
C17   C     C_R   0.502938 0.168571 0.025936 0.036293
C18   C     C_R   0.497076 0.168580 0.974058 0.036294
C19   C     C_R   0.002934 0.668573 0.025938 0.036293
C20   C     C_R   0.997073 0.668577 0.974060 0.036294
C21   C     C_R   0.502455 0.357232 0.026266 -0.012373
C22   C     C_R   0.497411 0.357242 0.973757 -0.012379
C23   C     C_R   0.002486 0.857235 0.026261 -0.012374
C24   C     C_R   0.997443 0.857241 0.973752 -0.012377
C25   C     C_R   0.739172 0.956889 0.130022 0.018555
C26   C     C_R   0.260826 0.956888 0.869977 0.018565
C27   C     C_R   0.239173 0.456887 0.130023 0.018547
C28   C     C_R   0.760827 0.456890 0.869978 0.018573
C29   C     C_R   0.794511 0.962609 0.106598 -0.115007
C30   C     C_R   0.205488 0.962617 0.893403 -0.115027
C31   C     C_R   0.294512 0.462606 0.106599 -0.114995
C32   C     C_R   0.705489 0.462621 0.893404 -0.115040
C33   C     C_R   0.798481 0.943148 0.055968 -0.110797
C34   C     C_R   0.201517 0.943154 0.944032 -0.110813
C35   C     C_R   0.298483 0.443143 0.055969 -0.110788
C36   C     C_R   0.701519 0.443160 0.944033 -0.110823
C37   C     C_R   0.747012 0.919211 0.027987 0.028593
C38   C     C_R   0.252985 0.919205 0.972011 0.028599
C39   C     C_R   0.247014 0.419206 0.027988 0.028587
C40   C     C_R   0.752988 0.419212 0.972013 0.028606
C41   C     C_R   0.692426 0.907605 0.052087 -0.119739
C42   C     C_R   0.307570 0.907589 0.947911 -0.119735
C43   C     C_R   0.192427 0.407601 0.052087 -0.119739
C44   C     C_R   0.807573 0.407595 0.947911 -0.119736
C45   C     C_R   0.553626 0.157286 0.177522 0.545395
C46   C     C_R   0.446375 0.157290 0.822477 0.545388
C47   C     C_R   0.053626 0.657287 0.177523 0.545392
C48   C     C_R   0.946375 0.657289 0.822477 0.545390
C49   C     C_R   0.688660 0.925216 0.102706 -0.122706
C50   C     C_R   0.311336 0.925203 0.897292 -0.122699
C51   C     C_R   0.188661 0.425213 0.102707 -0.122705
C52   C     C_R   0.811338 0.425206 0.897292 -0.122701
C53   C     C_R   0.715929 0.833333 0.949120 -0.116172
C54   C     C_R   0.284063 0.833333 0.050877 -0.116144
C55   C     C_R   0.215931 0.333333 0.949121 -0.116164
C56   C     C_R   0.784066 0.333333 0.050878 -0.116155
C57   C     C_R   0.721463 0.819118 0.898348 -0.123536
C58   C     C_R   0.278530 0.819103 0.101649 -0.123539
C59   C     C_R   0.221464 0.319116 0.898349 -0.123537
C60   C     C_R   0.778532 0.319106 0.101650 -0.123538
C61   C     C_R   0.793179 0.958450 0.895323 -0.118533
C62   C     C_R   0.206826 0.958452 0.104678 -0.118530
C63   C     C_R   0.293181 0.458447 0.895324 -0.118533
C64   C     C_R   0.706828 0.458456 0.104679 -0.118530
C65   C     C_R   0.786955 0.973688 0.946072 -0.117683
C66   C     C_R   0.213049 0.973689 0.053928 -0.117672
C67   C     C_R   0.286958 0.473683 0.946073 -0.117686
C68   C     C_R   0.713052 0.473695 0.053930 -0.117669
C69   C     C_R   0.749845 0.908871 0.973679 0.035453
C70   C     C_R   0.250153 0.908864 0.026320 0.035447
C71   C     C_R   0.249847 0.408866 0.973680 0.035451
C72   C     C_R   0.750156 0.408870 0.026321 0.035449
C73   C     C_R   0.761859 0.878912 0.871369 0.023381
C74   C     C_R   0.238140 0.878907 0.128630 0.023384
C75   C     C_R   0.261860 0.378910 0.871370 0.023380
C76   C     C_R   0.738141 0.378909 0.128630 0.023384
C77   C     C_R   0.527961 0.168979 0.370965 0.024853
C78   C     C_R   0.472039 0.168978 0.629035 0.024852
C79   C     C_R   0.027961 0.668979 0.370965 0.024853
C80   C     C_R   0.972039 0.668978 0.629035 0.024852
C81   C     C_R   0.537278 0.259741 0.398299 -0.125764
C82   C     C_R   0.462725 0.259741 0.601703 -0.125763
C83   C     C_R   0.037278 0.759741 0.398299 -0.125763
C84   C     C_R   0.962725 0.759741 0.601703 -0.125764
C85   C     C_R   0.525808 0.262224 0.448838 -0.120225
C86   C     C_R   0.474196 0.262224 0.551163 -0.120225
C87   C     C_R   0.025808 0.762224 0.448838 -0.120225
C88   C     C_R   0.974196 0.762225 0.551163 -0.120225
C89   C     C_R   0.731164 0.001881 0.179355 0.546523
C90   C     C_R   0.268835 0.001881 0.820645 0.546523
C91   C     C_R   0.231164 0.501880 0.179355 0.546523
C92   C     C_R   0.768836 0.501881 0.820645 0.546524
C93   C     C_R   0.503915 0.174539 0.472866 0.035927
C94   C     C_R   0.496086 0.174538 0.527134 0.035927
C95   C     C_R   0.003915 0.674539 0.472866 0.035927
C96   C     C_R   0.996087 0.674538 0.527134 0.035927
C97   C     C_R   0.490603 0.086143 0.444813 -0.116898
C98   C     C_R   0.509395 0.086141 0.555186 -0.116899
C99   C     C_R   0.990604 0.586143 0.444813 -0.116898
C100  C     C_R   0.009395 0.586141 0.555186 -0.116898
C101  C     C_R   0.502866 0.083162 0.394327 -0.121612
C102  C     C_R   0.497132 0.083159 0.605672 -0.121613
C103  C     C_R   0.002866 0.583162 0.394327 -0.121612
C104  C     C_R   0.997132 0.583159 0.605672 -0.121612
C105  C     C_R   0.742806 0.952458 0.370681 0.030794
C106  C     C_R   0.257194 0.952455 0.629319 0.030794
C107  C     C_R   0.242806 0.452458 0.370681 0.030795
C108  C     C_R   0.757193 0.452454 0.629319 0.030794
C109  C     C_R   0.695593 0.902936 0.394522 -0.121854
C110  C     C_R   0.203810 0.971906 0.603268 -0.129152
C111  C     C_R   0.195594 0.402936 0.394522 -0.121852
C112  C     C_R   0.703811 0.471912 0.603268 -0.129152
C113  C     C_R   0.699330 0.883419 0.444962 -0.125725
C114  C     C_R   0.200010 0.951857 0.552831 -0.122803
C115  C     C_R   0.199330 0.383419 0.444961 -0.125723
C116  C     C_R   0.700011 0.451864 0.552830 -0.122804
C117  C     C_R   0.750592 0.911906 0.471849 0.040887
C118  C     C_R   0.249407 0.911902 0.528151 0.040887
C119  C     C_R   0.250592 0.411906 0.471849 0.040888
C120  C     C_R   0.749406 0.411901 0.528152 0.040888
C121  C     C_R   0.799988 0.951868 0.447171 -0.122804
C122  C     C_R   0.300671 0.883421 0.555038 -0.125726
C123  C     C_R   0.299988 0.451868 0.447171 -0.122803
C124  C     C_R   0.800668 0.383413 0.555039 -0.125725
C125  C     C_R   0.796188 0.971916 0.396733 -0.129153
C126  C     C_R   0.304407 0.902939 0.605478 -0.121857
C127  C     C_R   0.296188 0.471915 0.396733 -0.129151
C128  C     C_R   0.804405 0.402931 0.605479 -0.121856
C129  C     C_R   0.774718 0.983337 0.555208 -0.146602
C130  C     C_R   0.225277 0.983333 0.444794 -0.146602
C131  C     C_R   0.274718 0.483337 0.555207 -0.146602
C132  C     C_R   0.725281 0.483334 0.444794 -0.146602
C133  C     C_R   0.721472 0.347355 0.321722 0.590619
C134  C     C_R   0.278528 0.347355 0.678278 0.590620
C135  C     C_R   0.221472 0.847356 0.321722 0.590616
C136  C     C_R   0.778528 0.847355 0.678278 0.590620
C137  C     C_R   0.778671 0.973121 0.606761 0.005492
C138  C     C_R   0.221325 0.973119 0.393241 0.005492
C139  C     C_R   0.278672 0.473121 0.606761 0.005491
C140  C     C_R   0.721328 0.473119 0.393241 0.005491
C141  C     C_R   0.733078 0.803220 0.598670 -0.152082
C142  C     C_R   0.266925 0.803224 0.401329 -0.152082
C143  C     C_R   0.233078 0.303220 0.598670 -0.152082
C144  C     C_R   0.766920 0.303218 0.401330 -0.152082
C145  C     C_R   0.729240 0.814707 0.547935 -0.131986
C146  C     C_R   0.270762 0.814709 0.452064 -0.131987
C147  C     C_R   0.229240 0.314706 0.547935 -0.131986
C148  C     C_R   0.770757 0.314703 0.452065 -0.131987
C149  C     C_R   0.751717 0.903138 0.525793 0.025337
C150  C     C_R   0.248281 0.903135 0.474208 0.025337
C151  C     C_R   0.251717 0.403137 0.525792 0.025337
C152  C     C_R   0.748281 0.403133 0.474208 0.025337
C153  C     C_R   0.760283 0.879325 0.628393 0.041756
C154  C     C_R   0.239717 0.879327 0.371607 0.041755
C155  C     C_R   0.260283 0.379325 0.628393 0.041755
C156  C     C_R   0.739716 0.379324 0.371608 0.041755
C157  C     C_R   0.554496 0.158902 0.321677 0.542658
C158  C     C_R   0.445504 0.158902 0.678323 0.542654
C159  C     C_R   0.054496 0.658902 0.321677 0.542657
C160  C     C_R   0.945504 0.658902 0.678323 0.542655
C161  C     C_R   0.732090 0.001503 0.322749 0.547803
C162  C     C_R   0.267909 0.001503 0.677251 0.547802
C163  C     C_R   0.232090 0.501503 0.322749 0.547804
C164  C     C_R   0.767909 0.501503 0.677251 0.547802
C165  C     C_R   0.514386 0.072141 0.102416 -0.129403
C166  C     C_R   0.485688 0.072169 0.897565 -0.129415
C167  C     C_R   0.014368 0.572147 0.102420 -0.129406
C168  C     C_R   0.985671 0.572162 0.897569 -0.129411
C169  C     C_R   0.505635 0.073544 0.051473 0.018175
C170  C     C_R   0.494447 0.073562 0.948507 0.018182
C171  C     C_R   0.005615 0.573547 0.051478 0.018177
C172  C     C_R   0.994427 0.573557 0.948512 0.018181
C173  C     C_R   0.497542 0.980438 0.974372 -0.134860
C174  C     C_R   0.502611 0.980428 0.025595 -0.134874
C175  C     C_R   0.997506 0.480434 0.974380 -0.134864
C176  C     C_R   0.002575 0.480430 0.025602 -0.134871
Cr1   Cr    Cr6+3 0.756570 0.170940 0.251190 1.026391
Cr2   Cr    Cr6+3 0.243430 0.170940 0.748810 1.026384
Cr3   Cr    Cr6+3 0.256570 0.670940 0.251190 1.026391
Cr4   Cr    Cr6+3 0.743430 0.670940 0.748810 1.026382
Cr5   Cr    Cr6+3 0.623740 0.299110 0.249580 1.054583
Cr6   Cr    Cr6+3 0.376260 0.299110 0.750420 1.054594
Cr7   Cr    Cr6+3 0.123740 0.799110 0.249580 1.054587
Cr8   Cr    Cr6+3 0.876260 0.799110 0.750420 1.054591
Cr9   Cr    Cr6+3 0.625990 0.036240 0.250480 1.025602
Cr10  Cr    Cr6+3 0.374010 0.036240 0.749520 1.025609
Cr11  Cr    Cr6+3 0.125990 0.536240 0.250480 1.025605
Cr12  Cr    Cr6+3 0.874010 0.536240 0.749520 1.025607
H1    H     H_    0.482065 0.998583 0.878808 0.132363
H2    H     H_    0.518057 0.998549 0.121161 0.132358
H3    H     H_    0.982036 0.498575 0.878815 0.132362
H4    H     H_    0.018028 0.498557 0.121168 0.132359
H5    H     H_    0.824512 0.005718 0.875314 0.138955
H6    H     H_    0.175497 0.005726 0.124688 0.138940
H7    H     H_    0.324514 0.505714 0.875316 0.138962
H8    H     H_    0.675499 0.505729 0.124689 0.138933
H9    H     H_    0.651931 0.890022 0.031505 0.108893
H10   H     H_    0.348064 0.889997 0.968492 0.108906
H11   H     H_    0.151933 0.390018 0.031505 0.108897
H12   H     H_    0.848066 0.390003 0.968492 0.108902
H13   H     H_    0.645191 0.921137 0.119600 0.134154
H14   H     H_    0.354804 0.921116 0.880397 0.134185
H15   H     H_    0.145192 0.421135 0.119600 0.134163
H16   H     H_    0.854806 0.421119 0.880397 0.134177
H17   H     H_    0.557233 0.326866 0.381468 0.134614
H18   H     H_    0.442773 0.326868 0.618534 0.134614
H19   H     H_    0.057233 0.826866 0.381468 0.134614
H20   H     H_    0.942773 0.826868 0.618534 0.134614
H21   H     H_    0.527997 0.018416 0.537876 0.104318
H22   H     H_    0.471999 0.018419 0.462122 0.104318
H23   H     H_    0.027997 0.518416 0.537876 0.104318
H24   H     H_    0.971999 0.518419 0.462122 0.104319
H25   H     H_    0.504883 0.012358 0.625918 0.128619
H26   H     H_    0.495113 0.012362 0.374080 0.128619
H27   H     H_    0.004883 0.512358 0.625918 0.128619
H28   H     H_    0.995113 0.512362 0.374080 0.128620
H29   H     H_    0.536831 0.331252 0.469465 0.101030
H30   H     H_    0.463175 0.331254 0.530538 0.101030
H31   H     H_    0.036831 0.831252 0.469465 0.101029
H32   H     H_    0.963175 0.831254 0.530538 0.101030
H33   H     H_    0.654055 0.886513 0.375188 0.132847
H34   H     H_    0.166472 0.008893 0.621025 0.129045
H35   H     H_    0.154055 0.386513 0.375188 0.132847
H36   H     H_    0.666474 0.508905 0.621023 0.129045
H37   H     H_    0.789357 0.054055 0.537857 0.087547
H38   H     H_    0.210636 0.054049 0.462146 0.087546
H39   H     H_    0.289357 0.554055 0.537857 0.087548
H40   H     H_    0.710643 0.554052 0.462145 0.087548
H41   H     H_    0.495158 0.907468 0.954996 0.105769
H42   H     H_    0.505050 0.907452 0.044961 0.105726
H43   H     H_    0.995109 0.407463 0.955005 0.105758
H44   H     H_    0.005000 0.407455 0.044971 0.105736
H45   H     H_    0.660833 0.851840 0.463387 0.099343
H46   H     H_    0.159401 0.971173 0.532747 0.101132
H47   H     H_    0.160833 0.351839 0.463387 0.099342
H48   H     H_    0.659404 0.471185 0.532746 0.101131
H49   H     H_    0.711274 0.752101 0.525824 0.106156
H50   H     H_    0.288731 0.752104 0.474174 0.106156
H51   H     H_    0.211274 0.252101 0.525824 0.106158
H52   H     H_    0.788722 0.252096 0.474175 0.106158
H53   H     H_    0.718666 0.730495 0.614067 0.142094
H54   H     H_    0.281340 0.730502 0.385931 0.142095
H55   H     H_    0.218667 0.230495 0.614067 0.142095
H56   H     H_    0.781331 0.230493 0.385932 0.142096
H57   H     H_    0.840595 0.971188 0.467255 0.101133
H58   H     H_    0.339168 0.851847 0.536611 0.099343
H59   H     H_    0.340595 0.471188 0.467255 0.101132
H60   H     H_    0.839165 0.351832 0.536613 0.099342
H61   H     H_    0.833525 0.008907 0.378978 0.129046
H62   H     H_    0.345947 0.886521 0.624811 0.132848
H63   H     H_    0.333525 0.508907 0.378978 0.129045
H64   H     H_    0.845943 0.386508 0.624813 0.132845
H65   H     H_    0.470425 0.327668 0.875800 0.183591
H66   H     H_    0.529473 0.327657 0.124220 0.183569
H67   H     H_    0.970450 0.827667 0.875795 0.183584
H68   H     H_    0.029496 0.827660 0.124216 0.183573
H69   H     H_    0.834109 0.986581 0.126889 0.162415
H70   H     H_    0.165891 0.986598 0.873112 0.162349
H71   H     H_    0.334110 0.486579 0.126890 0.162444
H72   H     H_    0.665892 0.486600 0.873114 0.162318
H73   H     H_    0.687238 0.781826 0.969427 0.105771
H74   H     H_    0.312750 0.781805 0.030569 0.105761
H75   H     H_    0.187240 0.281822 0.969427 0.105769
H76   H     H_    0.812752 0.281810 0.030570 0.105765
H77   H     H_    0.697190 0.756387 0.881013 0.139964
H78   H     H_    0.302799 0.756367 0.118983 0.139968
H79   H     H_    0.197190 0.256386 0.881013 0.139964
H80   H     H_    0.802800 0.256369 0.118983 0.139968
H81   H     H_    0.841512 0.949495 0.038501 0.133583
H82   H     H_    0.158487 0.949509 0.961500 0.133556
H83   H     H_    0.341514 0.449490 0.038502 0.133596
H84   H     H_    0.658490 0.449515 0.961502 0.133540
H85   H     H_    0.812244 0.034612 0.963881 0.103440
H86   H     H_    0.187764 0.034619 0.036120 0.103456
H87   H     H_    0.312248 0.534606 0.963883 0.103434
H88   H     H_    0.687767 0.534626 0.036122 0.103462
O1    O     O_R   0.769900 0.064540 0.196060 -0.517207
O2    O     O_R   0.230100 0.064540 0.803940 -0.517211
O3    O     O_R   0.269900 0.564540 0.196060 -0.517207
O4    O     O_R   0.730100 0.564540 0.803940 -0.517211
O5    O     O_R   0.574760 0.239320 0.300850 -0.507310
O6    O     O_R   0.425240 0.239320 0.699150 -0.507311
O7    O     O_R   0.074760 0.739320 0.300850 -0.507310
O8    O     O_R   0.925240 0.739320 0.699150 -0.507311
O9    O     O_R   0.566290 0.069580 0.305400 -0.518383
O10   O     O_R   0.433710 0.069580 0.694600 -0.518385
O11   O     O_R   0.066290 0.569580 0.305400 -0.518383
O12   O     O_R   0.933710 0.569580 0.694600 -0.518384
O13   O     O_R   0.680760 0.993330 0.302620 -0.500385
O14   O     O_R   0.319240 0.993330 0.697380 -0.500384
O15   O     O_R   0.180760 0.493330 0.302620 -0.500385
O16   O     O_R   0.819240 0.493330 0.697380 -0.500383
O17   O     O_3   0.668770 0.168760 0.250420 -0.253074
O18   O     O_3   0.331230 0.168760 0.749580 -0.253074
O19   O     O_3   0.168770 0.668760 0.250420 -0.253074
O20   O     O_3   0.831230 0.668760 0.749580 -0.253073
O21   O     O_R   0.750800 0.274080 0.199250 -0.504754
O22   O     O_R   0.249200 0.274080 0.800750 -0.504755
O23   O     O_R   0.250800 0.774080 0.199250 -0.504755
O24   O     O_R   0.749200 0.774080 0.800750 -0.504755
O25   O     O_R   0.669990 0.371670 0.194150 -0.504963
O26   O     O_R   0.330010 0.371670 0.805850 -0.504961
O27   O     O_R   0.169990 0.871670 0.194150 -0.504962
O28   O     O_R   0.830010 0.871670 0.805850 -0.504962
O29   O     O_R   0.574600 0.238480 0.197800 -0.501083
O30   O     O_R   0.425400 0.238480 0.802200 -0.501093
O31   O     O_R   0.074600 0.738480 0.197800 -0.501085
O32   O     O_R   0.925400 0.738480 0.802200 -0.501090
O33   O     O_R   0.566130 0.068680 0.194240 -0.521961
O34   O     O_R   0.433870 0.068680 0.805760 -0.521950
O35   O     O_R   0.066130 0.568680 0.194240 -0.521958
O36   O     O_R   0.933870 0.568680 0.805760 -0.521953
O37   O     O_R   0.680610 0.992490 0.199570 -0.501981
O38   O     O_R   0.319390 0.992490 0.800430 -0.501976
O39   O     O_R   0.180610 0.492490 0.199570 -0.501979
O40   O     O_R   0.819390 0.492490 0.800430 -0.501978
O41   O     O_R   0.770060 0.065440 0.307230 -0.526362
O42   O     O_R   0.229940 0.065440 0.692770 -0.526364
O43   O     O_R   0.270060 0.565440 0.307230 -0.526362
O44   O     O_R   0.729940 0.565440 0.692770 -0.526365
O45   O     O_R   0.750960 0.274920 0.302300 -0.516963
O46   O     O_R   0.249040 0.274920 0.697700 -0.516963
O47   O     O_R   0.250960 0.774920 0.302300 -0.516964
O48   O     O_R   0.749040 0.774920 0.697700 -0.516963
O49   O     O_R   0.670160 0.372580 0.305320 -0.475049
O50   O     O_R   0.329840 0.372580 0.694680 -0.475047
O51   O     O_R   0.170160 0.872580 0.305320 -0.475046
O52   O     O_R   0.829840 0.872580 0.694680 -0.475047
C177  C     C_2   0.801236 0.062057 0.635924 0.229812
H89   H     H_    0.824867 0.123692 0.617425 0.088342
O53   O     O_2   0.791668 0.070075 0.680184 -0.486733
C178  C     C_2   0.198757 0.062054 0.364079 0.229815
H90   H     H_    0.175123 0.123684 0.382579 0.088339
O54   O     O_2   0.208327 0.070076 0.319819 -0.486732
C179  C     C_2   0.301236 0.562057 0.635924 0.229813
H91   H     H_    0.324867 0.623692 0.617425 0.088343
O55   O     O_2   0.291668 0.570075 0.680184 -0.486731
C180  C     C_2   0.698765 0.562055 0.364078 0.229812
H92   H     H_    0.675133 0.623689 0.382578 0.088341
O56   O     O_2   0.708334 0.570075 0.319819 -0.486734
C181  C     C_2   0.496113 0.457351 0.946948 0.173830
H93   H     H_    0.469942 0.520869 0.961075 0.102318
O57   O     O_2   0.526463 0.471130 0.910314 -0.533160
C182  C     C_2   0.503666 0.457327 0.053090 0.173795
H94   H     H_    0.529776 0.520927 0.038968 0.102375
O58   O     O_2   0.473312 0.470999 0.089731 -0.533249
C183  C     C_2   0.996167 0.957346 0.946939 0.173822
H95   H     H_    0.970010 0.020885 0.961065 0.102331
O59   O     O_2   0.026518 0.971099 0.910304 -0.533182
C184  C     C_2   0.003718 0.957334 0.053082 0.173805
H96   H     H_    0.029842 0.020915 0.038959 0.102361
O60   O     O_2   0.973364 0.971030 0.089720 -0.533227

loop_
_geom_bond_atom_site_label_1
_geom_bond_atom_site_label_2
_ccdc_geom_bond_type
C99   C103  A    
C7    C168  A    
C92   O40   A    
C55   C59   A    
C142  C146  A    
C131  C151  A    
C19   C20   A    
C45   O29   A    
C53   C69   A    
C38   C70   S    
C114  H46   S    
C108  C164  S    
C37   C69   S    
C26   C50   A    
C95   C99   A    
C176  H44   S    
C29   C33   A    
C100  C104  A    
C3    C74   S    
C9    C13   A    
C163  O43   A    
C146  C150  A    
C77   C101  A    
Cr7   O51   S    
C12   C16   A    
C56   C72   A    
C169  C174  A    
Cr2   O2    S    
C172  C175  A    
C141  C145  A    
C122  H58   S    
C108  C112  A    
C138  C154  A    
C6    C165  A    
C148  H52   S    
C21   C22   A    
C135  O51   A    
C112  H36   S    
C41   C49   A    
Cr12  O16   S    
C50   H14   S    
C25   C29   A    
C27   C31   A    
C28   C32   A    
Cr9   O13   S    
Cr10  O10   S    
C179  O55   D    
C62   C66   A    
C167  C171  A    
C98   C102  A    
C60   C76   A    
C29   H69   S    
Cr6   O30   S    
Cr8   O52   S    
C15   C19   A    
C78   C82   A    
C102  H25   S    
C175  C176  A    
C54   C70   A    
C36   C40   A    
C68   C72   A    
C11   H68   S    
C137  C153  A    
C2    O26   A    
C3    O23   A    
Cr8   O28   S    
C20   C172  A    
C132  C152  A    
C62   H6    S    
C130  C138  A    
C109  H33   S    
C160  O8    A    
C84   C88   A    
C92   O4    A    
Cr6   O6    S    
C119  C123  A    
C26   C90   S    
C5    C46   S    
C105  C125  A    
C7    C48   S    
Cr6   O26   S    
Cr3   O23   S    
C8    C47   S    
C107  C127  A    
C136  C153  S    
C66   C70   A    
C144  H56   S    
C31   C35   A    
C125  H61   S    
C140  C156  A    
C184  H96   S    
C140  C180  S    
C179  H91   S    
C61   C65   A    
C158  O6    A    
C129  C137  A    
C130  H38   S    
C39   C71   S    
C34   H82   S    
C47   O31   A    
C4    O24   A    
C89   O37   A    
C103  H28   S    
C55   C71   A    
C2    C75   S    
C124  H60   S    
Cr10  O38   S    
C10   H65   S    
C161  O13   A    
C134  O46   A    
Cr4   O4    S    
C46   O34   A    
C6    C9    A    
C129  C149  A    
C64   C68   A    
Cr5   O17   S    
C24   C183  S    
C53   H73   S    
C161  O41   A    
C86   H30   S    
C81   H17   S    
C57   C73   A    
C83   H19   S    
C123  C127  A    
C78   C158  S    
C146  H50   S    
C42   H10   S    
C87   C95   A    
C130  C150  A    
C23   C24   A    
C27   C91   S    
C110  C114  A    
C44   C52   A    
C164  O44   A    
C177  O53   D    
C79   C103  A    
C11   C15   A    
C27   C51   A    
C181  O57   D    
C7    C12   A    
C98   H21   S    
C49   H13   S    
C30   C34   A    
C65   H85   S    
C32   H72   S    
C178  H90   S    
C41   H9    S    
C10   C14   A    
C164  O16   A    
C133  O49   A    
C142  H54   S    
C108  C128  A    
C116  C120  A    
C144  C156  A    
C147  C151  A    
C121  C125  A    
C84   H20   S    
C143  C155  A    
C139  C155  A    
C89   O1    A    
C17   C18   A    
C36   H84   S    
C5    C166  A    
C142  C154  A    
C91   O3    A    
C174  H42   S    
C4    C73   S    
Cr12  O20   S    
C173  H41   S    
C42   C50   A    
C113  C117  A    
C107  C163  S    
C26   C30   A    
C115  C119  A    
C143  H55   S    
Cr9   O17   S    
Cr10  O14   S    
C61   H5    S    
C112  C116  A    
Cr11  O19   S    
C58   C74   A    
Cr4   O44   S    
C105  C109  A    
C40   C72   S    
C30   H70   S    
C1    C76   S    
C107  C111  A    
C148  C152  A    
C83   C87   A    
C117  C149  S    
C44   H12   S    
C117  C121  A    
C171  C176  A    
C100  H23   S    
C180  O56   D    
C13   C17   A    
C166  H1    S    
C14   C22   A    
Cr3   O47   S    
C141  C153  A    
C63   C75   A    
C64   H8    S    
C105  C161  S    
C37   C41   A    
C145  C149  A    
C131  C139  A    
C40   C44   A    
C56   C60   A    
C182  H94   S    
C18   C170  A    
C129  H37   S    
C81   C85   A    
Cr1   O21   S    
C88   C96   A    
Cr1   O17   S    
C6    C45   S    
C93   C97   A    
C78   C102  A    
C133  C156  S    
Cr3   O19   S    
Cr2   O22   S    
Cr7   O19   S    
C80   C84   A    
C115  H47   S    
C113  H45   S    
C135  C154  S    
C80   C104  A    
C1    O21   A    
C60   H80   S    
C132  H40   S    
C79   C159  S    
C80   C160  S    
C94   C98   A    
C135  O47   A    
C47   O35   A    
C4    O28   A    
C118  C150  S    
C90   O38   A    
Cr12  O12   S    
C159  O7    A    
Cr11  O39   S    
C82   H18   S    
C46   O30   A    
C23   C184  S    
C124  C128  A    
C121  H57   S    
C12   H67   S    
Cr4   O20   S    
C165  C169  A    
Cr7   O31   S    
Cr6   O18   S    
C51   H15   S    
C162  O42   A    
C183  H95   S    
C53   C57   A    
C157  O9    A    
C61   C73   A    
C173  C174  A    
C138  C178  S    
C141  H53   S    
C88   H32   S    
C52   H16   S    
C48   O36   A    
Cr12  O36   S    
Cr7   O7    S    
C8    C167  A    
Cr4   O48   S    
C77   C81   A    
C101  H26   S    
C116  H48   S    
Cr9   O33   S    
C111  H35   S    
C184  O60   D    
C147  H51   S    
C63   H7    S    
C136  O52   A    
Cr1   O41   S    
C110  H34   S    
C32   C36   A    
Cr3   O43   S    
C133  O45   A    
C104  H27   S    
C178  O54   D    
Cr8   O8    S    
C162  O14   A    
C132  C140  A    
C106  C126  A    
C25   C89   S    
C126  H62   S    
C45   O33   A    
Cr12  O40   S    
C82   C86   A    
C79   C83   A    
C43   C51   A    
C65   C69   A    
C67   C71   A    
C106  C162  S    
C67   H87   S    
Cr10  O18   S    
C25   C49   A    
Cr11  O15   S    
C131  H39   S    
C168  C172  A    
C90   O2    A    
C134  O50   A    
C62   C74   A    
C31   H71   S    
C163  O15   A    
C170  C173  A    
C93   C94   S    
Cr2   O46   S    
C177  H89   S    
C14   C18   A    
C35   C39   A    
C9    H66   S    
C144  C148  A    
Cr8   O20   S    
C181  H93   S    
C143  C147  A    
C167  H4    S    
C128  H64   S    
C168  H3    S    
C55   H75   S    
C56   H76   S    
C19   C171  A    
C38   C42   A    
Cr8   O32   S    
C17   C169  A    
C96   C100  A    
Cr9   O9    S    
C85   H29   S    
C86   C94   A    
Cr11  O11   S    
C134  C155  S    
C145  H49   S    
Cr2   O18   S    
C59   H79   S    
C87   H31   S    
C16   C20   A    
Cr5   O49   S    
C15   C23   A    
Cr3   O3    S    
C16   C24   A    
C1    O25   A    
Cr1   O45   S    
C2    O22   A    
C3    O27   A    
C165  H2    S    
C99   H24   S    
C119  C151  S    
C63   C67   A    
C120  C152  S    
C175  H43   S    
C97   H22   S    
C13   C21   A    
C54   H74   S    
C48   O32   A    
C58   H78   S    
C91   O39   A    
C39   C43   A    
C159  O11   A    
Cr5   O29   S    
C160  O12   A    
C122  C126  A    
Cr11  O35   S    
C118  C122  A    
Cr5   O5    S    
C183  O59   D    
C85   C93   A    
C68   H88   S    
Cr4   O24   S    
C64   C76   A    
Cr5   O25   S    
C28   C92   S    
C109  C113  A    
Cr7   O27   S    
C114  C118  A    
C137  C177  S    
C182  O58   D    
C59   C75   A    
C157  O5    A    
C54   C58   A    
C22   C181  S    
C158  O10   A    
C33   H81   S    
C34   C38   A    
C35   H83   S    
C43   H11   S    
Cr1   O1    S    
Cr9   O37   S    
Cr6   O50   S    
Cr10  O34   S    
C21   C182  S    
C5    C10   A    
C123  H59   S    
C28   C52   A    
C139  C179  S    
C8    C11   A    
C166  C170  A    
C33   C37   A    
C136  O48   A    
C127  H63   S    
Cr2   O42   S    
C66   H86   S    
C57   H77   S    
C106  C110  A    
C180  H92   S    
C95   C96   S    
C111  C115  A    
C97   C101  A    
C120  C124  A    
C77   C157  S    
