data_mof_unit_26074.cif
_audit_creation_date              2012-10-26T18:20:21-0400
_audit_creation_method            fapswitch 2.2
_symmetry_space_group_name_H-M    P1
_symmetry_Int_Tables_number       1
_space_group_crystal_system       triclinic
_cell_length_a                    18.35533
_cell_length_b                    18.354651
_cell_length_c                    30.346964
_cell_angle_alpha                 90.001455
_cell_angle_beta                  89.970955
_cell_angle_gamma                 90.030868
_cell_volume                      10224.0616245

loop_
_atom_site_label
_atom_site_type_symbol
_atom_type_description
_atom_site_fract_x
_atom_site_fract_y
_atom_site_fract_z
_atom_type_partial_charge
C1    C     C_R   0.139907 0.500022 0.999756 0.525782
C2    C     C_1   0.500023 0.217477 0.999789 -0.085736
C3    C     C_R   0.100545 0.587198 0.772354 0.269642
C4    C     C_R   0.414521 0.898113 0.227696 0.269657
C5    C     C_R   0.891228 0.576322 0.228032 0.271172
C6    C     C_R   0.577390 0.108478 0.227870 0.270946
C7    C     C_R   0.108717 0.423399 0.227959 0.271148
C8    C     C_3   0.865420 0.710951 0.278439 0.017522
C9    C     C_3   0.794869 0.752818 0.285558 -0.365959
C10   C     C_3   0.274895 0.902265 0.272919 -0.002092
C11   C     C_3   0.209733 0.868768 0.296417 -0.386070
C12   C     C_3   0.134189 0.288676 0.278315 0.017371
C13   C     C_1   0.782520 0.499919 0.999768 -0.086646
C14   C     C_3   0.204717 0.246695 0.285239 -0.365836
C15   C     C_3   0.712513 0.130581 0.278140 0.017111
C16   C     C_3   0.755818 0.200576 0.284180 -0.366172
C17   C     C_3   0.909240 0.273875 0.726946 -0.002843
C18   C     C_3   0.877865 0.207436 0.703700 -0.386529
C19   C     C_3   0.267917 0.065552 0.724415 -0.004058
C20   C     C_3   0.198527 0.093000 0.702565 -0.388180
C21   C     C_3   0.090787 0.726241 0.726855 -0.002599
C22   C     C_3   0.122463 0.792645 0.703702 -0.386858
C23   C     C_3   0.726340 0.913062 0.727238 -0.002991
C24   C     C_1   0.499985 0.782521 0.999937 -0.086355
C25   C     C_3   0.793792 0.883462 0.704217 -0.386679
C26   C     C_3   0.369913 0.212694 0.778201 0.017046
C27   C     C_3   0.300043 0.256110 0.784314 -0.365642
C28   C     C_3   0.774822 0.406602 0.773118 -0.002562
C29   C     C_3   0.708790 0.374562 0.796478 -0.386475
C30   C     C_3   0.596831 0.774636 0.772863 -0.002050
C31   C     C_3   0.630391 0.709389 0.796179 -0.385612
C32   C     C_3   0.225168 0.593594 0.773014 -0.002563
C33   C     C_3   0.291151 0.625903 0.796251 -0.386275
C34   C     C_3   0.413423 0.773306 0.227370 -0.002922
C35   C     C_1   0.717478 0.000069 0.499925 -0.085659
C36   C     C_3   0.384183 0.705780 0.204244 -0.387623
C37   C     C_3   0.767854 0.560018 0.224830 -0.003768
C38   C     C_3   0.697320 0.585493 0.203452 -0.387979
C39   C     C_3   0.565647 0.232354 0.224320 -0.003889
C40   C     C_3   0.593087 0.301697 0.202334 -0.388964
C41   C     C_3   0.232171 0.439241 0.224687 -0.003600
C42   C     C_3   0.302606 0.413542 0.203236 -0.388303
C43   C     C_3   0.036339 0.338026 0.377042 0.018603
C44   C     C_3   0.081604 0.278059 0.398144 -0.350623
C45   C     C_3   0.660465 0.035642 0.376874 0.020162
C46   C     C_1   0.000039 0.717477 0.499937 -0.085391
C47   C     C_3   0.721075 0.080353 0.397789 -0.350499
C48   C     C_3   0.963789 0.661943 0.376991 0.018488
C49   C     C_3   0.918582 0.721934 0.398143 -0.350821
C50   C     C_3   0.340042 0.949226 0.381964 0.035926
C51   C     C_3   0.290668 0.895570 0.405889 -0.347235
C52   C     C_3   0.048756 0.659039 0.618008 0.036869
C53   C     C_3   0.101766 0.709890 0.594697 -0.347158
C54   C     C_3   0.659245 0.953826 0.618354 0.036205
C55   C     C_3   0.711500 0.901806 0.595415 -0.346759
C56   C     C_3   0.951250 0.341055 0.618050 0.036634
C57   C     C_1   0.282520 0.999934 0.499800 -0.086220
C58   C     C_3   0.898269 0.290170 0.594774 -0.346710
C59   C     C_3   0.340461 0.045822 0.616300 0.038505
C60   C     C_3   0.287775 0.099367 0.595108 -0.345081
C61   C     C_3   0.550391 0.839978 0.881945 0.035752
C62   C     C_3   0.603960 0.790516 0.905799 -0.347102
C63   C     C_3   0.158649 0.549914 0.881826 0.036720
C64   C     C_3   0.208965 0.603117 0.905372 -0.346798
C65   C     C_3   0.464757 0.160566 0.876877 0.020049
C66   C     C_3   0.420172 0.221286 0.897756 -0.350261
C67   C     C_3   0.841381 0.450089 0.881914 0.036972
C68   C     C_1   0.999963 0.282524 0.499940 -0.085183
C69   C     C_3   0.791029 0.396850 0.905431 -0.346929
C70   C     C_3   0.545668 0.159684 0.116260 0.038897
C71   C     C_3   0.599183 0.212505 0.095077 -0.345683
C72   C     C_3   0.160020 0.457172 0.116564 0.038175
C73   C     C_3   0.214403 0.404763 0.095875 -0.345303
C74   C     C_3   0.454137 0.840618 0.118432 0.036345
C75   C     C_3   0.402215 0.788157 0.095568 -0.347151
C76   C     C_3   0.840016 0.542607 0.116633 0.038217
C77   C     C_3   0.785547 0.594964 0.096017 -0.345544
C78   C     C_R   0.000026 0.499997 0.085733 0.562501
C79   C     C_R   0.499958 0.000051 0.085710 0.563805
C80   C     C_R   0.000014 0.500001 0.914314 0.566115
C81   C     C_R   0.500010 0.139906 0.999649 0.529695
C82   C     C_R   0.500014 0.999537 0.914332 0.570466
C83   C     C_R   0.499968 0.999970 0.585710 0.563541
C84   C     C_R   0.999987 0.500030 0.585681 0.564819
C85   C     C_R   0.499520 0.999997 0.414332 0.570351
C86   C     C_R   0.000016 0.499991 0.414354 0.574161
C87   C     C_1   0.282811 0.500109 0.999906 -0.073533
C88   C     C_1   0.499988 0.282810 0.999919 -0.074519
C89   C     C_1   0.717189 0.499901 0.999864 -0.073868
C90   C     C_1   0.499998 0.717191 0.999963 -0.073316
C91   C     C_1   0.782809 0.000073 0.499994 -0.073987
C92   C     C_R   0.860093 0.499979 0.999754 0.525764
C93   C     C_1   0.000027 0.782808 0.499993 -0.074192
C94   C     C_1   0.217190 0.999919 0.499888 -0.073447
C95   C     C_1   0.999976 0.217192 0.499995 -0.073847
C96   C     C_R   0.499984 0.360374 0.999990 0.560001
C97   C     C_R   0.639626 0.499951 0.999975 0.559550
C98   C     C_R   0.500005 0.639626 0.999995 0.559713
C99   C     C_R   0.360374 0.500054 0.999992 0.559947
C100  C     C_R   0.000009 0.860373 0.500000 0.559794
C101  C     C_R   0.139626 0.999960 0.499978 0.559620
C102  C     C_R   0.999994 0.139627 0.500001 0.560210
C103  C     C_R   0.499989 0.860094 0.999955 0.526988
C104  C     C_R   0.860373 0.000030 0.500005 0.560275
C105  C     C_R   0.042204 0.448463 0.343219 0.225399
C106  C     C_R   0.549919 0.042769 0.343145 0.227328
C107  C     C_R   0.957856 0.551454 0.343234 0.225472
C108  C     C_R   0.446328 0.958706 0.343186 0.216606
C109  C     C_R   0.041321 0.552523 0.656872 0.219055
C110  C     C_R   0.552270 0.958872 0.656971 0.219509
C111  C     C_R   0.958630 0.447588 0.656899 0.219127
C112  C     C_R   0.445240 0.038777 0.657025 0.218371
C113  C     C_R   0.541149 0.946245 0.843161 0.216731
C114  C     C_R   0.639907 0.000024 0.499836 0.531656
C115  C     C_R   0.052111 0.541830 0.843083 0.219007
C116  C     C_R   0.457377 0.049986 0.843170 0.227433
C117  C     C_R   0.947921 0.458204 0.843111 0.218962
C118  C     C_R   0.538703 0.054868 0.156996 0.218318
C119  C     C_R   0.054749 0.461644 0.157083 0.218692
C120  C     C_R   0.458966 0.947626 0.156997 0.219464
C121  C     C_R   0.945260 0.538224 0.157123 0.218729
C122  C     C_R   0.000041 0.499977 0.366076 -0.028596
C123  C     C_R   0.498523 0.000330 0.366012 -0.026527
C124  C     C_R   0.999966 0.500057 0.634024 -0.023356
C125  C     C_R   0.000012 0.639906 0.499845 0.530612
C126  C     C_R   0.499352 0.999597 0.634101 -0.022937
C127  C     C_R   0.499691 0.998533 0.866012 -0.026276
C128  C     C_R   0.000021 0.500006 0.865963 -0.024089
C129  C     C_R   0.499576 0.000672 0.134100 -0.022852
C130  C     C_R   0.000024 0.499973 0.134163 -0.022226
C131  C     C_R   0.953396 0.548214 0.296795 -0.013602
C132  C     C_R   0.446927 0.957625 0.296615 -0.010630
C133  C     C_R   0.046614 0.451629 0.296770 -0.013561
C134  C     C_R   0.546859 0.047403 0.296712 -0.013077
C135  C     C_R   0.957419 0.448086 0.703452 -0.009884
C136  C     C_R   0.360093 0.999981 0.499767 0.524662
C137  C     C_R   0.444487 0.038241 0.703612 -0.009713
C138  C     C_R   0.042548 0.552025 0.703426 -0.009809
C139  C     C_R   0.551200 0.956791 0.703519 -0.009186
C140  C     C_R   0.452735 0.046931 0.796738 -0.012879
C141  C     C_R   0.948473 0.456943 0.796559 -0.010005
C142  C     C_R   0.542198 0.946811 0.796589 -0.010442
C143  C     C_R   0.051537 0.543130 0.796529 -0.010003
C144  C     C_R   0.456917 0.948660 0.203547 -0.009237
C145  C     C_R   0.945052 0.538449 0.203717 -0.009131
C146  C     C_R   0.538174 0.055625 0.203584 -0.009796
C147  C     C_R   0.999989 0.360094 0.499847 0.530572
C148  C     C_R   0.054944 0.461362 0.203680 -0.009081
C149  C     C_R   0.000009 0.499921 0.273535 -0.142261
C150  C     C_R   0.497035 0.002467 0.273443 -0.140826
C151  C     C_R   0.999988 0.500053 0.726635 -0.138976
C152  C     C_R   0.497694 0.997328 0.726749 -0.138082
C153  C     C_R   0.497519 0.997014 0.773444 -0.140499
C154  C     C_R   0.000001 0.500041 0.773348 -0.139072
C155  C     C_R   0.497349 0.002297 0.226749 -0.138274
C156  C     C_R   0.000005 0.499914 0.226864 -0.137301
C157  C     C_R   0.902974 0.591215 0.273080 0.266327
C158  C     C_1   0.217481 0.500088 0.999795 -0.086454
C159  C     C_R   0.399252 0.912265 0.272420 0.269711
C160  C     C_R   0.096949 0.408529 0.273018 0.266330
C161  C     C_R   0.591539 0.096505 0.272985 0.266377
C162  C     C_R   0.913942 0.398567 0.727627 0.269713
C163  C     C_R   0.391742 0.077524 0.727927 0.271139
C164  C     C_R   0.086037 0.601541 0.727576 0.269696
C165  C     C_R   0.601574 0.914256 0.727642 0.269794
C166  C     C_R   0.403755 0.091688 0.773035 0.266538
C167  C     C_R   0.899444 0.412904 0.772413 0.269696
C168  C     C_R   0.587371 0.899016 0.772362 0.269797
Cu1   Cu    Cu3+1 0.000000 0.572490 0.000000 0.965106
Cu2   Cu    Cu3+1 0.500000 0.500000 0.955520 0.897391
Cu3   Cu    Cu3+1 0.000000 1.000000 0.544480 0.896668
Cu4   Cu    Cu3+1 0.000000 0.000000 0.455520 0.896233
Cu5   Cu    Cu3+1 0.427510 0.000000 0.000000 0.974344
Cu6   Cu    Cu3+1 0.000000 0.427510 0.000000 0.965622
Cu7   Cu    Cu3+1 0.572490 0.000000 0.000000 0.964833
Cu8   Cu    Cu3+1 0.500000 0.072490 0.500000 0.973998
Cu9   Cu    Cu3+1 0.927510 0.500000 0.500000 0.974762
Cu10  Cu    Cu3+1 0.500000 0.927510 0.500000 0.966128
Cu11  Cu    Cu3+1 0.072490 0.500000 0.500000 0.973931
Cu12  Cu    Cu3+1 0.500000 0.500000 0.044480 0.894478
H1    H     H_    0.878816 0.713948 0.242694 0.159206
H2    H     H_    0.217449 0.809078 0.300194 0.165988
H3    H     H_    0.278969 0.847896 0.384546 0.177148
H4    H     H_    0.022438 0.689133 0.645540 0.135517
H5    H     H_    0.005649 0.643080 0.594231 0.115635
H6    H     H_    0.123034 0.683628 0.564393 0.172914
H7    H     H_    0.073872 0.761441 0.585748 0.097294
H8    H     H_    0.148690 0.722454 0.616455 0.178466
H9    H     H_    0.688362 0.980890 0.645999 0.135240
H10   H     H_    0.642794 0.996482 0.594412 0.116195
H11   H     H_    0.686168 0.879934 0.564985 0.172569
H12   H     H_    0.762660 0.930719 0.586752 0.098092
H13   H     H_    0.120597 0.285740 0.242602 0.158976
H14   H     H_    0.724582 0.855187 0.617301 0.179746
H15   H     H_    0.977582 0.310988 0.645571 0.135427
H16   H     H_    0.994351 0.357021 0.594246 0.115645
H17   H     H_    0.876969 0.316423 0.564489 0.173289
H18   H     H_    0.926198 0.238642 0.585799 0.097329
H19   H     H_    0.851365 0.277563 0.616568 0.178734
H20   H     H_    0.311116 0.014516 0.642115 0.133165
H21   H     H_    0.358624 0.006594 0.590810 0.120100
H22   H     H_    0.313483 0.125134 0.565894 0.170736
H23   H     H_    0.237464 0.070560 0.584737 0.097911
H24   H     H_    0.089811 0.260712 0.296489 0.110863
H25   H     H_    0.273014 0.142929 0.618860 0.181690
H26   H     H_    0.525371 0.809048 0.854305 0.135269
H27   H     H_    0.506463 0.855281 0.905369 0.114287
H28   H     H_    0.624104 0.817529 0.936131 0.174012
H29   H     H_    0.576945 0.738468 0.914769 0.097483
H30   H     H_    0.651566 0.778756 0.884408 0.177437
H31   H     H_    0.189033 0.524189 0.854206 0.135083
H32   H     H_    0.143039 0.506387 0.905428 0.115355
H33   H     H_    0.182399 0.623896 0.935702 0.173714
H34   H     H_    0.260697 0.575554 0.914311 0.096976
H35   H     H_    0.197725 0.189447 0.274166 0.086745
H36   H     H_    0.221237 0.650351 0.883781 0.178052
H37   H     H_    0.491862 0.182409 0.846798 0.108490
H38   H     H_    0.507607 0.144034 0.900735 0.122430
H39   H     H_    0.394099 0.201532 0.928527 0.174724
H40   H     H_    0.456059 0.268244 0.905529 0.105242
H41   H     H_    0.376948 0.239737 0.874890 0.161997
H42   H     H_    0.811034 0.475882 0.854322 0.135406
H43   H     H_    0.856981 0.493567 0.905542 0.115461
H44   H     H_    0.817557 0.376004 0.935740 0.173633
H45   H     H_    0.739292 0.424406 0.914401 0.096920
H46   H     H_    0.249265 0.272228 0.265868 0.160437
H47   H     H_    0.778765 0.349665 0.883804 0.178007
H48   H     H_    0.514329 0.188933 0.142091 0.133380
H49   H     H_    0.506474 0.141476 0.090769 0.119793
H50   H     H_    0.624964 0.186900 0.065843 0.170125
H51   H     H_    0.570351 0.262793 0.084742 0.097906
H52   H     H_    0.642734 0.227288 0.118822 0.181510
H53   H     H_    0.188102 0.489411 0.142458 0.132954
H54   H     H_    0.141354 0.495709 0.090841 0.120905
H55   H     H_    0.189962 0.378291 0.066506 0.169707
H56   H     H_    0.264281 0.434673 0.085867 0.098857
H57   H     H_    0.220046 0.246874 0.320613 0.155223
H58   H     H_    0.229606 0.361638 0.119805 0.182817
H59   H     H_    0.481289 0.811625 0.146084 0.135357
H60   H     H_    0.496734 0.857181 0.094451 0.116741
H61   H     H_    0.380231 0.813393 0.065143 0.172123
H62   H     H_    0.431244 0.737096 0.086907 0.098140
H63   H     H_    0.355669 0.774916 0.117505 0.179449
H64   H     H_    0.811982 0.510247 0.142507 0.132848
H65   H     H_    0.858755 0.504171 0.090862 0.121045
H66   H     H_    0.809968 0.621579 0.066674 0.169331
H67   H     H_    0.735748 0.564976 0.085979 0.098886
H68   H     H_    0.715010 0.115725 0.242599 0.158919
H69   H     H_    0.770220 0.637977 0.120002 0.182797
H70   H     H_    0.739866 0.086335 0.296702 0.110338
H71   H     H_    0.812824 0.192276 0.272996 0.087535
H72   H     H_    0.730949 0.244981 0.264438 0.161025
H73   H     H_    0.909856 0.738947 0.296518 0.111061
H74   H     H_    0.756241 0.216937 0.319387 0.153795
H75   H     H_    0.893135 0.269623 0.762141 0.185882
H76   H     H_    0.969802 0.271481 0.724678 0.103463
H77   H     H_    0.902818 0.200988 0.670689 0.134116
H78   H     H_    0.890137 0.157651 0.723121 0.095347
H79   H     H_    0.817843 0.212781 0.700401 0.165790
H80   H     H_    0.261031 0.073668 0.760448 0.182300
H81   H     H_    0.273078 0.006036 0.717901 0.101979
H82   H     H_    0.196075 0.074956 0.667780 0.136524
H83   H     H_    0.150312 0.070382 0.719949 0.095493
H84   H     H_    0.801750 0.810108 0.274546 0.087077
H85   H     H_    0.196126 0.153389 0.704003 0.157945
H86   H     H_    0.106647 0.730426 0.762083 0.185785
H87   H     H_    0.030250 0.728752 0.724474 0.104080
H88   H     H_    0.097778 0.799168 0.670638 0.134248
H89   H     H_    0.110141 0.842442 0.723112 0.094886
H90   H     H_    0.182501 0.787192 0.700531 0.165209
H91   H     H_    0.730662 0.897068 0.762439 0.186020
H92   H     H_    0.727217 0.973665 0.725012 0.103924
H93   H     H_    0.800062 0.908715 0.671284 0.133820
H94   H     H_    0.843024 0.896897 0.723867 0.095703
H95   H     H_    0.750286 0.727295 0.266242 0.160648
H96   H     H_    0.789936 0.823340 0.700789 0.165801
H97   H     H_    0.384692 0.215146 0.742642 0.159094
H98   H     H_    0.414271 0.239997 0.796713 0.110468
H99   H     H_    0.283713 0.256537 0.819531 0.154151
H100  H     H_    0.308478 0.313113 0.773155 0.087228
H101  H     H_    0.255559 0.231317 0.764586 0.161508
H102  H     H_    0.770730 0.390251 0.737966 0.186161
H103  H     H_    0.771702 0.467144 0.775249 0.103995
H104  H     H_    0.714893 0.314634 0.799956 0.165940
H105  H     H_    0.702023 0.399680 0.829414 0.133846
H106  H     H_    0.779671 0.752500 0.320961 0.155209
H107  H     H_    0.658857 0.386065 0.777035 0.095728
H108  H     H_    0.613431 0.771119 0.737720 0.185447
H109  H     H_    0.536379 0.769943 0.774927 0.103937
H110  H     H_    0.605419 0.702007 0.829117 0.134291
H111  H     H_    0.620074 0.659201 0.776709 0.095136
H112  H     H_    0.690155 0.716956 0.799656 0.166251
H113  H     H_    0.229206 0.609758 0.737826 0.185943
H114  H     H_    0.228408 0.533072 0.775256 0.103333
H115  H     H_    0.284925 0.685837 0.799613 0.165929
H116  H     H_    0.297991 0.600986 0.829232 0.134048
H117  H     H_    0.271366 0.885289 0.237851 0.185625
H118  H     H_    0.341097 0.614402 0.776789 0.095424
H119  H     H_    0.397102 0.768883 0.262514 0.186161
H120  H     H_    0.474044 0.772621 0.225333 0.103513
H121  H     H_    0.409872 0.699558 0.171427 0.133697
H122  H     H_    0.397399 0.656567 0.223967 0.095128
H123  H     H_    0.324108 0.709510 0.200545 0.164990
H124  H     H_    0.761211 0.567571 0.260926 0.182210
H125  H     H_    0.774789 0.500750 0.218107 0.100855
H126  H     H_    0.693135 0.645787 0.205069 0.158253
H127  H     H_    0.694869 0.567600 0.168633 0.136071
H128  H     H_    0.270104 0.962726 0.274745 0.103544
H129  H     H_    0.650077 0.561314 0.221056 0.095366
H130  H     H_    0.573968 0.239317 0.260323 0.182440
H131  H     H_    0.506092 0.227207 0.217950 0.101366
H132  H     H_    0.574496 0.304284 0.167665 0.136260
H133  H     H_    0.570994 0.349977 0.219869 0.095058
H134  H     H_    0.653502 0.303876 0.203396 0.157402
H135  H     H_    0.238802 0.431585 0.260770 0.182366
H136  H     H_    0.225460 0.498549 0.218020 0.101785
H137  H     H_    0.306524 0.353222 0.204741 0.157803
H138  H     H_    0.305162 0.431594 0.168450 0.136111
H139  H     H_    0.202279 0.894143 0.329228 0.133962
H140  H     H_    0.349951 0.437418 0.220864 0.095174
H141  H     H_    0.009709 0.315540 0.346988 0.107874
H142  H     H_    0.993179 0.354280 0.400808 0.121542
H143  H     H_    0.107364 0.298417 0.428854 0.174958
H144  H     H_    0.046263 0.230755 0.406077 0.105931
H145  H     H_    0.125063 0.259890 0.375324 0.160543
H146  H     H_    0.682410 0.008600 0.346810 0.107996
H147  H     H_    0.643933 0.992739 0.400728 0.122400
H148  H     H_    0.701220 0.106324 0.428561 0.174657
H149  H     H_    0.768067 0.044573 0.405579 0.104926
H150  H     H_    0.159527 0.878654 0.276907 0.095313
H151  H     H_    0.739507 0.123659 0.374937 0.161851
H152  H     H_    0.990353 0.684402 0.346893 0.108235
H153  H     H_    0.006996 0.645699 0.400702 0.121550
H154  H     H_    0.892835 0.701586 0.428875 0.175064
H155  H     H_    0.953964 0.769212 0.406050 0.105966
H156  H     H_    0.875116 0.740143 0.375369 0.160133
H157  H     H_    0.309085 0.974090 0.354296 0.135089
H158  H     H_    0.355251 0.993263 0.405330 0.114102
H159  H     H_    0.317720 0.875544 0.436226 0.174018
H160  H     H_    0.238586 0.922468 0.414858 0.097183
O1    O     O_R   0.105780 0.561220 0.000020 -0.515475
O2    O     O_R   0.938780 0.605780 0.500020 -0.507152
O3    O     O_R   0.394220 0.938780 0.500020 -0.515992
O4    O     O_R   0.061220 0.394220 0.500020 -0.507253
O5    O     O_R   0.605780 0.938780 0.499980 -0.514167
O6    O     O_R   0.938780 0.394220 0.499980 -0.516283
O7    O     O_R   0.394220 0.061220 0.499980 -0.513537
O8    O     O_R   0.061220 0.605780 0.499980 -0.516614
O9    O     O_R   0.999940 0.561230 0.064880 -0.486285
O10   O     O_R   0.438770 0.999940 0.064880 -0.485109
O11   O     O_R   0.000060 0.438770 0.064880 -0.486314
O12   O     O_R   0.438780 0.105780 0.000020 -0.507407
O13   O     O_R   0.561230 0.000060 0.064880 -0.486289
O14   O     O_R   0.999940 0.438770 0.935120 -0.483542
O15   O     O_R   0.438770 0.000060 0.935120 -0.482329
O16   O     O_R   0.000060 0.561230 0.935120 -0.483574
O17   O     O_R   0.561230 0.999940 0.935120 -0.484925
O18   O     O_R   0.499940 0.061230 0.564880 -0.486680
O19   O     O_R   0.938770 0.499940 0.564880 -0.485112
O20   O     O_R   0.500060 0.938770 0.564880 -0.484600
O21   O     O_R   0.061230 0.500060 0.564880 -0.485207
O22   O     O_R   0.499940 0.938770 0.435120 -0.484810
O23   O     O_R   0.894220 0.438780 0.000020 -0.515419
O24   O     O_R   0.938770 0.500060 0.435120 -0.483549
O25   O     O_R   0.500060 0.061230 0.435120 -0.482264
O26   O     O_R   0.061230 0.499940 0.435120 -0.483660
O27   O     O_R   0.499980 0.394200 0.037580 -0.509481
O28   O     O_R   0.605800 0.499980 0.037580 -0.510064
O29   O     O_R   0.500020 0.605800 0.037580 -0.509358
O30   O     O_R   0.394200 0.500020 0.037580 -0.510073
O31   O     O_R   0.499980 0.605800 0.962420 -0.509019
O32   O     O_R   0.605800 0.500020 0.962420 -0.508872
O33   O     O_R   0.500020 0.394200 0.962420 -0.509726
O34   O     O_R   0.561220 0.894220 0.000020 -0.514971
O35   O     O_R   0.394200 0.499980 0.962420 -0.508454
O36   O     O_R   0.999980 0.894200 0.537580 -0.508914
O37   O     O_R   0.105800 0.999980 0.537580 -0.509841
O38   O     O_R   0.000020 0.105800 0.537580 -0.508877
O39   O     O_R   0.894200 0.000020 0.537580 -0.509187
O40   O     O_R   0.999980 0.105800 0.462420 -0.509826
O41   O     O_R   0.105800 0.000020 0.462420 -0.508744
O42   O     O_R   0.000020 0.894200 0.462420 -0.510231
O43   O     O_R   0.894200 0.999980 0.462420 -0.509664
O44   O     O_3   0.857012 0.639162 0.294974 -0.516441
O45   O     O_R   0.105780 0.438780 0.999980 -0.511241
O46   O     O_3   0.340587 0.878106 0.292731 -0.530129
O47   O     O_3   0.142769 0.360432 0.294874 -0.516567
O48   O     O_3   0.641051 0.140839 0.294865 -0.517333
O49   O     O_3   0.882152 0.338600 0.707318 -0.531130
O50   O     O_3   0.329183 0.104015 0.707808 -0.528028
O51   O     O_3   0.117867 0.661482 0.707243 -0.531215
O52   O     O_3   0.662509 0.884299 0.707380 -0.531361
O53   O     O_3   0.359513 0.141251 0.794930 -0.517236
O54   O     O_3   0.839881 0.380386 0.792761 -0.530945
O55   O     O_3   0.621349 0.840271 0.792633 -0.529962
O56   O     O_R   0.438780 0.894220 0.999980 -0.513722
O57   O     O_3   0.160073 0.619771 0.792673 -0.530744
O58   O     O_3   0.384705 0.837082 0.207443 -0.531616
O59   O     O_3   0.827658 0.600501 0.208010 -0.528413
O60   O     O_3   0.603930 0.171029 0.207696 -0.528062
O61   O     O_3   0.172203 0.399026 0.207878 -0.528466
O62   O     O_3   0.082119 0.397630 0.366760 -0.490409
O63   O     O_3   0.601317 0.082029 0.366703 -0.490360
O64   O     O_3   0.917979 0.602338 0.366785 -0.490405
O65   O     O_3   0.401931 0.911341 0.366483 -0.498998
O66   O     O_3   0.087774 0.597898 0.633558 -0.499841
O67   O     O_R   0.894220 0.561220 0.999980 -0.511526
O68   O     O_3   0.598671 0.913547 0.633615 -0.500089
O69   O     O_3   0.912200 0.402185 0.633615 -0.499720
O70   O     O_3   0.399601 0.085393 0.634071 -0.503301
O71   O     O_3   0.588419 0.901791 0.866427 -0.499148
O72   O     O_3   0.097197 0.588549 0.866381 -0.499337
O73   O     O_3   0.418245 0.101445 0.866750 -0.490485
O74   O     O_3   0.902842 0.411469 0.866428 -0.499465
O75   O     O_3   0.585277 0.100590 0.134008 -0.503346
O76   O     O_3   0.101553 0.416257 0.134054 -0.503931
O77   O     O_3   0.413739 0.901086 0.133667 -0.500296
O78   O     O_R   0.561220 0.105780 0.999980 -0.514467
O79   O     O_3   0.898406 0.583581 0.134137 -0.503957
O80   O     O_R   0.605780 0.061220 0.500020 -0.506900

loop_
_geom_bond_atom_site_label_1
_geom_bond_atom_site_label_2
_ccdc_geom_bond_type
C48   H153  S    
C10   O46   S    
C54   H9    S    
Cu1   O1    S    
C114  O80   A    
C19   C20   S    
C120  C144  A    
C63   H32   S    
C43   H141  S    
C136  O3    A    
C16   H72   S    
C167  O54   S    
C44   H145  S    
C17   H76   S    
C32   H113  S    
C28   H102  S    
C37   C38   S    
C70   H48   S    
C51   H3    S    
C6    C146  A    
C141  C154  A    
C103  O34   A    
C6    O60   S    
C125  O8    A    
C139  C152  A    
C119  C130  A    
C132  C150  A    
C113  C142  A    
C50   H158  S    
C12   H13   S    
C34   O58   S    
C30   O55   S    
C20   H82   S    
C45   H146  S    
Cu5   O56   S    
C41   H136  S    
Cu1   Cu6   S    
C78   O11   A    
C95   C102  S    
C61   H26   S    
C47   H151  S    
C59   C60   S    
C43   O62   S    
C21   C22   S    
C98   O31   A    
C62   H28   S    
C45   C47   S    
C58   H19   S    
Cu2   O35   S    
C31   H110  S    
C68   C95   T    
Cu12  O28   S    
C3    C143  A    
C39   O60   S    
C72   C73   S    
C143  C154  A    
C119  C148  A    
C102  O38   A    
C51   H160  S    
C7    O61   S    
Cu8   O7    S    
C55   H11   S    
C43   C44   S    
C66   H39   S    
C75   H61   S    
C115  O72   S    
C56   H15   S    
C82   O15   A    
Cu3   O36   S    
C67   H43   S    
C93   C100  S    
C18   H79   S    
C33   H115  S    
C3    C164  A    
C18   H78   S    
C60   H22   S    
C63   O72   S    
C138  C151  A    
Cu4   O41   S    
C131  C149  A    
C78   O9    A    
C26   H98   S    
C105  C133  A    
C28   C29   S    
C111  C124  A    
C160  O47   S    
C39   H131  S    
C52   H4    S    
C119  O76   S    
C40   H132  S    
C24   C90   T    
C4    C144  A    
C14   H57   S    
C100  O36   A    
Cu11  O8    S    
C125  O2    A    
C133  C160  A    
Cu6   O45   S    
Cu1   O16   S    
C118  C129  A    
C55   H12   S    
C65   H37   S    
Cu3   O38   S    
C1    C158  S    
Cu6   O23   S    
Cu2   O32   S    
C85   C123  S    
C1    O1    A    
C60   H25   S    
C117  C128  A    
C142  C168  A    
C34   H120  S    
C15   H68   S    
C47   H149  S    
C65   O73   S    
Cu2   Cu12  S    
C136  O7    A    
C81   O12   A    
C71   H51   S    
C2    C81   S    
C107  C122  A    
C49   H155  S    
C8    H1    S    
Cu2   O33   S    
Cu12  O30   S    
C37   H125  S    
C92   O23   A    
C121  C130  A    
C62   H29   S    
C36   H121  S    
C147  O6    A    
C97   O32   A    
C42   H137  S    
C32   O57   S    
C120  O77   S    
Cu1   O67   S    
C25   H96   S    
C31   H111  S    
C44   H144  S    
C139  C165  A    
C48   H152  S    
C73   H56   S    
C40   H133  S    
C37   O59   S    
C162  O49   S    
C80   O14   A    
C56   O69   S    
Cu9   Cu11  S    
C66   H40   S    
Cu4   O43   S    
Cu11  O26   S    
Cu8   Cu10  S    
C74   H60   S    
C104  O43   A    
C67   O74   S    
Cu5   Cu7   S    
C47   H148  S    
C132  C159  A    
C5    C145  A    
C120  C129  A    
C64   H33   S    
C41   O61   S    
C39   C40   S    
C137  C163  A    
C84   O19   A    
C80   C128  S    
C116  C127  A    
C115  C128  A    
C109  C138  A    
C53   H6    S    
C144  C155  A    
C12   O47   S    
C6    C161  A    
C59   H20   S    
C17   C18   S    
C62   H30   S    
C21   H86   S    
C110  C126  A    
C22   H89   S    
C86   O26   A    
Cu9   O24   S    
C1    O45   A    
C57   C94   T    
C75   H63   S    
C52   C53   S    
C36   H123  S    
C147  O4    A    
C54   C55   S    
C29   H105  S    
C54   H10   S    
C9    H95   S    
C63   H31   S    
C98   O29   A    
C27   H100  S    
C32   H114  S    
C140  C153  A    
C110  O68   S    
C134  C161  A    
Cu11  O21   S    
C24   C103  S    
C78   C130  S    
C70   H49   S    
C73   H58   S    
C80   O16   A    
C10   H117  S    
Cu10  O3    S    
C29   H104  S    
C61   O71   S    
C56   C58   S    
C105  C122  A    
C34   C36   S    
C12   H24   S    
C61   C62   S    
C108  C132  A    
C10   C11   S    
C63   C64   S    
C168  O55   S    
Cu3   O39   S    
C106  C134  A    
C55   H14   S    
C152  C153  A    
C41   H135  S    
Cu9   O2    S    
Cu11  O4    S    
C88   C96   S    
C58   H17   S    
C41   C42   S    
C46   C125  S    
C76   H65   S    
Cu7   O13   S    
C84   O21   A    
C37   H124  S    
C23   H91   S    
C26   C27   S    
C163  O50   S    
C110  C139  A    
C53   H8    S    
C14   H46   S    
C66   H41   S    
C17   O49   S    
C30   C31   S    
C4    C159  A    
C79   C129  S    
C9    H84   S    
C51   H159  S    
C8    H73   S    
C72   H53   S    
C77   H66   S    
C131  C157  A    
C25   H93   S    
C30   H109  S    
C56   H16   S    
C145  C156  A    
C16   H74   S    
C16   H71   S    
C86   O24   A    
C146  C155  A    
C11   H150  S    
C86   C122  S    
C74   O77   S    
C137  C152  A    
Cu10  O20   S    
C70   C71   S    
C38   H126  S    
C91   C104  S    
C112  C126  A    
C72   O76   S    
Cu9   O6    S    
C42   H140  S    
Cu5   O15   S    
C116  O73   S    
C29   H107  S    
C30   H108  S    
Cu4   O42   S    
C11   H2    S    
C43   H142  S    
C48   O64   S    
C82   O17   A    
Cu4   O40   S    
C140  C166  A    
C23   H92   S    
C141  C167  A    
C108  O65   S    
C164  O51   S    
C163  C166  A    
C19   H80   S    
C7    C160  A    
Cu7   O34   S    
Cu1   O9    S    
Cu6   O11   S    
C50   H157  S    
C117  C141  A    
C83   O18   A    
C45   H147  S    
Cu3   O37   S    
C3    O57   S    
C26   O53   S    
C50   C51   S    
C104  O39   A    
C19   O50   S    
C61   H27   S    
C100  O42   A    
Cu5   O10   S    
C48   C49   S    
C5    C157  A    
C13   C92   S    
C4    O58   S    
C5    O59   S    
C77   H69   S    
C108  C123  A    
C49   H154  S    
Cu12  O27   S    
C112  C137  A    
C8    O44   S    
C15   O48   S    
C69   H45   S    
C101  O41   A    
C36   H122  S    
C15   H70   S    
C42   H138  S    
Cu10  O5    S    
Cu8   O18   S    
C32   C33   S    
C75   H62   S    
C111  C135  A    
C113  O71   S    
C135  C151  A    
C159  O46   S    
C73   H55   S    
C33   H116  S    
C40   H134  S    
C114  O5    A    
C97   O28   A    
C54   O68   S    
C148  C156  A    
C77   H67   S    
C26   H97   S    
C85   O22   A    
Cu9   O19   S    
C28   H103  S    
Cu3   Cu4   S    
C150  C155  A    
C92   O67   A    
C111  O69   S    
C25   H94   S    
C9    H106  S    
C64   H34   S    
C76   H64   S    
C149  C156  A    
C20   H83   S    
C65   H38   S    
C151  C154  A    
C15   C16   S    
C134  C150  A    
Cu2   O31   S    
C35   C114  S    
C157  O44   S    
C74   H59   S    
Cu10  O22   S    
C117  O74   S    
C45   O63   S    
Cu5   O12   S    
C59   O70   S    
C34   H119  S    
C94   C101  S    
C8    C9    S    
C18   H77   S    
C106  C123  A    
C71   H52   S    
C57   C136  S    
C2    C88   T    
Cu7   O17   S    
C49   H156  S    
C22   H90   S    
C109  O66   S    
C165  O52   S    
Cu12  O29   S    
C76   O79   S    
C107  O64   S    
C50   O65   S    
C38   H129  S    
C105  O62   S    
C69   H47   S    
C161  O48   S    
C79   O13   A    
C87   C99   S    
C115  C143  A    
C74   C75   S    
C99   O35   A    
C118  C146  A    
C133  C149  A    
C76   C77   S    
C52   O66   S    
C83   O20   A    
C31   H112  S    
C44   H143  S    
C27   H99   S    
C21   O51   S    
C89   C97   S    
C67   C69   S    
C67   H42   S    
Cu8   O80   S    
C19   H81   S    
C81   O78   A    
C59   H21   S    
C60   H23   S    
C10   H128  S    
C99   O30   A    
Cu8   O25   S    
Cu6   O14   S    
C68   C147  S    
C23   O52   S    
C166  O53   S    
C12   C14   S    
C165  C168  A    
C85   O25   A    
C135  C162  A    
C121  C145  A    
C39   H130  S    
C52   H5    S    
C33   H118  S    
C121  O79   S    
C7    C148  A    
C70   O75   S    
C17   H75   S    
C13   C89   T    
C64   H36   S    
C20   H85   S    
C27   H101  S    
C109  C124  A    
C113  C127  A    
C84   C124  S    
C11   H139  S    
C87   C158  T    
C69   H44   S    
C107  C131  A    
C53   H7    S    
C112  O70   S    
C118  O75   S    
C46   C93   T    
C102  O40   A    
C71   H50   S    
C72   H54   S    
C14   H35   S    
C23   C25   S    
C142  C153  A    
C96   O27   A    
C82   C127  S    
C58   H18   S    
C21   H87   S    
C162  C167  A    
C22   H88   S    
C96   O33   A    
C28   O54   S    
C79   O10   A    
C65   C66   S    
C138  C164  A    
C38   H127  S    
C83   C126  S    
C103  O56   A    
Cu7   O78   S    
C90   C98   S    
C101  O37   A    
C106  O63   S    
C116  C140  A    
C35   C91   T    
