data_mof_unit_39841.cif
_audit_creation_date              2013-03-05T16:25:57-0500
_audit_creation_method            fapswitch 2.2
_symmetry_space_group_name_H-M    P1
_symmetry_Int_Tables_number       1
_space_group_crystal_system       triclinic
_cell_length_a                    18.393813
_cell_length_b                    18.249492
_cell_length_c                    18.616052
_cell_angle_alpha                 119.962952
_cell_angle_beta                  90.401326
_cell_angle_gamma                 119.455775
_cell_volume                      4441.84606756

loop_
_atom_site_label
_atom_site_type_symbol
_atom_site_description
_atom_site_fract_x
_atom_site_fract_y
_atom_site_fract_z
_atom_type_partial_charge
Zn1   Zn    Zn3+2 0.956630 0.413250 0.869870 0.996467
Zn2   Zn    Zn3+2 0.130130 0.586750 0.043370 1.054706
Zn3   Zn    Zn3+2 0.956630 0.413250 0.043380 1.073232
Zn4   Zn    Zn3+2 0.956610 0.586750 0.043370 1.097065
O1    O     O_3   0.000000 0.500000 0.000000 -0.547485
O2    O     O_R   0.055050 0.731580 0.115780 -0.596192
O3    O     O_R   0.884220 0.268410 0.823490 -0.665619
O4    O     O_R   0.176520 0.560720 0.944920 -0.595522
O5    O     O_R   0.884200 0.439290 0.115800 -0.600774
O6    O     O_R   0.176530 0.560720 0.115800 -0.616208
O7    O     O_R   0.884180 0.560710 0.944910 -0.604199
O8    O     O_R   0.055100 0.439290 0.115810 -0.586957
O9    O     O_R   0.884190 0.439280 0.823480 -0.629548
O10   O     O_R   0.055090 0.439280 0.823480 -0.618536
O11   O     O_R   0.884180 0.560710 0.115790 -0.585918
O12   O     O_R   0.176500 0.731590 0.115790 -0.624222
O13   O     O_R   0.884220 0.268420 0.944930 -0.629614
C1    C     C_R   0.139717 0.779765 0.141904 0.814608
C2    C     C_R   0.858418 0.220667 0.860576 0.824526
C3    C     C_R   0.140045 0.501856 0.860105 0.905978
C4    C     C_R   0.860890 0.500512 0.141015 0.924483
C5    C     C_R   0.139612 0.503545 0.143514 0.843987
C6    C     C_R   0.858037 0.499883 0.860977 0.833848
C7    C     C_R   0.825083 0.672913 0.920445 0.168776
C8    C     C_R   0.841802 0.765769 0.937414 0.049134
C9    C     C_R   0.841385 0.777048 0.867996 0.140389
C10   C     C_R   0.804609 0.689391 0.780921 0.213803
C11   C     C_R   0.771044 0.592653 0.765874 -0.117101
C12   C     C_R   0.801133 0.589322 0.832777 -0.122725
C13   C     C_R   0.795437 0.497708 0.807481 -0.037779
C14   C     C_R   0.732431 0.403838 0.725518 0.076457
C15   C     C_R   0.681060 0.404811 0.670178 0.333804
C16   C     C_R   0.700865 0.499299 0.690124 -0.143129
C17   C     C_R   0.790879 0.052864 0.718331 -0.021901
C18   C     C_R   0.795337 0.109437 0.805210 -0.077014
C19   C     C_R   0.734389 0.054509 0.835274 0.000501
C20   C     C_R   0.680575 0.944693 0.780344 0.333267
C21   C     C_R   0.685053 0.890752 0.694808 -0.171683
C22   C     C_R   0.738013 0.948705 0.665803 -0.074105
C23   C     C_3   0.771849 0.941112 0.590671 0.508173
C24   C     C_3   0.833987 0.061930 0.651953 0.070926
C25   C     C_R   0.778191 0.563654 0.225789 -0.072680
C26   C     C_R   0.810617 0.503394 0.202046 -0.195177
C27   C     C_R   0.797454 0.451340 0.243018 0.201874
C28   C     C_R   0.747111 0.455896 0.300409 0.194095
C29   C     C_R   0.705819 0.507885 0.314050 -0.198329
C30   C     C_R   0.728023 0.566344 0.280218 0.039587
C31   C     C_3   0.676630 0.585835 0.237818 0.050284
C32   C     C_3   0.732707 0.582514 0.175912 0.481392
C33   C     C_R   0.182310 0.950368 0.186451 -0.092435
C34   C     C_R   0.196734 0.891467 0.202692 -0.011082
C35   C     C_R   0.271861 0.943450 0.275106 0.142024
C36   C     C_R   0.324843 0.053606 0.332355 0.115925
C37   C     C_R   0.306786 0.109233 0.310949 -0.035699
C38   C     C_R   0.238045 0.054865 0.235143 -0.094583
C39   C     C_3   0.168440 0.066315 0.209191 0.405408
C40   C     C_3   0.104125 0.946835 0.156016 0.219107
C41   C     C_R   0.284102 0.557019 0.219663 -0.016057
C42   C     C_R   0.195303 0.515413 0.210571 -0.220260
C43   C     C_R   0.163356 0.488491 0.268712 0.300290
C44   C     C_R   0.217899 0.488890 0.324052 -0.028272
C45   C     C_R   0.302958 0.512802 0.317704 -0.090479
C46   C     C_R   0.335367 0.553436 0.269973 0.020249
C47   C     C_3   0.387091 0.537377 0.209158 0.157802
C48   C     C_3   0.331228 0.545110 0.153499 0.371061
C49   C     C_R   0.287149 0.563658 0.836417 -0.067145
C50   C     C_R   0.195082 0.509263 0.803473 -0.185593
C51   C     C_R   0.157348 0.461968 0.712473 0.210417
C52   C     C_R   0.210235 0.458151 0.657287 0.203349
C53   C     C_R   0.302504 0.505896 0.693168 -0.195668
C54   C     C_R   0.338850 0.564280 0.784105 -0.004648
C55   C     C_3   0.416975 0.599553 0.849962 0.043078
C56   C     C_3   0.356851 0.595390 0.908927 0.520593
Zn5   Zn    Zn3+2 0.543330 0.586660 0.630080 1.046118
Zn6   Zn    Zn3+2 0.543320 0.586660 0.456570 1.022444
Zn7   Zn    Zn3+2 0.369830 0.413160 0.456580 1.068151
Zn8   Zn    Zn3+2 0.543350 0.413170 0.456590 1.113325
O14   O     O_3   0.499960 0.499910 0.499960 -0.545743
O15   O     O_R   0.615770 0.439200 0.384160 -0.587018
O16   O     O_R   0.444870 0.560630 0.676470 -0.656554
O17   O     O_R   0.615730 0.731500 0.555020 -0.611504
O18   O     O_R   0.323450 0.268330 0.384170 -0.591925
O19   O     O_R   0.444860 0.560620 0.384150 -0.657758
O20   O     O_R   0.615780 0.439200 0.555040 -0.572066
O21   O     O_R   0.323420 0.439190 0.384160 -0.618034
O22   O     O_R   0.615760 0.560630 0.676470 -0.649517
O23   O     O_R   0.615740 0.731500 0.676460 -0.579146
O24   O     O_R   0.444900 0.268330 0.384170 -0.630479
O25   O     O_R   0.615750 0.560630 0.384150 -0.658990
O26   O     O_R   0.323430 0.439200 0.555040 -0.601391
C57   C     C_R   0.642029 0.501358 0.361768 0.896400
C58   C     C_R   0.359615 0.500592 0.639170 0.851891
C59   C     C_R   0.637291 0.779308 0.639370 0.963259
C60   C     C_R   0.360697 0.220449 0.362178 0.827274
C61   C     C_R   0.359650 0.502863 0.363166 0.833825
C62   C     C_R   0.640406 0.499176 0.638474 0.879012
C63   C     C_3   0.714900 0.302069 0.700218 -0.696092
H1    H     H_    0.768919 0.295819 0.678787 0.259184
H2    H     H_    0.710002 0.296390 0.756901 0.218552
H3    H     H_    0.652262 0.233626 0.645286 0.272954
N1    N     N_R   0.704055 0.897614 0.512120 0.184646
O27   O     O_R   0.621534 0.859431 0.507512 -0.388371
O28   O     O_R   0.726895 0.900533 0.447142 -0.349936
C64   C     C_3   0.933692 0.109674 0.683955 -0.662897
H4    H     H_    0.970758 0.193549 0.736323 0.237579
H5    H     H_    0.946515 0.073568 0.711297 0.253392
H6    H     H_    0.959800 0.099356 0.628533 0.282664
C65   C     C_3   0.814772 0.116179 0.620196 -0.621940
H7    H     H_    0.744474 0.090280 0.608719 0.231896
H8    H     H_    0.857542 0.201003 0.668658 0.263824
H9    H     H_    0.829323 0.099356 0.558142 0.288543
N2    N     N_R   0.831559 0.390521 0.225232 0.267973
O29   O     O_R   0.792502 0.300496 0.150483 -0.310938
O30   O     O_R   0.883259 0.411165 0.290353 -0.213565
N3    N     N_R   0.736093 0.404244 0.341691 0.256983
O31   O     O_R   0.771171 0.457549 0.426589 -0.260936
O32   O     O_R   0.696191 0.304778 0.294156 -0.264698
C66   C     C_3   0.578047 0.496159 0.191395 -0.798947
H10   H     H_    0.544021 0.497213 0.239749 0.241666
H11   H     H_    0.546395 0.502448 0.146082 0.279867
H12   H     H_    0.568920 0.420340 0.152821 0.261389
C67   C     C_3   0.694685 0.692357 0.303814 -0.569945
H13   H     H_    0.766839 0.752697 0.339122 0.284418
H14   H     H_    0.669340 0.714294 0.269323 0.263406
H15   H     H_    0.663375 0.692776 0.354403 0.260028
N4    N     N_R   0.680760 0.496709 0.082400 0.220354
O33   O     O_R   0.625502 0.497238 0.038943 -0.285116
O34   O     O_R   0.682205 0.415409 0.044124 -0.412890
N5    N     N_R   0.791728 0.681272 0.187690 0.228043
O35   O     O_R   0.875991 0.739473 0.231439 -0.272070
O36   O     O_R   0.758565 0.715980 0.161564 -0.234071
C68   C     C_3   0.291143 0.880980 0.292989 -0.725094
H16   H     H_    0.312505 0.840696 0.240199 0.300164
H17   H     H_    0.344694 0.926900 0.355346 0.241184
H18   H     H_    0.230783 0.823623 0.295331 0.222057
N6    N     N_R   0.811951 0.656119 0.987673 0.271691
O37   O     O_R   0.874144 0.719512 0.063535 -0.255788
O38   O     O_R   0.741503 0.571550 0.969859 -0.292336
C69   C     C_3   0.394194 0.109227 0.418257 -0.660429
H19   H     H_    0.422188 0.192257 0.462943 0.245630
H20   H     H_    0.363803 0.077084 0.455665 0.242445
H21   H     H_    0.449087 0.100389 0.404800 0.283610
N7    N     N_R   0.146222 0.123715 0.284021 0.242630
O39   O     O_R   0.132182 0.188926 0.288488 -0.256105
O40   O     O_R   0.143327 0.112996 0.348293 -0.293083
N8    N     N_R   0.188694 0.106232 0.154930 0.201724
O41   O     O_R   0.269181 0.155115 0.154562 -0.393477
O42   O     O_R   0.127784 0.101472 0.113102 -0.281712
N9    N     N_R   0.034161 0.913917 0.193196 0.288219
O43   O     O_R   0.973645 0.930494 0.188982 -0.191108
O44   O     O_R   0.040645 0.886426 0.244059 -0.272162
C70   C     C_3   0.069239 0.885211 0.055290 -0.772203
H22   H     H_    0.124600 0.905517 0.028825 0.248352
H23   H     H_    0.030978 0.801355 0.025383 0.235348
H24   H     H_    0.025441 0.901447 0.035124 0.285932
N10   N     N_R   0.076328 0.460617 0.271394 0.228580
O45   O     O_R   0.055729 0.525580 0.291125 -0.352795
O46   O     O_R   0.016848 0.369256 0.251236 -0.254697
C71   C     C_3   0.186639 0.467376 0.390426 -0.527636
H25   H     H_    0.164287 0.388028 0.366428 0.297361
H26   H     H_    0.241183 0.524059 0.454659 0.208908
H27   H     H_    0.131338 0.475293 0.403586 0.272809
C72   C     C_3   0.485473 0.627452 0.256634 -0.655874
H28   H     H_    0.517332 0.623333 0.303417 0.250932
H29   H     H_    0.520068 0.624598 0.208051 0.259673
H30   H     H_    0.494432 0.703197 0.294770 0.271536
C73   C     C_3   0.369933 0.429961 0.164840 -0.810749
H31   H     H_    0.298168 0.368346 0.139916 0.261390
H32   H     H_    0.395209 0.411862 0.108791 0.263910
H33   H     H_    0.401633 0.426164 0.212382 0.239016
N11   N     N_R   0.381298 0.639471 0.156249 0.250751
O47   O     O_R   0.451426 0.662161 0.132917 -0.270483
O48   O     O_R   0.358926 0.704065 0.185833 -0.336126
N12   N     N_R   0.851642 0.844258 0.022683 0.270374
O49   O     O_R   0.909870 0.941485 0.056881 -0.244293
O50   O     O_R   0.793877 0.819180 0.060646 -0.212447
C74   C     C_3   0.270255 0.447694 0.059592 -0.741557
H34   H     H_    0.216816 0.383065 0.060315 0.201783
H35   H     H_    0.238143 0.464054 0.024631 0.273424
H36   H     H_    0.308660 0.421454 0.021913 0.295343
N13   N     N_R   0.065553 0.416717 0.674672 0.255158
O51   O     O_R   0.036515 0.474781 0.699206 -0.325761
O52   O     O_R   0.012550 0.319171 0.611035 -0.299643
N14   N     N_R   0.169033 0.406739 0.565579 0.243996
O53   O     O_R   0.137782 0.444304 0.541533 -0.334821
O54   O     O_R   0.144531 0.312347 0.509641 -0.242751
C75   C     C_3   0.441634 0.521210 0.818152 -0.672300
H37   H     H_    0.478053 0.522524 0.771350 0.237954
H38   H     H_    0.487117 0.541762 0.874601 0.285962
H39   H     H_    0.381770 0.441299 0.785528 0.251903
C76   C     C_3   0.497490 0.708073 0.883329 -0.539998
H40   H     H_    0.478251 0.762478 0.901842 0.255512
H41   H     H_    0.548735 0.738348 0.941138 0.270474
H42   H     H_    0.528320 0.705688 0.832032 0.279288
N15   N     N_R   0.331610 0.514634 0.922622 0.187207
O55   O     O_R   0.392918 0.520649 0.965086 -0.341305
O56   O     O_R   0.253632 0.427572 0.877707 -0.448501
N16   N     N_R   0.388669 0.695414 0.991194 0.210546
O57   O     O_R   0.345058 0.736862 0.003473 -0.344413
O58   O     O_R   0.464786 0.747786 0.049996 -0.259503
N17   N     N_R   0.870230 0.874533 0.885149 0.277894
O59   O     O_R   0.940325 0.922989 0.868728 -0.281196
O60   O     O_R   0.821864 0.910010 0.908954 -0.257447
N18   N     N_R   0.802836 0.698031 0.708217 0.226301
O61   O     O_R   0.818155 0.643538 0.640217 -0.315056
O62   O     O_R   0.785941 0.759780 0.709202 -0.309847
N19   N     N_R   0.606876 0.309800 0.595174 0.182061
O63   O     O_R   0.617592 0.265995 0.519622 -0.321510
O64   O     O_R   0.532842 0.259722 0.605884 -0.428251
C77   C     C_3   0.722167 0.111458 0.922068 -0.575518
H43   H     H_    0.721149 0.175528 0.930308 0.210834
H44   H     H_    0.658208 0.062034 0.926074 0.259936
H45   H     H_    0.776609 0.142114 0.977260 0.292429
N20   N     N_R   0.621016 0.888927 0.811152 0.204938
O65   O     O_R   0.536015 0.828635 0.769751 -0.412307
O66   O     O_R   0.651459 0.901373 0.882505 -0.326811
N21   N     N_R   0.818309 0.890361 0.568987 0.187162
O67   O     O_R   0.861259 0.891901 0.513967 -0.331283
O68   O     O_R   0.817175 0.843218 0.603616 -0.328810

loop_
_geom_bond_atom_site_label_1
_geom_bond_atom_site_label_2
_geom_bond_distance
_ccdc_geom_bond_type
C38   C39   1.507152 S    
N4    O33   1.301363 A    
O18   C60   1.279018 A    
C24   C65   1.542849 S    
C23   N21   1.469980 S    
O21   C61   1.281699 A    
N17   O59   1.300761 A    
C37   C38   1.384647 A    
C3    C50   1.475577 S    
C72   H28   1.099596 S    
N11   O47   1.298543 A    
Zn6   O19   1.950055 S    
C66   H11   1.104196 S    
N2    O30   1.300477 A    
C63   H1    1.109510 S    
C73   H32   1.107934 S    
Zn8   O14   1.941531 S    
C65   H7    1.111399 S    
C32   N4    1.475715 S    
N11   O48   1.301550 A    
C9    C10   1.405141 A    
O4    C3    1.295834 A    
C48   N11   1.472321 S    
Zn1   O1    1.977681 S    
C11   C12   1.400097 A    
C72   H29   1.104183 S    
Zn7   O14   1.963860 S    
N8    O41   1.301918 A    
C47   C73   1.547727 S    
N9    O44   1.301627 A    
C71   H25   1.109588 S    
C31   C67   1.540274 S    
C21   C22   1.386934 A    
C69   H21   1.109760 S    
N20   O66   1.301037 A    
N3    O31   1.301222 A    
C40   C70   1.536094 S    
O8    C5    1.284293 A    
C41   C46   1.371145 A    
N13   O51   1.301295 A    
N14   O53   1.300498 A    
O9    C6    1.303333 A    
N7    O40   1.302750 A    
C17   C18   1.391180 A    
O20   C62   1.272805 A    
O7    C6    1.279395 A    
C66   H10   1.097643 S    
N2    O29   1.301242 A    
C75   H39   1.111159 S    
Zn3   O8    1.950307 S    
Zn1   O3    1.935973 S    
C23   N1    1.471350 S    
N12   O49   1.301455 A    
C39   N7    1.475229 S    
C8    N12   1.440160 S    
C14   C15   1.405564 A    
Zn8   O24   1.944793 S    
N14   O54   1.301134 A    
C51   C52   1.419781 A    
N3    O32   1.301096 A    
C40   N9    1.470893 S    
C19   C20   1.424630 A    
C71   H26   1.110586 S    
N16   O57   1.301738 A    
Zn5   O23   1.935973 S    
O25   C57   1.282240 A    
C12   C13   1.438264 A    
Zn2   O12   1.933615 S    
C55   C76   1.541100 S    
O15   C57   1.276750 A    
C55   C56   1.565692 S    
C7    N6    1.425873 S    
Zn8   O15   1.964890 S    
C49   C50   1.397617 A    
C53   C58   1.463209 S    
C42   C43   1.419255 A    
N1    O28   1.300779 A    
C4    C26   1.466828 S    
C45   C61   1.470902 S    
N18   O61   1.301512 A    
N17   O60   1.300920 A    
C52   C53   1.426232 A    
C17   C24   1.507304 S    
C47   C72   1.535828 S    
C64   H5    1.111337 S    
C64   H4    1.109940 S    
C63   H2    1.110728 S    
N1    O27   1.301968 A    
C1    C34   1.453435 S    
C73   H33   1.105361 S    
N8    O42   1.301383 A    
N19   O63   1.300706 A    
N13   O52   1.301267 A    
O2    C1    1.284709 A    
O24   C60   1.277775 A    
C51   N13   1.435117 S    
C75   H38   1.109177 S    
C10   N18   1.440621 S    
C35   C68   1.520338 S    
C6    C13   1.489519 S    
O10   C3    1.289620 A    
C72   H30   1.111774 S    
C7    C8    1.420316 A    
Zn4   O2    1.944644 S    
Zn7   O18   1.933425 S    
C5    C42   1.465748 S    
N20   O65   1.301269 A    
C68   H16   1.108382 S    
C31   C66   1.536207 S    
C29   C57   1.470681 S    
C52   N14   1.432439 S    
Zn8   O20   1.957876 S    
C74   H35   1.106221 S    
C41   C42   1.386009 A    
C36   C37   1.426013 A    
C49   C56   1.505298 S    
C32   N5    1.467139 S    
O6    C5    1.289109 A    
C17   C22   1.351709 A    
C43   C44   1.427849 A    
Zn4   O7    1.957923 S    
C18   C19   1.427874 A    
O16   C58   1.294894 A    
C50   C51   1.424911 A    
C43   N10   1.431561 S    
C55   C75   1.548021 S    
C20   C21   1.423803 A    
Zn3   O5    1.956071 S    
O17   C59   1.291011 A    
C28   N3    1.434609 S    
C41   C48   1.499543 S    
O26   C58   1.284679 A    
C30   C31   1.497959 S    
C70   H24   1.104253 S    
O11   C4    1.290814 A    
N15   O55   1.299120 A    
C74   H36   1.106562 S    
O19   C61   1.294415 A    
C56   N16   1.471176 S    
C9    N17   1.431904 S    
C45   C46   1.387667 A    
C33   C34   1.386090 A    
C71   H27   1.108273 S    
C8    C9    1.406972 A    
Zn5   O22   1.939711 S    
C15   N19   1.430401 S    
C53   C54   1.389211 A    
O22   C62   1.294510 A    
C49   C54   1.366107 A    
C68   H17   1.104766 S    
C27   N2    1.433758 S    
N6    O38   1.298795 A    
C23   C24   1.568419 S    
N18   O62   1.300253 A    
C11   C16   1.403273 A    
C74   H34   1.110534 S    
C77   H44   1.108127 S    
C56   N15   1.468513 S    
C26   C27   1.429303 A    
Zn2   O1    1.963858 S    
Zn1   O9    1.939860 S    
C25   C26   1.386989 A    
C67   H14   1.107237 S    
Zn2   O6    1.947967 S    
C16   C62   1.463423 S    
C20   N20   1.435312 S    
C73   H31   1.110227 S    
C63   H3    1.107069 S    
C35   C36   1.430180 A    
N5    O35   1.301095 A    
C76   H40   1.111420 S    
C39   C40   1.557046 S    
C29   C30   1.395664 A    
N10   O45   1.301057 A    
N4    O34   1.301080 A    
C21   C59   1.451434 S    
C36   C69   1.513734 S    
C33   C40   1.501415 S    
Zn2   O4    1.965616 S    
C27   C28   1.416586 A    
C70   H23   1.109680 S    
N6    O37   1.298191 A    
Zn3   O1    1.959304 S    
N16   O58   1.299757 A    
C69   H19   1.104865 S    
C24   C64   1.540155 S    
Zn6   O17   1.945266 S    
N21   O68   1.301054 A    
C77   H45   1.109892 S    
O3    C2    1.288314 A    
C33   C38   1.359000 A    
C65   H9    1.109629 S    
C15   C16   1.408811 A    
C67   H15   1.106060 S    
C44   C71   1.511306 S    
N21   O67   1.300870 A    
C76   H42   1.107111 S    
C34   C35   1.426173 A    
C2    C18   1.451224 S    
N9    O43   1.300166 A    
C76   H41   1.109770 S    
C69   H20   1.110201 S    
O5    C4    1.265920 A    
C13   C14   1.420430 A    
C48   C74   1.543259 S    
Zn4   O11   1.964887 S    
C68   H18   1.110633 S    
C31   C32   1.550524 S    
Zn4   O1    1.941679 S    
O23   C59   1.288613 A    
C47   C48   1.556626 S    
N10   O46   1.301117 A    
O13   C2    1.290930 A    
C65   H8    1.107461 S    
Zn3   O13   1.945167 S    
C25   C30   1.374261 A    
C14   C63   1.519942 S    
C39   N8    1.470777 S    
C44   C45   1.426502 A    
Zn6   O14   1.959453 S    
N12   O50   1.301220 A    
C37   C60   1.444342 S    
Zn6   O25   1.956026 S    
C25   C32   1.507334 S    
C46   C47   1.493547 S    
C22   C23   1.505391 S    
C28   C29   1.418539 A    
C7    C12   1.423683 A    
C54   C55   1.503239 S    
C70   H22   1.111407 S    
C75   H37   1.105301 S    
O12   C1    1.276602 A    
C77   H43   1.110602 S    
Zn5   O14   1.977528 S    
Zn7   O26   1.965873 S    
C10   C11   1.417038 A    
N19   O64   1.300458 A    
Zn5   O16   1.958813 S    
Zn1   O10   1.958812 S    
N5    O36   1.301326 A    
C67   H13   1.110629 S    
Zn7   O21   1.947916 S    
C66   H12   1.111635 S    
C64   H6    1.110123 S    
N7    O39   1.301380 A    
C19   C77   1.516211 S    
N15   O56   1.302183 A    
