data_mof_unit_17895.cif
_audit_creation_date              2013-03-05T16:05:53-0500
_audit_creation_method            fapswitch 2.2
_symmetry_space_group_name_H-M    P1
_symmetry_Int_Tables_number       1
_space_group_crystal_system       triclinic
_cell_length_a                    10.815705
_cell_length_b                    9.510753
_cell_length_c                    19.372814
_cell_angle_alpha                 89.890736
_cell_angle_beta                  90.373732
_cell_angle_gamma                 89.901598
_cell_volume                      1992.74517533

loop_
_atom_site_label
_atom_site_type_symbol
_atom_site_description
_atom_site_fract_x
_atom_site_fract_y
_atom_site_fract_z
_atom_type_partial_charge
O1    O     O_R   0.319640 0.618740 0.500000 -0.596786
O2    O     O_R   0.680360 0.381260 0.500000 -0.606904
O3    O     O_R   0.680360 0.618740 0.500000 -0.601242
O4    O     O_R   0.319640 0.381260 0.500000 -0.609442
C1    C     C_R   0.262058 0.500055 0.500438 0.760651
C2    C     C_R   0.737956 0.499931 0.500460 0.754178
O5    O     O_R   0.499980 0.618820 0.400140 -0.533949
O6    O     O_R   0.500020 0.381180 0.599860 -0.547003
O7    O     O_R   0.500020 0.618820 0.599860 -0.543654
O8    O     O_R   0.499980 0.381180 0.400140 -0.547749
C3    C     C_R   0.500262 0.500049 0.367428 0.859941
C4    C     C_R   0.499249 0.499564 0.632952 0.857219
Cu1   Cu    Cu3+1 0.500000 0.640660 0.500000 0.971881
Cu2   Cu    Cu3+1 0.500000 0.359340 0.500000 0.956064
C5    C     C_R   0.064103 0.372245 0.499549 -0.193918
C6    C     C_R   0.935957 0.627568 0.504372 -0.197465
C7    C     C_R   0.936301 0.372188 0.499552 -0.198425
C8    C     C_R   0.063779 0.627612 0.504520 -0.199342
H1    H     H_    0.112305 0.272424 0.497525 0.140287
H2    H     H_    0.887748 0.727390 0.506232 0.145649
H3    H     H_    0.888353 0.272371 0.497458 0.139486
H4    H     H_    0.111750 0.727442 0.506369 0.148935
C9    C     C_R   0.871783 0.499877 0.501438 -0.005796
C10   C     C_R   0.128267 0.500008 0.501497 -0.007580
C11   C     C_R   0.400762 0.074585 0.475083 -0.019783
C12   C     C_R   0.599880 0.925490 0.523992 -0.003658
C13   C     C_R   0.599365 0.074100 0.524739 0.006621
C14   C     C_R   0.400441 0.925929 0.475631 0.016456
C15   C     C_R   0.443968 0.607368 0.253580 0.313951
C16   C     C_R   0.476828 0.368479 0.745581 0.332668
C17   C     C_R   0.512751 0.622379 0.748345 0.336568
C18   C     C_R   0.565998 0.390020 0.255814 0.334325
C19   C     C_R   0.451956 0.610004 0.181325 0.226706
C20   C     C_R   0.484081 0.364381 0.817943 0.202981
C21   C     C_R   0.499815 0.620397 0.820432 0.196668
C22   C     C_R   0.552930 0.379616 0.183687 0.225079
C23   C     C_R   0.501126 0.493049 0.146109 -0.318347
C24   C     C_R   0.491259 0.490840 0.855277 -0.311361
H5    H     H_    0.321315 0.130218 0.454661 0.117591
H6    H     H_    0.680658 0.869954 0.542521 0.095763
H7    H     H_    0.678912 0.129336 0.544992 0.118702
H8    H     H_    0.320437 0.870476 0.456506 0.110287
N1    N     N_R   0.500000 0.852070 0.500000 -0.152003
N2    N     N_R   0.500000 0.147930 0.500000 -0.159520
C25   C     C_R   0.504066 0.499667 0.291331 -0.354808
C26   C     C_R   0.496348 0.497098 0.709746 -0.365132
N3    N     N_R   0.596257 0.441915 0.033972 -0.159172
N4    N     N_R   0.393671 0.535132 0.966476 -0.158267
N5    N     N_R   0.593602 0.440702 0.965332 -0.164259
N6    N     N_R   0.396070 0.535413 0.035101 -0.154183
C27   C     C_R   0.492419 0.487731 0.930651 0.584944
C28   C     C_R   0.497586 0.489478 0.070083 0.562659
O9    O     O_3   0.381572 0.714569 0.286956 -0.543964
C29   C     C_3   0.257900 0.671885 0.298308 0.113604
H9    H     H_    0.253589 0.604592 0.345265 0.116562
H10   H     H_    0.218773 0.611682 0.253772 0.150319
C30   C     C_3   0.177209 0.802241 0.309064 -0.275920
H11   H     H_    0.209808 0.860601 0.355168 0.193219
H12   H     H_    0.185036 0.873215 0.263704 0.273162
C31   C     C_3   0.041608 0.763241 0.318560 -0.925334
H13   H     H_    0.005532 0.709098 0.271837 0.278777
H14   H     H_    0.986216 0.859993 0.327141 0.265660
H15   H     H_    0.031026 0.693190 0.363926 0.255381
O10   O     O_3   0.455668 0.243592 0.710613 -0.539866
C32   C     C_3   0.329987 0.235535 0.689515 0.101966
H16   H     H_    0.326738 0.173428 0.640992 0.178141
H17   H     H_    0.287980 0.339968 0.677061 0.103103
C33   C     C_3   0.252250 0.159946 0.743877 -0.291660
H18   H     H_    0.296182 0.057696 0.757282 0.289727
H19   H     H_    0.247237 0.225346 0.791193 0.238763
C34   C     C_3   0.121055 0.133546 0.717550 -0.917587
H20   H     H_    0.075522 0.234446 0.703378 0.259271
H21   H     H_    0.066280 0.082173 0.758726 0.282756
H22   H     H_    0.122610 0.063473 0.671744 0.249936
O11   O     O_3   0.538872 0.749396 0.716496 -0.536727
C35   C     C_3   0.666952 0.757164 0.701606 0.094854
H23   H     H_    0.678075 0.836883 0.660395 0.163530
H24   H     H_    0.705032 0.656698 0.680975 0.105113
C36   C     C_3   0.742811 0.805401 0.764346 -0.301914
H25   H     H_    0.701396 0.902632 0.785997 0.295803
H26   H     H_    0.742365 0.722219 0.804636 0.229050
C37   C     C_3   0.876689 0.834826 0.744615 -0.898702
H27   H     H_    0.920150 0.738834 0.722878 0.257203
H28   H     H_    0.929729 0.867123 0.791196 0.285964
H29   H     H_    0.880877 0.920959 0.705884 0.250374
O12   O     O_3   0.627352 0.283333 0.291244 -0.538890
C38   C     C_3   0.738040 0.334372 0.322127 0.105411
H30   H     H_    0.750843 0.277851 0.371904 0.174080
H31   H     H_    0.736160 0.448795 0.334604 0.096391
C39   C     C_3   0.849749 0.303578 0.276422 -0.297550
H32   H     H_    0.851945 0.189853 0.263423 0.267122
H33   H     H_    0.841714 0.365568 0.227906 0.240017
C40   C     C_3   0.970786 0.341701 0.312714 -0.940869
H34   H     H_    0.969234 0.453075 0.329652 0.262734
H35   H     H_    0.049199 0.326813 0.276728 0.273075
H36   H     H_    0.985610 0.272644 0.358303 0.257705
N7    N     N_R   0.413102 0.733398 0.144047 0.184326
O13   O     O_R   0.488963 0.795430 0.101994 -0.239100
O14   O     O_R   0.302650 0.784768 0.152045 -0.310226
N8    N     N_R   0.481861 0.230832 0.852923 0.163612
O15   O     O_R   0.410000 0.210388 0.905606 -0.294662
O16   O     O_R   0.549662 0.127475 0.830741 -0.256866
N9    N     N_R   0.499245 0.751009 0.857773 0.164462
O17   O     O_R   0.569739 0.768660 0.911751 -0.296856
O18   O     O_R   0.431056 0.855074 0.836094 -0.252196
N10   N     N_R   0.584294 0.250380 0.149268 0.182224
O19   O     O_R   0.505440 0.192520 0.107029 -0.250345
O20   O     O_R   0.686153 0.183747 0.163958 -0.300676

loop_
_geom_bond_atom_site_label_1
_geom_bond_atom_site_label_2
_geom_bond_distance
_ccdc_geom_bond_type
C38   H30   1.110890 S    
C40   H34   1.109635 S    
C16   O10   1.387115 S    
C18   C25   1.419848 A    
C35   C36   1.533415 S    
O3    C2    1.289352 A    
N7    O13   1.301354 A    
C30   H11   1.108416 S    
N3    N5    1.329951 A    
O9    C29   1.416933 S    
C11   C14   1.413866 A    
C5    H1    1.083215 S    
C12   C13   1.413490 A    
C7    C9    1.400237 A    
C15   O9    1.385227 S    
C31   H15   1.108474 S    
C8    C10   1.400234 A    
C18   C22   1.407203 A    
C22   C23   1.413301 A    
C35   H24   1.115624 S    
C21   N9    1.438717 S    
C30   H12   1.110822 S    
N10   O19   1.301554 A    
C15   C19   1.403184 A    
C31   H14   1.110533 S    
O7    Cu1   1.945291 S    
C39   H33   1.111376 S    
C13   N2    1.366438 A    
N4    C27   1.354552 A    
C33   H18   1.111196 S    
C32   H17   1.116804 S    
C17   C26   1.418714 A    
N6    C28   1.357631 A    
C19   N7    1.437553 S    
O3    Cu1   1.961473 S    
O6    C4    1.296753 A    
N4    N6    1.329551 A    
C40   H35   1.110404 S    
C20   C24   1.406618 A    
Cu1   Cu2   2.675565 S    
O2    C2    1.290102 A    
C11   N2    1.367018 A    
N7    O14   1.300194 A    
C12   N1    1.366710 A    
C29   H10   1.117712 S    
C16   C20   1.403999 A    
C22   N10   1.440512 S    
C21   C24   1.407321 A    
C35   H23   1.107235 S    
C4    C26   1.488385 S    
O8    Cu2   1.945295 S    
C34   H21   1.109818 S    
C23   C28   1.473535 S    
O12   C38   1.421462 S    
C30   C31   1.525624 S    
C24   C27   1.460425 S    
N5    C27   1.355249 A    
C19   C23   1.411081 A    
C15   C25   1.412530 A    
C31   H13   1.111122 S    
O5    C3    1.296290 A    
O11   C35   1.418849 S    
C36   C37   1.526203 S    
C13   H7    1.080779 S    
C17   O11   1.385813 S    
C6    H2    1.083136 S    
C32   C33   1.530880 S    
C18   O12   1.389279 S    
N8    O16   1.300756 A    
N9    O18   1.300677 A    
C33   H19   1.110306 S    
C5    C10   1.400824 A    
C32   H16   1.111556 S    
C40   H36   1.110253 S    
C37   H28   1.110257 S    
C38   H31   1.115399 S    
O1    C1    1.290165 A    
C3    C25   1.475057 S    
O1    Cu1   1.962186 S    
Cu1   N1    2.010668 S    
C39   C40   1.526474 S    
Cu2   N2    2.010669 S    
C5    C7    1.382269 A    
C29   H9    1.112555 S    
O6    Cu2   1.946079 S    
C8    H4    1.083296 S    
C16   C26   1.422132 A    
O4    C1    1.289241 A    
C34   H22   1.111009 S    
N3    C28   1.357282 A    
C6    C9    1.400891 A    
C37   H29   1.111010 S    
C14   N1    1.365771 A    
C36   H26   1.110334 S    
O10   C32   1.419126 S    
C34   H20   1.111037 S    
C11   H5    1.080761 S    
C12   H6    1.079234 S    
C39   H32   1.111253 S    
C1    C10   1.447326 S    
N10   O20   1.299653 A    
C33   C34   1.526080 S    
C2    C9    1.447430 S    
C14   H8    1.078095 S    
N8    O15   1.301402 A    
C17   C21   1.404513 A    
O4    Cu2   1.961474 S    
O2    Cu2   1.962185 S    
O7    C4    1.301859 A    
C7    H3    1.083230 S    
O8    C3    1.295002 A    
C36   H25   1.110956 S    
O5    Cu1   1.946083 S    
C6    C8    1.382464 A    
C37   H27   1.111017 S    
C38   C39   1.530788 S    
N9    O17   1.301414 A    
C20   N8    1.438783 S    
C29   C30   1.530289 S    
