data_mof_unit_35083.cif
_audit_creation_date              2012-12-10T18:33:44-0500
_audit_creation_method            fapswitch 2.2
_symmetry_space_group_name_H-M    P1
_symmetry_Int_Tables_number       1
_space_group_crystal_system       triclinic
_cell_length_a                    10.496652
_cell_length_b                    15.08565
_cell_length_c                    15.408031
_cell_angle_alpha                 82.044368
_cell_angle_beta                  90.362701
_cell_angle_gamma                 103.952341
_cell_volume                      2344.14221793

loop_
_atom_site_label
_atom_site_type_symbol
_atom_type_description
_atom_site_fract_x
_atom_site_fract_y
_atom_site_fract_z
_atom_type_partial_charge
C1    C     C_R   0.484795 0.442135 0.662200 0.861160
C2    C     C_R   0.591561 0.484415 0.046694 0.049534
C3    C     C_R   0.569237 0.389320 0.078939 -0.271569
C4    C     C_R   0.661582 0.606980 0.924677 -0.269051
C5    C     C_R   0.543070 0.322752 0.022602 -0.018125
C6    C     C_R   0.683756 0.673520 0.981189 -0.013989
C7    C     C_R   0.719070 0.847013 0.620058 -0.302092
C8    C     C_R   0.280566 0.152857 0.380366 -0.303691
C9    C     C_R   0.672527 0.755389 0.608794 -0.009221
C10   C     C_R   0.326567 0.244407 0.391937 -0.009995
C11   C     C_R   0.511482 0.793233 0.510459 0.048360
C12   C     C_R   0.521639 0.557944 0.337794 0.862949
C13   C     C_R   0.489848 0.207061 0.488570 0.049711
C14   C     C_R   0.543080 0.885485 0.528776 -0.044788
C15   C     C_R   0.458248 0.114766 0.470213 -0.044961
C16   C     C_R   0.742200 0.500443 0.500142 0.861449
C17   C     C_R   0.257790 0.499567 0.499832 0.864779
C18   C     C_R   0.657553 0.912805 0.577555 0.169452
C19   C     C_R   0.343190 0.087286 0.421970 0.172153
C20   C     C_R   0.472256 0.952662 0.497081 0.081189
C21   C     C_R   0.529384 0.047609 0.501549 0.080892
C22   C     C_R   0.657121 0.072098 0.534285 -0.227114
C23   C     C_R   0.541122 0.472679 0.811356 -0.255474
C24   C     C_R   0.344619 0.928036 0.464272 -0.226109
C25   C     C_R   0.715091 0.005969 0.577829 -0.196985
C26   C     C_R   0.286113 0.994118 0.421306 -0.195812
C27   C     C_3   0.929695 0.417989 0.482108 -0.125742
C28   C     C_3   0.070245 0.582035 0.517833 -0.127667
C29   C     C_3   0.018801 0.432240 0.561513 -0.172605
C30   C     C_3   0.981130 0.567780 0.438428 -0.173345
C31   C     C_3   0.122296 0.499548 0.499821 0.022872
C32   C     C_3   0.877658 0.500472 0.500124 0.025564
C33   C     C_3   0.035871 0.485517 0.420461 -0.181020
C34   C     C_R   0.547084 0.527237 0.188138 -0.249525
C35   C     C_3   0.964064 0.514504 0.579484 -0.179469
C36   C     C_R   0.495967 0.408076 0.754857 -0.060609
C37   C     C_R   0.556207 0.592116 0.245334 -0.060262
C38   C     C_R   0.489680 0.284953 0.874482 -0.190400
C39   C     C_R   0.653373 0.713173 0.128061 -0.191811
C40   C     C_R   0.471636 0.313838 0.786355 -0.175887
C41   C     C_R   0.610226 0.685520 0.215290 -0.185183
C42   C     C_1   0.571367 0.235482 0.560346 0.210557
C43   C     C_1   0.432325 0.765392 0.437466 0.214924
C44   C     C_1   0.520084 0.226762 0.060218 0.148189
C45   C     C_R   0.564233 0.445805 0.899144 0.088167
C46   C     C_1   0.739540 0.768594 0.944740 0.145755
C47   C     C_R   0.597555 0.552206 0.102428 0.087181
C48   C     C_R   0.533108 0.350175 0.932314 0.111328
C49   C     C_R   0.646085 0.647280 0.070289 0.111369
C50   C     C_R   0.606875 0.512697 0.955823 0.051677
H1    H     H_    0.038695 0.377023 0.611386 0.140670
H2    H     H_    0.131193 0.649174 0.532338 0.146105
H3    H     H_    0.069718 0.473556 0.355923 0.137656
H4    H     H_    0.930134 0.526443 0.644012 0.138128
H5    H     H_    0.496847 0.456666 0.210934 0.162285
H6    H     H_    0.552958 0.544658 0.786600 0.163766
H7    H     H_    0.619561 0.736962 0.259015 0.166891
H8    H     H_    0.437583 0.262552 0.743294 0.167299
H9    H     H_    0.467062 0.211554 0.897184 0.154118
H10   H     H_    0.692054 0.786101 0.106310 0.154938
H11   H     H_    0.574802 0.365519 0.148053 0.155420
H12   H     H_    0.961153 0.622967 0.388549 0.141442
H13   H     H_    0.691132 0.630036 0.856577 0.146116
H14   H     H_    0.809213 0.027916 0.607665 0.148620
H15   H     H_    0.191864 0.972079 0.391653 0.146693
H16   H     H_    0.277702 0.295777 0.361609 0.139684
H17   H     H_    0.720451 0.703799 0.639874 0.135786
H18   H     H_    0.804383 0.866639 0.659542 0.153777
H19   H     H_    0.194700 0.133073 0.341411 0.149530
H20   H     H_    0.715765 0.142069 0.525739 0.149040
H21   H     H_    0.286417 0.857927 0.472416 0.148007
H22   H     H_    0.868758 0.350858 0.467577 0.146071
N1    N     N_R   0.574200 0.731700 0.552740 -0.118662
N2    N     N_R   0.425800 0.268300 0.447260 -0.119436
N3    N     N_1   0.636966 0.257778 0.618055 -0.222559
N4    N     N_1   0.368889 0.743623 0.378664 -0.220064
N5    N     N_1   0.501698 0.149989 0.090430 -0.199308
N6    N     N_1   0.784155 0.844639 0.915441 -0.206916
O1    O     O_R   0.462600 0.383110 0.605620 -0.608376
O2    O     O_R   0.537400 0.616890 0.394380 -0.607967
O3    O     O_R   0.510210 0.531900 0.639510 -0.623595
O4    O     O_R   0.489790 0.468100 0.360490 -0.624969
O5    O     O_R   0.662240 0.425610 0.483080 -0.618069
O6    O     O_R   0.337760 0.574390 0.516920 -0.616840
O7    O     O_R   0.709860 0.574400 0.516970 -0.626732
O8    O     O_R   0.290140 0.425600 0.483030 -0.624843
Zn1   Zn    Zn3+2 0.468210 0.400660 0.477370 0.944407
Zn2   Zn    Zn3+2 0.531790 0.599340 0.522630 0.945181

loop_
_geom_bond_atom_site_label_1
_geom_bond_atom_site_label_2
_ccdc_geom_bond_type
O5    Zn1   S    
C23   C45   A    
C27   C29   S    
C34   C37   A    
C28   H2    S    
C14   C18   A    
O1    Zn1   S    
C23   H6    S    
C39   C41   A    
C27   C33   S    
C15   C19   A    
C4    H13   S    
C42   N3    T    
C44   N5    T    
C24   C26   A    
C11   C14   A    
C45   C48   A    
C1    O3    A    
O4    Zn1   S    
C12   C37   S    
C19   C26   A    
C2    C50   A    
C7    H18   S    
C20   C24   A    
C28   C35   S    
C22   C25   A    
C31   C33   S    
C11   C43   S    
N2    Zn1   S    
C30   C32   S    
C38   C48   A    
C3    H11   S    
C34   H5    S    
C21   C22   A    
O2    Zn2   S    
C35   H4    S    
C18   C25   A    
C9    N1    A    
C47   C49   A    
C13   C42   S    
C10   H16   S    
C33   H3    S    
C5    C48   A    
C8    C19   A    
C40   H8    S    
C17   O8    A    
C32   C35   S    
C14   C20   A    
C36   C40   A    
C4    C6    A    
C11   N1    A    
C46   N6    T    
O8    Zn1   S    
C16   O5    A    
C4    C50   A    
C25   H14   S    
C9    H17   S    
N1    Zn2   S    
C7    C18   A    
C8    H19   S    
C12   O4    A    
C13   N2    A    
C39   C49   A    
C5    C44   S    
C13   C15   A    
C16   O7    A    
C1    O1    A    
C29   H1    S    
O7    Zn2   S    
C43   N4    T    
C7    C9    A    
C6    C46   S    
C30   C33   S    
C27   C32   S    
C26   H15   S    
C28   C31   S    
O6    Zn2   S    
C3    C5    A    
C2    C47   A    
C16   C32   S    
C29   C35   S    
C17   O6    A    
C30   H12   S    
C2    C3    A    
C41   H7    S    
C29   C31   S    
C38   C40   A    
C10   N2    A    
C45   C50   A    
C17   C31   S    
C39   H10   S    
C12   O2    A    
C28   C30   S    
C6    C49   A    
C37   C41   A    
O3    Zn2   S    
C38   H9    S    
C15   C21   A    
C20   C21   A    
C24   H21   S    
C8    C10   A    
C23   C36   A    
C34   C47   A    
C22   H20   S    
C27   H22   S    
C1    C36   S    
