data_mof_unit_44664.cif
_audit_creation_date              2012-12-10T17:29:19-0500
_audit_creation_method            fapswitch 2.2
_symmetry_space_group_name_H-M    P1
_symmetry_Int_Tables_number       1
_space_group_crystal_system       triclinic
_cell_length_a                    12.027465
_cell_length_b                    12.97285
_cell_length_c                    13.131591
_cell_angle_alpha                 86.97335
_cell_angle_beta                  114.596464
_cell_angle_gamma                 92.84515
_cell_volume                      1859.55043446

loop_
_atom_site_label
_atom_site_type_symbol
_atom_type_description
_atom_site_fract_x
_atom_site_fract_y
_atom_site_fract_z
_atom_type_partial_charge
C1    C     C_R   0.476816 0.299930 0.495452 0.888321
C2    C     C_R   0.550036 0.496155 0.986282 0.085257
C3    C     C_R   0.540467 0.536073 0.880901 0.078303
C4    C     C_R   0.464803 0.527233 0.026226 0.084810
C5    C     C_R   0.380526 0.605387 0.967475 0.177438
C6    C     C_R   0.381350 0.651336 0.869483 -0.260060
C7    C     C_R   0.460950 0.617805 0.827086 -0.215928
C8    C     C_R   0.461025 0.482483 0.123479 -0.263873
C9    C     C_R   0.305905 0.599235 0.113066 -0.217804
C10   C     C_R   0.607477 0.490274 0.829793 -0.135008
C11   C     C_R   0.524862 0.814105 0.473351 -0.177720
C12   C     C_R   0.567392 0.498967 0.708961 0.868462
C13   C     C_R   0.458109 0.190648 0.479216 -0.051420
C14   C     C_R   0.333812 0.037151 0.454616 -0.212907
C15   C     C_R   0.349422 0.141718 0.470146 -0.212847
C16   C     C_R   0.548859 0.135901 0.468159 -0.276008
C17   C     C_R   0.537457 0.029466 0.457052 0.082262
C18   C     C_R   0.428580 0.978695 0.451707 0.123486
C19   C     C_R   0.416302 0.871323 0.444476 -0.005468
C20   C     C_R   0.635951 0.866217 0.479069 0.032506
C21   C     C_R   0.634443 0.973713 0.455205 0.058912
C22   C     C_R   0.990117 0.562340 0.361187 0.007890
C23   C     C_R   0.519425 0.701413 0.494117 0.880094
C24   C     C_R   0.116141 0.558676 0.381707 -0.012967
C25   C     C_R   0.167603 0.481103 0.561193 -0.061908
C26   C     C_R   0.044361 0.481919 0.545585 0.055970
C27   C     C_R   0.953433 0.522932 0.446211 0.038362
C28   C     C_R   0.829580 0.521957 0.436174 -0.117364
C29   C     C_R   0.889995 0.440128 0.616099 0.137724
C30   C     C_R   0.011583 0.440436 0.628438 -0.346072
C31   C     C_R   0.432184 0.505727 0.290995 0.869726
C32   C     C_R   0.298759 0.638335 0.009586 -0.205754
C33   C     C_R   0.391053 0.523941 0.171383 -0.053283
C34   C     C_R   0.691962 0.415542 0.888298 -0.187204
C35   C     C_R   0.714811 0.387129 0.998054 -0.143904
C36   C     C_R   0.643855 0.425860 0.046845 -0.216688
H1    H     H_    0.251207 0.632157 0.150400 0.134255
H2    H     H_    0.248211 0.003708 0.449615 0.164013
H3    H     H_    0.276665 0.183863 0.475683 0.162891
H4    H     H_    0.630588 0.176974 0.472560 0.172352
H5    H     H_    0.758478 0.555786 0.362395 0.142546
H6    H     H_    0.081695 0.406867 0.704025 0.160230
H7    H     H_    0.147515 0.586075 0.318985 0.123944
H8    H     H_    0.319812 0.712864 0.825074 0.147012
H9    H     H_    0.236069 0.447609 0.637409 0.148524
H10   H     H_    0.234361 0.698117 0.965647 0.133508
H11   H     H_    0.517671 0.419045 0.168686 0.140523
H12   H     H_    0.732676 0.373945 0.845203 0.191238
H13   H     H_    0.665148 0.399273 0.131814 0.128143
H14   H     H_    0.782654 0.330288 0.043222 0.143281
H15   H     H_    0.459438 0.656368 0.751391 0.159466
N1    N     N_R   0.798200 0.480260 0.519790 -0.111479
N2    N     N_R   0.201820 0.519740 0.480210 -0.119984
O1    O     O_R   0.579910 0.341070 0.505280 -0.635225
O2    O     O_R   0.388440 0.353740 0.492580 -0.612655
O3    O     O_R   0.643280 0.490550 0.663120 -0.605166
O4    O     O_R   0.451810 0.503220 0.650420 -0.615347
O5    O     O_R   0.611560 0.646260 0.507420 -0.615822
O6    O     O_R   0.420090 0.658930 0.494720 -0.632116
O7    O     O_R   0.548190 0.496780 0.349580 -0.620916
O8    O     O_R   0.356720 0.509450 0.336880 -0.629579
Zn1   Zn    Zn3+2 0.627850 0.491540 0.508480 0.929028
Zn2   Zn    Zn3+2 0.372150 0.508460 0.491520 0.919435
C37   C     C_3   0.758041 0.811473 0.517480 -0.358322
C38   C     C_3   0.814194 0.789725 0.645103 -0.307570
C39   C     C_3   0.934888 0.734397 0.684484 -0.900488
H16   H     H_    0.921582 0.661581 0.639691 0.278518
H17   H     H_    0.004099 0.784743 0.669123 0.248795
H18   H     H_    0.969782 0.715612 0.775780 0.240208
H19   H     H_    0.831553 0.864165 0.688251 0.202592
H20   H     H_    0.750749 0.742239 0.671350 0.230515
H21   H     H_    0.749611 0.742317 0.468637 0.216319
H22   H     H_    0.827709 0.856518 0.499067 0.183916
C40   C     C_3   0.733737 0.029429 0.426566 -0.420539
C41   C     C_3   0.843774 0.067399 0.531407 -0.349749
C42   C     C_3   0.912138 0.158615 0.502643 -0.887721
H23   H     H_    0.947187 0.135821 0.441308 0.259686
H24   H     H_    0.850816 0.224830 0.466747 0.259925
H25   H     H_    0.990781 0.183694 0.579804 0.256350
H26   H     H_    0.812939 0.090371 0.595327 0.215840
H27   H     H_    0.909461 0.004872 0.570746 0.221321
H28   H     H_    0.764565 0.980187 0.377237 0.181727
H29   H     H_    0.693069 0.094882 0.366255 0.201243
C43   C     C_R   0.871226 0.390148 0.711413 0.171465
C44   C     C_R   0.941137 0.427441 0.819417 -0.190027
C45   C     C_R   0.968667 0.362207 0.914584 -0.148836
C46   C     C_R   0.923794 0.259972 0.903261 -0.138448
C47   C     C_R   0.850085 0.223577 0.796957 -0.189386
C48   C     C_R   0.824886 0.288214 0.701700 -0.138112
H30   H     H_    0.982375 0.504534 0.829118 0.137992
H31   H     H_    0.025465 0.390668 0.996802 0.142429
H32   H     H_    0.945050 0.209431 0.976758 0.130386
H33   H     H_    0.815798 0.144320 0.788048 0.134435
H34   H     H_    0.778004 0.256564 0.620156 0.147326
C49   C     C_3   0.895264 0.606472 0.251016 -0.444681
C50   C     C_3   0.943207 0.642394 0.162598 -0.360968
C51   C     C_3   0.841288 0.686527 0.056897 -0.858616
H35   H     H_    0.768359 0.626908 0.018901 0.280965
H36   H     H_    0.801543 0.754005 0.076869 0.256182
H37   H     H_    0.878688 0.711826 0.994958 0.240394
H38   H     H_    0.015656 0.703647 0.196452 0.208155
H39   H     H_    0.981769 0.575962 0.139310 0.222595
H40   H     H_    0.822603 0.546207 0.213652 0.215281
H41   H     H_    0.853139 0.673085 0.269956 0.200415
C52   C     C_3   0.285997 0.822927 0.401081 -0.360987
C53   C     C_3   0.240117 0.802961 0.494970 -0.298155
C54   C     C_3   0.102395 0.817230 0.451968 -0.950987
H42   H     H_    0.080260 0.900068 0.434230 0.253677
H43   H     H_    0.052362 0.774948 0.374119 0.275529
H44   H     H_    0.070283 0.787066 0.516040 0.256992
H45   H     H_    0.259459 0.723347 0.530823 0.252561
H46   H     H_    0.288063 0.855248 0.565576 0.209415
H47   H     H_    0.223272 0.875145 0.334084 0.182903
H48   H     H_    0.276084 0.752647 0.353166 0.190101

loop_
_geom_bond_atom_site_label_1
_geom_bond_atom_site_label_2
_ccdc_geom_bond_type
O5    Zn1   S    
C23   O5    A    
C39   H17   S    
C46   C47   A    
C50   H39   S    
C28   N1    A    
C22   C49   S    
C14   C18   A    
C49   C50   S    
C42   H25   S    
C40   H29   S    
C4    C8    A    
C51   H35   S    
C53   H46   S    
C44   C45   A    
C23   O6    A    
C11   C19   A    
C26   C27   A    
C52   H47   S    
C42   H24   S    
C18   C19   A    
C3    C7    A    
C45   H31   S    
C5    C6    A    
C39   H18   S    
C53   C54   S    
C38   H19   S    
C28   H5    S    
O7    Zn1   S    
C34   C35   A    
C48   H34   S    
O8    Zn2   S    
C31   O8    A    
C9    C32   A    
C35   C36   A    
C16   C17   A    
O2    Zn2   S    
C37   H22   S    
C31   C33   S    
C41   H26   S    
C5    C32   A    
C39   H16   S    
C6    H8    S    
C50   H38   S    
C9    C33   A    
C54   H43   S    
C40   H28   S    
C51   H36   S    
C49   H40   S    
O4    Zn2   S    
C53   H45   S    
C11   C20   A    
C40   C41   S    
C52   H48   S    
C42   H23   S    
C29   C43   S    
C45   C46   A    
C41   H27   S    
O1    Zn1   S    
C25   C26   A    
C38   H20   S    
C21   C40   S    
C17   C21   A    
C31   O7    A    
C20   C37   S    
C2    C4    A    
C41   C42   S    
C29   C30   A    
C14   H2    S    
C54   H42   S    
C50   C51   S    
C20   C21   A    
C35   H14   S    
C9    H1    S    
C17   C18   A    
C10   C34   A    
C43   C44   A    
C15   H3    S    
C12   O3    A    
C10   C12   S    
C16   H4    S    
C1    O1    A    
C12   O4    A    
C19   C52   S    
C26   C30   A    
C22   C27   A    
C13   C15   A    
C54   H44   S    
C22   C24   A    
C1    C13   S    
C43   C48   A    
C25   H9    S    
C51   H37   S    
C49   H41   S    
C2    C36   A    
C47   H33   S    
C32   H10   S    
C25   N2    A    
C4    C5    A    
C44   H30   S    
C6    C7    A    
C52   C53   S    
O6    Zn2   S    
C37   C38   S    
C2    C3    A    
C24   N2    A    
C8    H11   S    
C7    H15   S    
C3    C10   A    
N1    Zn1   S    
N2    Zn2   S    
C11   C23   S    
O3    Zn1   S    
C8    C33   A    
C37   H21   S    
C1    O2    A    
C34   H12   S    
C47   C48   A    
C38   C39   S    
C13   C16   A    
C27   C28   A    
C24   H7    S    
C14   C15   A    
C30   H6    S    
C46   H32   S    
C36   H13   S    
C29   N1    A    
