data_mof_unit_19541.cif
_audit_creation_date              2013-03-05T15:44:32-0500
_audit_creation_method            fapswitch 2.2
_symmetry_space_group_name_H-M    P1
_symmetry_Int_Tables_number       1
_space_group_crystal_system       triclinic
_cell_length_a                    27.737708
_cell_length_b                    10.945178
_cell_length_c                    9.710677
_cell_angle_alpha                 89.801745
_cell_angle_beta                  90.955238
_cell_angle_gamma                 90.893947
_cell_volume                      2947.32115505

loop_
_atom_site_label
_atom_site_type_symbol
_atom_site_description
_atom_site_fract_x
_atom_site_fract_y
_atom_site_fract_z
_atom_type_partial_charge
O1    O     O_R   0.500010 0.321960 0.617040 -0.571851
O2    O     O_R   0.499990 0.321920 0.382900 -0.585576
C1    C     C_R   0.499837 0.265742 0.500456 0.865143
O3    O     O_R   0.430270 0.500040 0.617060 -0.574609
O4    O     O_R   0.430260 0.500000 0.382910 -0.559663
C2    C     C_R   0.407637 0.499548 0.499050 0.812853
Cu1   Cu    Cu3+1 0.500010 0.500020 0.638630 0.992452
Cu2   Cu    Cu3+1 0.499990 0.499980 0.361370 0.982026
O5    O     O_R   0.500010 0.678080 0.617100 -0.544045
O6    O     O_R   0.499990 0.678040 0.382960 -0.553894
O7    O     O_R   0.569740 0.500000 0.617090 -0.571145
O8    O     O_R   0.569730 0.499960 0.382940 -0.586279
C3    C     C_R   0.501301 0.734692 0.499532 0.835021
C4    C     C_R   0.592583 0.500800 0.501008 0.812278
C5    C     C_R   0.177465 0.448856 0.403311 0.514848
O9    O     O_2   0.201146 0.360433 0.336875 -0.572038
N1    N     N_R   0.202873 0.539726 0.470066 -0.459629
C6    C     C_R   0.179997 0.632061 0.536061 0.553835
C7    C     C_R   0.284425 0.612480 0.403188 0.019136
C8    C     C_R   0.334399 0.599003 0.413183 -0.275857
C9    C     C_R   0.324913 0.428283 0.572671 -0.036640
C10   C     C_R   0.274873 0.442707 0.563129 -0.166399
C11   C     C_R   0.254462 0.532598 0.478595 0.307469
C12   C     C_R   0.102657 0.538876 0.474982 -0.050203
C13   C     C_R   0.126935 0.446771 0.404353 -0.018036
C14   C     C_R   0.100255 0.355495 0.335657 -0.140111
C15   C     C_R   0.129399 0.634013 0.538645 -0.024074
C16   C     C_R   0.354950 0.507547 0.495676 -0.066564
H1    H     H_    0.251110 0.381218 0.618801 0.148737
H2    H     H_    0.117854 0.287100 0.274671 0.184066
C17   C     C_R   0.645738 0.503682 0.503127 -0.062268
C18   C     C_R   0.975218 0.422710 0.451266 -0.029721
C19   C     C_R   0.975981 0.634347 0.537459 0.039578
C20   C     C_R   0.950137 0.528056 0.494251 0.061693
C21   C     C_R   0.948668 0.311091 0.432929 -0.029294
C22   C     C_R   0.898439 0.313418 0.425985 -0.200622
C23   C     C_R   0.873412 0.419397 0.456648 -0.036961
C24   C     C_R   0.898958 0.526470 0.495402 -0.043406
C25   C     C_R   0.873278 0.631365 0.534936 -0.060070
C26   C     C_R   0.822349 0.621719 0.542887 0.571396
N2    N     N_R   0.798706 0.517129 0.502132 -0.443790
C27   C     C_R   0.822945 0.418012 0.456975 0.577343
C28   C     C_R   0.722295 0.488524 0.630361 0.010719
C29   C     C_R   0.671616 0.486409 0.627113 -0.237817
C30   C     C_R   0.670932 0.524284 0.381068 -0.183380
C31   C     C_R   0.721050 0.528418 0.382846 -0.120122
C32   C     C_R   0.747018 0.511057 0.505983 0.289598
O10   O     O_2   0.798097 0.317590 0.414742 -0.572152
C33   C     C_R   0.025539 0.433890 0.427908 0.053441
C34   C     C_R   0.051643 0.535335 0.482461 0.071914
C35   C     C_R   0.027179 0.633339 0.543559 0.048202
C36   C     C_R   0.050306 0.350470 0.345270 -0.144901
H3    H     H_    0.652148 0.469193 0.721159 0.203871
H4    H     H_    0.878646 0.229243 0.405797 0.208478
H5    H     H_    0.031349 0.281639 0.285013 0.147790
O11   O     O_2   0.206123 0.720396 0.600681 -0.548485
C37   C     C_R   0.105121 0.727035 0.605836 -0.145103
H6    H     H_    0.357493 0.658739 0.353521 0.205119
H7    H     H_    0.124827 0.800366 0.657404 0.185876
C38   C     C_R   0.949902 0.739622 0.569580 -0.247718
C39   C     C_R   0.899520 0.740233 0.566975 0.004183
O12   O     O_2   0.796447 0.713924 0.593798 -0.530913
C40   C     C_R   0.054938 0.727330 0.607646 -0.202190
H8    H     H_    0.968132 0.825639 0.590284 0.147625
H9    H     H_    0.651939 0.538312 0.284094 0.172620
H10   H     H_    0.739991 0.545405 0.287863 0.147870
H11   H     H_    0.038811 0.800395 0.664184 0.150736
C41   C     C_2   0.491779 0.937070 0.394951 -0.060429
C42   C     C_2   0.511160 0.865736 0.496532 -0.246393
C43   C     C_2   0.502116 0.068122 0.390409 -0.147472
C44   C     C_2   0.496567 0.134524 0.503580 -0.326387
H12   H     H_    0.509909 0.110689 0.292092 0.194540
H13   H     H_    0.487983 0.091351 0.601201 0.153877
C45   C     C_2   0.471688 0.430741 0.920138 -0.092894
N3    N     N_2   0.499480 0.498660 0.846910 -0.282221
H14   H     H_    0.448024 0.365599 0.867200 0.173838
H15   H     H_    0.518833 0.567238 0.895554 0.215425
C46   C     C_2   0.467293 0.443425 0.073738 0.056916
N4    N     N_2   0.499460 0.498630 0.153040 -0.291504
H16   H     H_    0.530688 0.529051 0.107895 0.197293
C47   C     C_R   0.343446 0.323559 0.654480 0.116716
C48   C     C_R   0.327014 0.302686 0.788952 -0.151198
C49   C     C_R   0.338984 0.195451 0.859326 -0.127252
C50   C     C_R   0.367644 0.108511 0.797079 -0.095556
C51   C     C_R   0.384159 0.128319 0.663790 -0.142573
C52   C     C_R   0.372572 0.235737 0.593161 -0.141775
H17   H     H_    0.303987 0.368040 0.838010 0.133113
H18   H     H_    0.324963 0.178059 0.960675 0.149474
H19   H     H_    0.376354 0.024895 0.851224 0.138014
H20   H     H_    0.404869 0.058829 0.613948 0.135388
H21   H     H_    0.384960 0.248274 0.489251 0.126277
C53   C     C_R   0.264726 0.709047 0.311976 0.121478
C54   C     C_R   0.280605 0.830904 0.327861 -0.085099
C55   C     C_R   0.262993 0.922121 0.240286 -0.132590
C56   C     C_R   0.229601 0.892491 0.135900 -0.095115
C57   C     C_R   0.213910 0.771472 0.118597 -0.119876
C58   C     C_R   0.231491 0.679903 0.205822 -0.169978
H22   H     H_    0.306460 0.855303 0.408376 0.147623
H23   H     H_    0.275284 0.015733 0.253279 0.128874
H24   H     H_    0.216057 0.963202 0.068053 0.136975
H25   H     H_    0.188353 0.748456 0.036953 0.145928
H26   H     H_    0.219792 0.586314 0.188970 0.149486
C59   C     C_R   0.876331 0.859199 0.591000 0.160856
C60   C     C_R   0.849603 0.915619 0.485053 -0.055918
C61   C     C_R   0.827424 0.027245 0.508341 -0.098181
C62   C     C_R   0.832911 0.085032 0.635939 -0.089644
C63   C     C_R   0.860472 0.030936 0.740647 -0.119577
C64   C     C_R   0.882152 0.918354 0.718478 -0.119437
H27   H     H_    0.845440 0.872206 0.385401 0.126871
H28   H     H_    0.806184 0.069145 0.427098 0.179888
H29   H     H_    0.815967 0.171878 0.653562 0.181586
H30   H     H_    0.864884 0.076024 0.839174 0.152739
H31   H     H_    0.903184 0.876895 0.800649 0.135419
C65   C     C_2   0.454614 0.893856 0.293224 0.856258
O13   O     O_2   0.423004 0.821498 0.327641 -0.643236
O14   O     O_R   0.454364 0.941838 0.159481 -0.773397
H32   H     H_    0.426739 0.908165 0.100579 0.326116
C66   C     C_2   0.550207 0.910687 0.592460 0.844808
O15   O     O_2   0.551725 0.874658 0.711794 -0.569263
O16   O     O_R   0.585967 0.991229 0.545095 -0.734352
H33   H     H_    0.610415 0.014414 0.619648 0.342865
C67   C     C_R   0.422870 0.388496 0.129578 0.183080
C68   C     C_R   0.379733 0.454049 0.123740 -0.134274
C69   C     C_R   0.336649 0.399377 0.167125 -0.128999
C70   C     C_R   0.336326 0.279114 0.215769 -0.142383
C71   C     C_R   0.378666 0.211473 0.215135 -0.208871
C72   C     C_R   0.421659 0.265543 0.170343 -0.108426
H34   H     H_    0.379562 0.547361 0.086229 0.134660
H35   H     H_    0.303540 0.450349 0.163450 0.152289
H36   H     H_    0.303054 0.237529 0.250721 0.163034
H37   H     H_    0.378082 0.117011 0.248528 0.157101
H38   H     H_    0.453760 0.211461 0.165030 0.153673
C73   C     C_2   0.747920 0.465634 0.763883 0.869466
O17   O     O_2   0.790843 0.441833 0.767224 -0.600922
O18   O     O_R   0.722527 0.469599 0.887051 -0.766157
H39   H     H_    0.743649 0.452223 0.970865 0.340456
C74   C     C_2   0.970621 0.188210 0.444102 0.819674
O19   O     O_2   0.005185 0.171920 0.521523 -0.585663
O20   O     O_R   0.950267 0.089664 0.371140 -0.776892
H40   H     H_    0.967615 0.010317 0.389948 0.331445

loop_
_geom_bond_atom_site_label_1
_geom_bond_atom_site_label_2
_geom_bond_distance
_ccdc_geom_bond_type
C61   H28   1.081774 S    
C54   C55   1.397904 A    
C10   H1    1.084058 S    
N2    C27   1.362747 A    
C1    C44   1.437892 S    
C56   C57   1.397590 A    
C12   C15   1.407748 A    
C4    C17   1.474051 S    
C65   O13   1.222271 D    
C68   C69   1.398733 A    
C51   C52   1.398157 A    
Cu1   O7    1.948892 S    
C74   O20   1.398961 S    
C71   C72   1.398230 A    
C70   C71   1.398133 A    
C45   H14   1.086346 S    
C71   H37   1.082451 S    
C22   C23   1.396584 A    
C39   C59   1.482164 S    
C31   H10   1.083170 S    
C52   H21   1.078963 S    
O4    C2    1.299696 A    
O7    C4    1.302215 A    
C5    C13   1.401615 A    
C62   C63   1.397452 A    
C48   H17   1.083215 S    
C42   C66   1.495257 S    
C23   C27   1.399758 A    
C26   O12   1.347965 S    
O14   H32   1.013996 S    
N1    C6    1.368474 A    
C63   H30   1.082310 S    
C67   C72   1.401495 A    
C28   C73   1.490542 S    
O5    C3    1.297843 A    
C72   H38   1.078905 S    
C7    C53   1.481765 S    
C66   O15   1.223047 D    
C29   H3    1.083134 S    
C2    C16   1.465201 S    
C21   C22   1.394368 A    
C41   C42   1.364437 D    
Cu2   N4    2.022937 S    
C63   C64   1.398453 A    
C59   C64   1.404735 A    
C45   C46   1.505628 S    
C58   H26   1.081855 S    
C36   H5    1.080216 S    
C6    O11   1.349405 S    
O18   H39   1.014076 S    
C49   H18   1.079457 S    
C22   H4    1.081912 S    
O1    Cu1   1.960864 S    
C9    C10   1.400904 A    
O3    Cu1   1.942266 S    
C70   H36   1.081843 S    
C60   C61   1.397254 A    
C53   C58   1.405543 A    
C37   C40   1.392411 A    
C62   H29   1.082354 S    
C10   C11   1.399519 A    
C12   C34   1.418003 A    
C25   C39   1.419305 A    
O20   H40   1.013975 S    
C40   H11   1.078635 S    
C17   C29   1.405132 A    
C18   C21   1.426770 A    
Cu1   Cu2   2.692375 S    
C35   C40   1.414996 A    
C12   C13   1.407663 A    
C56   H24   1.082366 S    
O3    C2    1.297428 A    
C15   C37   1.398734 A    
C25   C26   1.418323 A    
C44   H13   1.086071 S    
C46   N4    1.310596 D    
Cu1   N3    2.022839 S    
C8    C16   1.402027 A    
C34   C35   1.415502 A    
C13   C14   1.398512 A    
C30   C31   1.389996 A    
C48   C49   1.397805 A    
C47   C48   1.406986 A    
C38   C39   1.397420 A    
O1    C1    1.290290 A    
C18   C20   1.423285 A    
C64   H31   1.083127 S    
C27   O10   1.349590 S    
C7    C11   1.408751 A    
C28   C29   1.405379 A    
C23   C24   1.409049 A    
C14   C36   1.390368 A    
C49   C50   1.395151 A    
Cu2   O8    1.942261 S    
C33   C36   1.411587 A    
C57   C58   1.398327 A    
C19   C20   1.417984 A    
N2    C32   1.435312 S    
N1    C11   1.435305 S    
C50   C51   1.395296 A    
N3    H15   1.027681 S    
C43   C44   1.332022 D    
C41   C43   1.459036 S    
C26   N2    1.366834 A    
C9    C16   1.414050 A    
C9    C47   1.485827 S    
C14   H2    1.083299 S    
C19   C38   1.408642 A    
C30   H9    1.083003 S    
C73   O17   1.222601 D    
C50   H19   1.082462 S    
C8    H6    1.081724 S    
O16   H33   1.013850 S    
C61   C62   1.398075 A    
C5    N1    1.368747 A    
C31   C32   1.399544 A    
C20   C24   1.419645 A    
O2    Cu2   1.959362 S    
C6    C15   1.404626 A    
C47   C52   1.405503 A    
O8    C4    1.300790 A    
O6    C3    1.292289 A    
O4    Cu2   1.948895 S    
C65   O14   1.399162 S    
C51   H20   1.080834 S    
C19   C35   1.420568 A    
C74   O19   1.223319 D    
C38   H8    1.079615 S    
C7    C8    1.398001 A    
O2    C1    1.294781 A    
C21   C74   1.487890 S    
C68   H34   1.083193 S    
C24   C25   1.417945 A    
C3    C42   1.456212 S    
C55   H23   1.081909 S    
C53   C54   1.406243 A    
C69   H35   1.081976 S    
C55   C56   1.397181 A    
C46   C67   1.473332 S    
C66   O16   1.399166 S    
C18   C33   1.421149 A    
C37   H7    1.083382 S    
N4    H16   1.027611 S    
Cu1   O5    1.959362 S    
C45   N3    1.284235 D    
Cu2   O6    1.960864 S    
C33   C34   1.415605 A    
C17   C30   1.401771 A    
C59   C60   1.404961 A    
C73   O18   1.399254 S    
C60   H27   1.083182 S    
C43   H12   1.084403 S    
C67   C68   1.404974 A    
C57   H25   1.082426 S    
C28   C32   1.417794 A    
C54   H22   1.083371 S    
C5    O9    1.350041 S    
C41   C65   1.488725 S    
C69   C70   1.396905 A    
