data_mof_unit_58277.cif
_audit_creation_date              2012-12-10T17:16:36-0500
_audit_creation_method            fapswitch 2.2
_symmetry_space_group_name_H-M    P1
_symmetry_Int_Tables_number       1
_space_group_crystal_system       triclinic
_cell_length_a                    10.114492
_cell_length_b                    10.771003
_cell_length_c                    10.892779
_cell_angle_alpha                 87.98693
_cell_angle_beta                  94.698344
_cell_angle_gamma                 81.920492
_cell_volume                      1169.65856317

loop_
_atom_site_label
_atom_site_type_symbol
_atom_type_description
_atom_site_fract_x
_atom_site_fract_y
_atom_site_fract_z
_atom_type_partial_charge
C1    C     C_R   0.443909 0.504549 0.267942 0.900443
C2    C     C_R   0.556098 0.494514 0.732061 0.947540
C3    C     C_2   0.412110 0.510508 0.136546 -0.373395
C4    C     C_2   0.588041 0.492595 0.863249 -0.404603
C5    C     C_2   0.513358 0.500192 0.065244 -0.144630
C6    C     C_2   0.486904 0.509585 0.934433 -0.175788
C7    C     C_2   0.073332 0.490644 0.490780 -0.127078
C8    C     C_2   0.926676 0.509334 0.509239 -0.129340
C9    C     C_R   0.500440 0.260521 0.507709 0.928659
C10   C     C_R   0.498979 0.739741 0.489927 0.855764
C11   C     C_R   0.528011 0.148813 0.282504 -0.142460
C12   C     C_R   0.472497 0.854149 0.714119 -0.137547
C13   C     C_R   0.551002 0.096578 0.171002 -0.211698
C14   C     C_R   0.444819 0.908282 0.824037 -0.181695
C15   C     C_R   0.553077 0.969498 0.160550 -0.111607
C16   C     C_R   0.435295 0.036609 0.831659 -0.192957
C17   C     C_R   0.530911 0.893303 0.260638 0.093449
C18   C     C_R   0.456237 0.112228 0.730072 0.104477
C19   C     C_R   0.516684 0.943444 0.380808 0.031102
C20   C     C_R   0.478068 0.058647 0.613078 0.064868
C21   C     C_R   0.514674 0.073742 0.389865 0.049638
C22   C     C_R   0.483837 0.928049 0.605509 0.051181
C23   C     C_R   0.501722 0.872276 0.490820 -0.179443
C24   C     C_R   0.496402 0.128809 0.504442 -0.191902
H1    H     H_    0.414752 0.078201 0.918347 0.139848
H2    H     H_    0.568687 0.929474 0.072304 0.148710
H3    H     H_    0.520733 0.249473 0.282119 0.149425
H4    H     H_    0.484139 0.753122 0.716417 0.150977
H5    H     H_    0.564220 0.155566 0.091635 0.145243
H6    H     H_    0.432257 0.849931 0.904034 0.157229
H7    H     H_    0.382730 0.527886 0.896467 0.190772
H8    H     H_    0.617612 0.484764 0.103142 0.191130
H9    H     H_    0.691978 0.474332 0.901598 0.156270
H10   H     H_    0.308094 0.525763 0.098266 0.151816
H11   H     H_    0.889321 0.575813 0.575285 0.169352
H12   H     H_    0.110692 0.424152 0.424748 0.168066
H13   H     H_    0.881121 0.386163 0.386779 0.165688
H14   H     H_    0.118875 0.613848 0.613209 0.164933
N1    N     N_2   0.157300 0.551390 0.551120 -0.196943
N2    N     N_2   0.842700 0.448610 0.448880 -0.198138
O1    O     O_R   0.568940 0.489660 0.307530 -0.631652
O2    O     O_R   0.431060 0.510340 0.692470 -0.615490
O3    O     O_R   0.348880 0.522640 0.340350 -0.614081
O4    O     O_R   0.651120 0.477360 0.659650 -0.607687
O5    O     O_R   0.610030 0.300280 0.483580 -0.613921
O6    O     O_R   0.389970 0.699720 0.516420 -0.608698
O7    O     O_R   0.389970 0.333270 0.516400 -0.603837
O8    O     O_R   0.610030 0.666730 0.483600 -0.624266
Zn1   Zn    Zn3+2 0.646940 0.477980 0.478080 0.933230
Zn2   Zn    Zn3+2 0.353060 0.522020 0.521920 0.939358
N3    N     N_3   0.516545 0.768173 0.231680 -0.476145
H15   H     H_    0.426007 0.747509 0.260658 0.185190
H16   H     H_    0.601048 0.708472 0.269404 0.232643
N4    N     N_3   0.457767 0.242212 0.749929 -0.441948
H17   H     H_    0.365422 0.279330 0.780044 0.198602
H18   H     H_    0.532133 0.248828 0.820959 0.171347

loop_
_geom_bond_atom_site_label_1
_geom_bond_atom_site_label_2
_ccdc_geom_bond_type
O4    Zn1   S    
C10   O6    A    
C19   C23   A    
O3    Zn2   S    
C9    O5    A    
C11   H3    S    
C10   C23   S    
O7    Zn2   S    
C1    O3    A    
C7    H12   S    
O6    Zn2   S    
C2    C4    S    
O5    Zn1   S    
C2    O2    A    
C5    H8    S    
C17   N3    S    
C6    H7    S    
C12   C14   A    
C7    C8    S    
C9    C24   S    
C16   C18   A    
C11   C13   A    
C5    C6    S    
O2    Zn2   S    
C1    O1    A    
O8    Zn1   S    
C19   C21   A    
C20   C22   A    
C9    O7    A    
H13   N2    S    
C18   C20   A    
C13   C15   A    
C10   O8    A    
H14   N1    S    
C20   C24   A    
C14   C16   A    
C18   N4    S    
N2    Zn1   S    
C12   C22   A    
N1    Zn2   S    
C12   H4    S    
C4    C6    D    
C1    C3    S    
C21   C24   A    
O1    Zn1   S    
C16   H1    S    
C15   C17   A    
C4    H9    S    
C7    N1    D    
N4    H17   S    
C17   C19   A    
C15   H2    S    
C8    N2    D    
C3    H10   S    
C3    C5    D    
C14   H6    S    
C11   C21   A    
C22   C23   A    
N3    H15   S    
C13   H5    S    
C2    O4    A    
N4    H18   S    
N3    H16   S    
C8    H11   S    
