data_mof_unit_30754.cif
_audit_creation_date              2012-12-10T17:54:26-0500
_audit_creation_method            fapswitch 2.2
_symmetry_space_group_name_H-M    P1
_symmetry_Int_Tables_number       1
_space_group_crystal_system       triclinic
_cell_length_a                    27.740037
_cell_length_b                    10.718639
_cell_length_c                    9.877982
_cell_angle_alpha                 89.583337
_cell_angle_beta                  90.155892
_cell_angle_gamma                 91.78071
_cell_volume                      2935.56900383

loop_
_atom_site_label
_atom_site_type_symbol
_atom_type_description
_atom_site_fract_x
_atom_site_fract_y
_atom_site_fract_z
_atom_type_partial_charge
C1    C     C_R   0.503324 0.260020 0.501611 0.872965
C2    C     C_R   0.972947 0.383367 0.474435 0.045494
C3    C     C_R   0.976165 0.608360 0.528266 0.046270
C4    C     C_R   0.406061 0.499221 0.499848 0.851545
C5    C     C_R   0.949337 0.496172 0.501589 0.071311
C6    C     C_R   0.944509 0.276165 0.440541 -0.215890
C7    C     C_R   0.894577 0.278434 0.439195 -0.133831
C8    C     C_R   0.871091 0.387578 0.470882 -0.022467
C9    C     C_R   0.898272 0.496826 0.501995 -0.051308
C10   C     C_R   0.874261 0.606755 0.533429 -0.022069
C11   C     C_R   0.823829 0.605379 0.533062 0.505820
C12   C     C_R   0.278084 0.503491 0.621781 -0.102710
C13   C     C_R   0.820718 0.390405 0.471444 0.505516
C14   C     C_R   0.722089 0.503976 0.624170 -0.098405
C15   C     C_R   0.672022 0.504414 0.623866 -0.201449
C16   C     C_R   0.495143 0.738983 0.500101 0.899314
C17   C     C_R   0.671970 0.495702 0.378031 -0.212213
C18   C     C_R   0.722033 0.495051 0.378741 -0.098030
C19   C     C_R   0.747039 0.499138 0.501709 0.317645
C20   C     C_R   0.023953 0.381503 0.480834 0.046885
C21   C     C_R   0.050775 0.495003 0.500422 0.070821
C22   C     C_R   0.027160 0.609065 0.520610 0.046303
C23   C     C_R   0.252998 0.492983 0.499376 0.324808
C24   C     C_R   0.049279 0.269484 0.469320 -0.215357
C25   C     C_R   0.105503 0.719048 0.528781 -0.135209
C26   C     C_R   0.950860 0.716165 0.562915 -0.216269
C27   C     C_R   0.900895 0.715185 0.565009 -0.136111
C28   C     C_R   0.593950 0.500290 0.500196 0.889538
C29   C     C_R   0.055576 0.720518 0.531307 -0.215212
C30   C     C_R   0.513355 0.110002 0.760305 -0.150343
C31   C     C_R   0.498885 0.048337 0.878897 -0.133901
C32   C     C_R   0.473138 0.935410 0.871272 -0.153009
C33   C     C_R   0.466213 0.878608 0.746009 -0.145454
C34   C     C_R   0.101840 0.494447 0.499826 -0.051828
C35   C     C_R   0.485030 0.935191 0.626280 0.104446
C36   C     C_R   0.501766 0.059246 0.631355 0.097282
C37   C     C_R   0.505676 0.126165 0.506703 -0.119107
C38   C     C_R   0.503631 0.063837 0.382976 -0.211752
C39   C     C_R   0.497298 0.936886 0.380969 -0.207878
C40   C     C_R   0.176319 0.383184 0.484474 0.503762
C41   C     C_R   0.489387 0.871641 0.501994 -0.127927
C42   C     C_R   0.436742 0.335887 0.141103 -0.173142
C43   C     C_R   0.405686 0.254898 0.071026 -0.209774
C44   C     C_R   0.405660 0.255030 0.930938 -0.177846
C45   C     C_R   0.125877 0.381589 0.484452 -0.020769
C46   C     C_R   0.436747 0.336008 0.860196 -0.154572
C47   C     C_R   0.468849 0.419013 0.927905 0.127499
C48   C     C_R   0.468858 0.419025 0.072706 0.167936
C49   C     C_R   0.529631 0.577780 0.071774 -0.167140
C50   C     C_R   0.529694 0.578023 0.928406 0.003473
C51   C     C_R   0.179361 0.604086 0.513860 0.504806
C52   C     C_R   0.277801 0.483717 0.377147 -0.102705
C53   C     C_R   0.327897 0.485797 0.377047 -0.219830
C54   C     C_R   0.328163 0.505167 0.622151 -0.222475
C55   C     C_1   0.561946 0.663515 0.858024 0.236149
C56   C     C_R   0.099254 0.269866 0.470712 -0.137319
C57   C     C_R   0.128998 0.606759 0.514637 -0.022260
C58   C     C_R   0.353404 0.496890 0.499630 -0.036258
C59   C     C_R   0.646619 0.500217 0.500693 -0.046192
H1    H     H_    0.347016 0.513481 0.717994 0.165193
H2    H     H_    0.534769 0.195055 0.772217 0.169551
H3    H     H_    0.506754 0.089645 0.976516 0.142398
H4    H     H_    0.258690 0.510545 0.716282 0.137875
H5    H     H_    0.459887 0.889870 0.962630 0.138126
H6    H     H_    0.445826 0.790967 0.743961 0.158554
H7    H     H_    0.499354 0.889939 0.284440 0.169331
H8    H     H_    0.553670 0.640972 0.126674 0.152671
H9    H     H_    0.434353 0.330630 0.248418 0.209186
H10   H     H_    0.381448 0.191781 0.125936 0.163330
H11   H     H_    0.381514 0.191759 0.876546 0.163049
H12   H     H_    0.258192 0.475676 0.282505 0.138260
H13   H     H_    0.434703 0.330144 0.752909 0.210710
H14   H     H_    0.116958 0.181665 0.461157 0.189556
H15   H     H_    0.653313 0.507995 0.719781 0.165381
H16   H     H_    0.741573 0.506976 0.719302 0.141151
H17   H     H_    0.874423 0.193805 0.412862 0.193347
H18   H     H_    0.959635 0.189082 0.411448 0.142360
H19   H     H_    0.031629 0.178909 0.461917 0.138994
H20   H     H_    0.346548 0.478662 0.281349 0.165818
H21   H     H_    0.125647 0.806851 0.537847 0.191990
H22   H     H_    0.968523 0.802762 0.591973 0.141683
H23   H     H_    0.653217 0.492443 0.281750 0.163712
H24   H     H_    0.883208 0.800278 0.591715 0.191612
H25   H     H_    0.741483 0.491571 0.284001 0.140897
H26   H     H_    0.040436 0.811463 0.538903 0.139458
H27   H     H_    0.507365 0.112855 0.287030 0.171704
N1    N     N_R   0.201710 0.493374 0.499109 -0.358841
N2    N     N_R   0.798366 0.498264 0.502190 -0.358308
N3    N     N_R   0.499540 0.498800 0.142780 -0.124522
N4    N     N_R   0.499520 0.498720 0.857170 -0.148732
N5    N     N_1   0.587949 0.732649 0.801909 -0.192176
O1    O     O_R   0.500000 0.316780 0.614690 -0.655318
O2    O     O_R   0.571250 0.499990 0.614680 -0.618109
O3    O     O_R   0.571240 0.499970 0.385350 -0.617791
O4    O     O_2   0.199910 0.275755 0.470605 -0.553553
O5    O     O_2   0.794181 0.286258 0.442410 -0.549883
O6    O     O_2   0.205901 0.711031 0.527285 -0.551399
O7    O     O_2   0.800319 0.710233 0.562229 -0.548763
O8    O     O_R   0.500000 0.316750 0.385360 -0.638328
O9    O     O_R   0.428760 0.500030 0.614650 -0.648891
O10   O     O_R   0.428750 0.500010 0.385320 -0.639046
O11   O     O_R   0.500000 0.683250 0.614640 -0.619534
O12   O     O_R   0.500000 0.683220 0.385310 -0.618246
Zn1   Zn    Zn3+2 0.500000 0.500020 0.653130 0.934651
Zn2   Zn    Zn3+2 0.500000 0.499980 0.346870 0.939318

loop_
_geom_bond_atom_site_label_1
_geom_bond_atom_site_label_2
_ccdc_geom_bond_type
C10   C27   A    
C51   O6    S    
O3    Zn2   S    
C8    C13   A    
C22   C29   A    
C25   H21   S    
C35   C36   A    
C39   H7    S    
C1    O8    A    
C33   H6    S    
C7    C8    A    
C39   C41   A    
C54   H1    S    
C12   C23   A    
C26   C27   A    
C38   H27   S    
C11   O7    S    
C40   N1    A    
C36   C37   A    
C53   H20   S    
C18   C19   A    
C30   C31   A    
C31   C32   A    
O9    Zn1   S    
C28   O3    A    
C17   H23   S    
C55   N5    T    
C50   N4    A    
C20   C24   A    
C45   C56   A    
C8    C9    A    
C34   C57   A    
C18   H25   S    
C44   H11   S    
C51   C57   A    
C9    C10   A    
C46   H13   S    
C1    C37   S    
C43   H10   S    
C23   N1    S    
C21   C22   A    
C42   H9    S    
C31   H3    S    
C2    C6    A    
C25   C57   A    
O2    Zn1   S    
C44   C46   A    
C25   C29   A    
C40   C45   A    
O8    Zn2   S    
O10   Zn2   S    
C13   O5    S    
C2    C20   A    
C32   H5    S    
C19   N2    S    
C51   N1    A    
C12   H4    S    
C6    H18   S    
C21   C34   A    
C28   O2    A    
C43   C44   A    
C5    C9    A    
C37   C38   A    
C16   O12   A    
C47   C48   A    
C11   N2    A    
C4    O10   A    
C17   C18   A    
O12   Zn2   S    
C34   C45   A    
C42   C48   A    
O11   Zn1   S    
N4    Zn1   S    
C6    C7    A    
C17   C59   A    
C24   H19   S    
C1    O1    A    
C48   N3    A    
C4    O9    A    
C47   N4    A    
C2    C5    A    
C24   C56   A    
C42   C43   A    
C40   O4    S    
C4    C58   S    
C52   C53   A    
C54   C58   A    
C28   C59   S    
C16   O11   A    
C46   C47   A    
C15   C59   A    
C56   H14   S    
C49   H8    S    
C29   H26   S    
C14   C19   A    
C3    C26   A    
C49   N3    A    
C3    C5    A    
C53   C58   A    
C7    H17   S    
C26   H22   S    
C50   C55   S    
C30   C36   A    
C14   H16   S    
C27   H24   S    
C52   H12   S    
C32   C33   A    
C23   C52   A    
C38   C39   A    
C13   N2    A    
C33   C35   A    
C35   C41   A    
C10   C11   A    
O1    Zn1   S    
C15   H15   S    
C20   C21   A    
C49   C50   A    
C30   H2    S    
N3    Zn2   S    
C14   C15   A    
C3    C22   A    
C16   C41   S    
C12   C54   A    
