data_mof_unit_38429.cif
_audit_creation_date              2012-12-10T18:45:01-0500
_audit_creation_method            fapswitch 2.2
_symmetry_space_group_name_H-M    P1
_symmetry_Int_Tables_number       1
_space_group_crystal_system       triclinic
_cell_length_a                    19.386307
_cell_length_b                    18.143408
_cell_length_c                    10.759072
_cell_angle_alpha                 89.94491
_cell_angle_beta                  90.167375
_cell_angle_gamma                 90.012382
_cell_volume                      3784.30997875

loop_
_atom_site_label
_atom_site_type_symbol
_atom_type_description
_atom_site_fract_x
_atom_site_fract_y
_atom_site_fract_z
_atom_type_partial_charge
C1    C     C_R   0.367522 0.499975 0.499738 0.795014
C2    C     C_R   0.632409 0.499995 0.500304 0.815006
C3    C     C_R   0.852325 0.498358 0.501261 0.016645
C4    C     C_R   0.147444 0.498180 0.500890 0.014827
C5    C     C_R   0.816458 0.558834 0.449699 0.232423
C6    C     C_R   0.183348 0.562808 0.534605 0.230997
C7    C     C_R   0.744341 0.558905 0.449941 -0.270133
C8    C     C_R   0.255435 0.562870 0.533977 -0.294371
C9    C     C_R   0.707823 0.499706 0.501042 -0.097088
C10   C     C_R   0.291990 0.499616 0.499491 -0.095170
C11   C     C_R   0.963783 0.491872 0.388793 -0.164661
C12   C     C_R   0.035589 0.491148 0.388845 -0.167751
C13   C     C_R   0.071820 0.497502 0.501168 0.165027
C14   C     C_R   0.927969 0.497608 0.501260 0.166163
C15   C     C_R   0.036005 0.503724 0.613558 -0.167687
C16   C     C_R   0.964204 0.503062 0.613707 -0.164956
C17   C     C_R   0.461545 0.720947 0.414217 0.070622
C18   C     C_R   0.538196 0.721258 0.585647 0.075159
C19   C     C_R   0.460858 0.798386 0.412092 -0.259971
C20   C     C_R   0.538415 0.798699 0.587446 -0.258359
C21   C     C_R   0.499520 0.838426 0.499685 0.160928
C22   C     C_R   0.500120 0.500063 0.262580 0.819258
C23   C     C_R   0.500355 0.499919 0.737441 0.821571
C24   C     C_R   0.477994 0.961258 0.605926 0.220144
C25   C     C_R   0.520450 0.961275 0.392805 0.222316
C26   C     C_R   0.478641 0.039044 0.604919 -0.261667
C27   C     C_R   0.519780 0.039039 0.393573 -0.286311
C28   C     C_R   0.499527 0.078475 0.499397 0.072549
C29   C     C_R   0.499312 0.921288 0.499473 0.039397
C30   C     C_R   0.447097 0.201686 0.437193 0.045720
C31   C     C_R   0.552118 0.201216 0.562408 0.049599
C32   C     C_R   0.449450 0.279384 0.438201 0.038121
C33   C     C_R   0.550301 0.278942 0.561798 0.020472
C34   C     C_R   0.499680 0.161223 0.499206 0.059094
C35   C     C_R   0.371644 0.501275 0.128615 -0.234875
C36   C     C_R   0.371856 0.502483 0.869737 -0.251004
C37   C     C_R   0.308750 0.502046 0.064175 0.288816
C38   C     C_R   0.308959 0.502139 0.933480 0.234212
C39   C     C_R   0.435448 0.501134 0.934275 0.018572
C40   C     C_R   0.435355 0.500955 0.064919 -0.006685
C41   C     C_R   0.499053 0.500295 0.128902 -0.185713
C42   C     C_R   0.499183 0.499447 0.871137 -0.185129
C43   C     C_R   0.562378 0.498486 0.065267 0.213590
C44   C     C_R   0.562437 0.497583 0.935674 0.206841
C45   C     C_R   0.743530 0.439912 0.552468 -0.268110
C46   C     C_R   0.256134 0.435765 0.465104 -0.232038
C47   C     C_R   0.815600 0.438639 0.552903 0.232271
C48   C     C_R   0.184108 0.434348 0.466173 0.240965
Cu1   Cu    Cu3+1 0.500000 0.573360 0.500000 0.927358
Cu2   Cu    Cu3+1 0.500000 0.426640 0.500000 0.923134
H1    H     H_    0.431123 0.690654 0.347063 0.124051
H2    H     H_    0.568727 0.691255 0.652967 0.115296
H3    H     H_    0.429806 0.826852 0.343376 0.140829
H4    H     H_    0.569284 0.827415 0.656059 0.140515
H5    H     H_    0.462072 0.068988 0.686644 0.136831
H6    H     H_    0.536148 0.068998 0.311626 0.142240
H7    H     H_    0.410173 0.310555 0.389528 0.135733
H8    H     H_    0.589859 0.309844 0.610138 0.125924
H9    H     H_    0.369974 0.500367 0.229082 0.146052
H10   H     H_    0.370170 0.503146 0.769240 0.144321
H11   H     H_    0.715433 0.394039 0.592460 0.147160
H12   H     H_    0.284008 0.386594 0.438032 0.145895
H13   H     H_    0.716852 0.605194 0.409721 0.155522
H14   H     H_    0.282795 0.612513 0.560618 0.160569
H15   H     H_    0.936046 0.487468 0.301571 0.134322
H16   H     H_    0.063002 0.486582 0.301592 0.134325
H17   H     H_    0.063700 0.508650 0.700721 0.135663
H18   H     H_    0.936795 0.507755 0.700932 0.134255
N1    N     N_R   0.500000 0.683620 0.500000 -0.170504
N2    N     N_R   0.500000 0.316380 0.500000 -0.197836
O1    O     O_R   0.400190 0.561980 0.499980 -0.587924
O2    O     O_R   0.599810 0.561980 0.500020 -0.588083
O3    O     O_R   0.400190 0.438070 0.500040 -0.590568
O4    O     O_R   0.599810 0.438070 0.499960 -0.592127
O5    O     O_R   0.500000 0.561970 0.319650 -0.590955
O6    O     O_R   0.500000 0.561970 0.680350 -0.582057
O7    O     O_R   0.500010 0.438060 0.319710 -0.577788
O8    O     O_R   0.499990 0.438060 0.680290 -0.583532
N3    N     N_2   0.626542 0.498346 0.130758 -0.414387
H19   H     H_    0.627693 0.530588 0.209604 0.238284
C49   C     C_3   0.655962 0.426035 0.150628 -0.648672
H20   H     H_    0.622075 0.392702 0.211952 0.228084
H21   H     H_    0.707231 0.431688 0.195959 0.220347
H22   H     H_    0.662960 0.397028 0.060677 0.240409
N4    N     N_2   0.626592 0.493757 0.871157 -0.415419
H23   H     H_    0.626123 0.461531 0.792274 0.233933
C50   C     C_3   0.660000 0.564086 0.851939 -0.655851
H24   H     H_    0.710963 0.555259 0.807484 0.221330
H25   H     H_    0.668375 0.592603 0.942036 0.244462
H26   H     H_    0.628121 0.599411 0.790086 0.212741
N5    N     N_2   0.455328 0.923586 0.714483 -0.431900
H27   H     H_    0.465638 0.951521 0.795937 0.244298
C51   C     C_3   0.384587 0.898411 0.708618 -0.687954
H28   H     H_    0.372211 0.866892 0.794208 0.224554
H29   H     H_    0.376555 0.861562 0.627529 0.238091
H30   H     H_    0.348975 0.946259 0.701605 0.218242
N6    N     N_2   0.543174 0.923641 0.284394 -0.431207
H31   H     H_    0.532564 0.951418 0.202825 0.244787
C52   C     C_3   0.614107 0.899109 0.290108 -0.689094
H32   H     H_    0.626611 0.867623 0.204652 0.224217
H33   H     H_    0.622503 0.862408 0.371390 0.238514
H34   H     H_    0.649372 0.947282 0.296712 0.217012
C53   C     C_3   0.387138 0.164861 0.371405 -0.421358
C54   C     C_3   0.320601 0.173890 0.445436 -0.837936
H35   H     H_    0.326576 0.148947 0.539210 0.256500
H36   H     H_    0.307090 0.233093 0.455324 0.241294
H37   H     H_    0.277672 0.145607 0.396328 0.240231
H38   H     H_    0.380432 0.189839 0.277765 0.193608
H39   H     H_    0.395946 0.105192 0.356563 0.220092
C55   C     C_3   0.611257 0.163255 0.628627 -0.412486
C56   C     C_3   0.667721 0.141372 0.537310 -0.823985
H40   H     H_    0.647795 0.101473 0.467878 0.258909
H41   H     H_    0.687602 0.190909 0.488283 0.244730
H42   H     H_    0.711019 0.115159 0.588639 0.236240
H43   H     H_    0.634238 0.200605 0.699420 0.186548
H44   H     H_    0.592992 0.113971 0.679967 0.210150
N7    N     N_2   0.245782 0.502203 0.132211 -0.432736
H45   H     H_    0.203665 0.481403 0.085238 0.274472
C57   C     C_3   0.230638 0.570840 0.194716 -0.695743
H46   H     H_    0.182414 0.564824 0.249154 0.228995
H47   H     H_    0.223425 0.615699 0.125490 0.224645
H48   H     H_    0.272942 0.585894 0.259696 0.237720
N8    N     N_2   0.245985 0.504573 0.865640 -0.443333
H49   H     H_    0.246381 0.543213 0.795343 0.256869
C58   C     C_3   0.222608 0.433386 0.822223 -0.712088
H50   H     H_    0.171584 0.439425 0.776290 0.227960
H51   H     H_    0.217038 0.394547 0.901469 0.229228
H52   H     H_    0.259654 0.410355 0.753809 0.236250
N9    N     N_2   0.850917 0.377282 0.605638 -0.430919
H53   H     H_    0.825549 0.353989 0.680151 0.247365
C59   C     C_3   0.871985 0.322381 0.516064 -0.687824
H54   H     H_    0.901868 0.278485 0.563931 0.224751
H55   H     H_    0.905399 0.347236 0.443642 0.241375
H56   H     H_    0.825957 0.297111 0.471303 0.217411
N10   N     N_2   0.148773 0.368467 0.432818 -0.430160
H57   H     H_    0.173821 0.338034 0.365719 0.249772
C60   C     C_3   0.128648 0.323471 0.537678 -0.702567
H58   H     H_    0.098883 0.275093 0.504149 0.228492
H59   H     H_    0.095434 0.355180 0.602300 0.240965
H60   H     H_    0.175123 0.303575 0.588356 0.219598
N11   N     N_2   0.852679 0.619429 0.396729 -0.430706
H61   H     H_    0.827249 0.643521 0.322756 0.247985
C61   C     C_3   0.875866 0.673576 0.486173 -0.689714
H62   H     H_    0.906203 0.716853 0.437909 0.224397
H63   H     H_    0.909482 0.647781 0.557657 0.242244
H64   H     H_    0.830875 0.699826 0.532180 0.217634
N12   N     N_2   0.147194 0.627844 0.569366 -0.428229
H65   H     H_    0.172575 0.658839 0.635594 0.246149
C62   C     C_3   0.124418 0.672386 0.465498 -0.696312
H66   H     H_    0.094302 0.720075 0.500408 0.226216
H67   H     H_    0.090716 0.639990 0.402349 0.240674
H68   H     H_    0.169606 0.693310 0.412751 0.218539

loop_
_geom_bond_atom_site_label_1
_geom_bond_atom_site_label_2
_ccdc_geom_bond_type
C61   H64   S    
C50   H24   S    
C24   N5    S    
C9    C45   A    
C33   H8    S    
C48   N10   S    
N12   H65   S    
C23   O6    A    
C59   H56   S    
C26   H5    S    
C17   H1    S    
N7    C57   S    
C54   H36   S    
N6    H31   S    
C18   H2    S    
N8    H49   S    
N4    H23   S    
C17   N1    A    
C60   H59   S    
C1    O1    A    
C23   C42   S    
C46   H12   S    
C22   O5    A    
N12   C62   S    
C24   C26   A    
N11   C61   S    
C11   C14   A    
N8    C58   S    
C22   C41   S    
C43   N3    S    
C15   C16   A    
C61   H63   S    
C35   H9    S    
C45   C47   A    
C45   H11   S    
C4    C13   S    
C24   C29   A    
C53   C54   S    
C49   H21   S    
C55   C56   S    
N11   H61   S    
C56   H40   S    
Cu1   O2    S    
C30   C53   S    
C10   C46   A    
C58   H52   S    
Cu1   O5    S    
C53   H38   S    
C16   H18   S    
C38   N8    S    
C2    O4    A    
C3    C5    A    
C19   H3    S    
C18   N1    A    
N4    C50   S    
C28   C34   S    
C51   H29   S    
Cu1   N1    S    
C41   C43   A    
C42   C44   A    
C32   H7    S    
C2    O2    A    
Cu2   O8    S    
C54   H35   S    
N6    C52   S    
C49   H20   S    
C39   C42   A    
C57   H47   S    
C25   C29   A    
C60   H60   S    
C46   C48   A    
Cu1   O6    S    
C30   C34   A    
N10   H57   S    
C20   H4    S    
C62   H68   S    
N5    H27   S    
C5    C7    A    
C27   H6    S    
C32   N2    A    
C59   H55   S    
C21   C29   S    
C43   C44   A    
C37   C38   A    
N5    C51   S    
C5    N11   S    
C52   H32   S    
C11   C12   A    
C15   H17   S    
C31   C33   A    
C31   C34   A    
C56   H41   S    
C51   H28   S    
C20   C21   A    
Cu2   O4    S    
C7    H13   S    
C3    C14   S    
C33   N2    A    
C8    H14   S    
C4    C6    A    
C40   C41   A    
C52   H33   S    
C47   N9    S    
C51   H30   S    
C13   C15   A    
C58   H50   S    
N10   C60   S    
C14   C16   A    
Cu2   O3    S    
C44   N4    S    
Cu2   O7    S    
C55   H44   S    
C39   C40   A    
C49   H22   S    
C35   C37   A    
N3    C49   S    
N9    H53   S    
C4    C48   A    
C57   H48   S    
C25   N6    S    
C7    C9    A    
C19   C21   A    
C36   C39   A    
C1    C10   S    
C22   O7    A    
C36   H10   S    
C6    C8    A    
C57   H46   S    
C25   C27   A    
C60   H58   S    
C26   C28   A    
C53   H39   S    
C1    O3    A    
C62   H67   S    
C35   C40   A    
Cu2   N2    S    
C62   H66   S    
C36   C38   A    
C30   C32   A    
C6    N12   S    
C12   H16   S    
C3    C47   A    
C17   C19   A    
C31   C55   S    
C56   H42   S    
C18   C20   A    
C23   O8    A    
C59   H54   S    
N3    H19   S    
C11   H15   S    
C52   H34   S    
C37   N7    S    
C12   C13   A    
C8    C10   A    
Cu1   Cu2   S    
Cu1   O1    S    
C50   H26   S    
C27   C28   A    
C58   H51   S    
C50   H25   S    
N7    H45   S    
C2    C9    S    
C55   H43   S    
C54   H37   S    
C61   H62   S    
N9    C59   S    
