data_mof_unit_31807.cif
_audit_creation_date              2012-12-10T18:40:36-0500
_audit_creation_method            fapswitch 2.2
_symmetry_space_group_name_H-M    P1
_symmetry_Int_Tables_number       1
_space_group_crystal_system       triclinic
_cell_length_a                    21.297382
_cell_length_b                    21.365155
_cell_length_c                    13.803182
_cell_angle_alpha                 89.998728
_cell_angle_beta                  89.997807
_cell_angle_gamma                 89.923372
_cell_volume                      6280.74402819

loop_
_atom_site_label
_atom_site_type_symbol
_atom_type_description
_atom_site_fract_x
_atom_site_fract_y
_atom_site_fract_z
_atom_type_partial_charge
C1    C     C_R   0.085491 0.415434 0.499768 0.894702
C2    C     C_R   0.914504 0.584559 0.499769 0.894706
C3    C     C_R   0.914656 0.415190 0.500590 0.894503
C4    C     C_R   0.085348 0.584805 0.500586 0.894564
C5    C     C_R   0.585494 0.915448 0.499767 0.894730
C6    C     C_R   0.414510 0.084556 0.499768 0.894734
C7    C     C_R   0.414649 0.915188 0.500592 0.894410
C8    C     C_R   0.585353 0.084810 0.500588 0.894437
C9    C     C_R   0.766961 0.329755 0.570640 0.479615
C10   C     C_R   0.169498 0.738160 0.466938 0.362179
C11   C     C_R   0.233092 0.670163 0.570586 0.479550
C12   C     C_R   0.830551 0.261814 0.466896 0.362184
C13   C     C_R   0.237758 0.330960 0.454878 0.454669
C14   C     C_R   0.831785 0.735855 0.551615 0.383725
C15   C     C_R   0.762254 0.669082 0.454937 0.454705
C16   C     C_R   0.168301 0.264197 0.551713 0.383831
C17   C     C_R   0.267141 0.829550 0.571082 0.479833
C18   C     C_R   0.669676 0.238040 0.466326 0.362248
C19   C     C_R   0.732907 0.170383 0.571020 0.479691
C20   C     C_R   0.330379 0.761928 0.466344 0.362310
C21   C     C_R   0.737735 0.830866 0.455321 0.454704
C22   C     C_R   0.332278 0.236197 0.550859 0.383656
C23   C     C_R   0.262302 0.169190 0.455349 0.454717
C24   C     C_R   0.667827 0.763881 0.551002 0.383641
C25   C     C_R   0.812105 0.376908 0.562521 -0.021940
C26   C     C_R   0.123907 0.690910 0.459332 0.024581
C27   C     C_R   0.187933 0.623026 0.562454 -0.021983
C28   C     C_R   0.876127 0.309080 0.459301 0.024573
C29   C     C_R   0.190895 0.376463 0.450064 -0.019340
C30   C     C_R   0.878003 0.689317 0.548810 0.018041
C31   C     C_R   0.809091 0.623548 0.450135 -0.019636
C32   C     C_R   0.122054 0.310709 0.548892 0.017936
C33   C     C_R   0.312273 0.876708 0.563016 -0.021620
C34   C     C_R   0.624101 0.190770 0.458731 0.024705
C35   C     C_R   0.687755 0.123240 0.562963 -0.021708
C36   C     C_R   0.375938 0.809214 0.458747 0.024670
C37   C     C_R   0.690978 0.876484 0.450554 -0.020118
C38   C     C_R   0.378391 0.189558 0.548114 0.018085
C39   C     C_R   0.309030 0.123542 0.450612 -0.020316
C40   C     C_R   0.621691 0.810497 0.548248 0.017917
C41   C     C_R   0.865990 0.367172 0.504537 -0.203695
C42   C     C_R   0.134033 0.632803 0.504524 -0.203672
C43   C     C_R   0.133539 0.366931 0.499236 -0.200133
C44   C     C_R   0.866472 0.633078 0.499235 -0.199963
C45   C     C_R   0.365980 0.867155 0.504550 -0.204043
C46   C     C_R   0.634039 0.132825 0.504533 -0.203958
C47   C     C_R   0.633459 0.866881 0.499217 -0.199730
C48   C     C_R   0.366567 0.133141 0.499211 -0.199675
C49   C     C_R   0.943265 0.504606 0.107440 0.380553
C50   C     C_R   0.977955 0.447437 0.893432 0.321671
C51   C     C_R   0.056734 0.495403 0.107431 0.380610
C52   C     C_R   0.022038 0.552573 0.893420 0.321685
C53   C     C_R   0.443255 0.004489 0.107445 0.380426
C54   C     C_R   0.478134 0.947367 0.893446 0.321728
C55   C     C_R   0.556742 0.995538 0.107433 0.380368
C56   C     C_R   0.521857 0.052653 0.893428 0.321748
C57   C     C_R   0.775236 0.273278 0.520440 -0.098456
C58   C     C_R   0.224818 0.726665 0.520450 -0.098536
C59   C     C_R   0.226227 0.274667 0.504969 -0.124313
C60   C     C_R   0.773836 0.725393 0.504948 -0.124193
C61   C     C_R   0.275249 0.773222 0.520425 -0.098524
C62   C     C_R   0.724807 0.226722 0.520388 -0.098427
C63   C     C_R   0.725943 0.774427 0.504881 -0.123764
C64   C     C_R   0.274124 0.225637 0.504864 -0.123995
C65   C     C_R   0.944600 0.501565 0.209389 -0.045420
C66   C     C_R   0.977433 0.449767 0.790564 -0.094523
C67   C     C_R   0.055399 0.498440 0.209380 -0.045464
C68   C     C_R   0.022564 0.550235 0.790553 -0.094497
C69   C     C_R   0.444596 0.001466 0.209395 -0.045283
C70   C     C_R   0.477611 0.949689 0.790567 -0.094705
C71   C     C_R   0.555403 0.998543 0.209385 -0.045343
C72   C     C_R   0.522386 0.050317 0.790551 -0.094723
C73   C     C_R   0.999999 0.500006 0.054545 -0.020688
C74   C     C_R   0.999996 0.500007 0.945350 -0.004480
C75   C     C_R   0.499998 0.000014 0.054551 -0.020315
C76   C     C_R   0.499995 0.000013 0.945353 -0.003735
Cu1   Cu    Cu3+1 0.000000 0.500000 0.596430 0.928464
Cu2   Cu    Cu3+1 1.000000 0.500000 0.403570 0.940047
Cu3   Cu    Cu3+1 0.500000 0.000000 0.596430 0.928278
Cu4   Cu    Cu3+1 0.500000 1.000000 0.403570 0.940267
H1    H     H_    0.900971 0.502203 0.249346 0.149916
H2    H     H_    0.959297 0.411286 0.749313 0.172099
H3    H     H_    0.099029 0.497805 0.249332 0.149918
H4    H     H_    0.040704 0.588713 0.749296 0.172125
H5    H     H_    0.400966 0.002044 0.249361 0.149897
H6    H     H_    0.459612 0.911150 0.749297 0.171947
H7    H     H_    0.599035 0.997970 0.249341 0.149899
H8    H     H_    0.540386 0.088850 0.749269 0.171974
N1    N     N_R   0.000000 0.500000 0.258690 -0.227477
N2    N     N_R   1.000000 0.500000 0.741310 -0.209166
N3    N     N_R   0.500000 1.000000 0.258690 -0.227500
N4    N     N_R   0.500000 1.000000 0.741310 -0.209055
O1    O     O_R   0.064280 0.435730 0.581430 -0.564581
O2    O     O_R   0.935720 0.564270 0.418570 -0.594358
O3    O     O_R   0.935720 0.564270 0.581430 -0.564600
O4    O     O_R   0.064280 0.435730 0.418570 -0.594389
O5    O     O_R   0.935720 0.435730 0.418570 -0.566682
O6    O     O_R   0.064280 0.564270 0.581430 -0.604019
O7    O     O_R   0.064280 0.564270 0.418570 -0.566702
O8    O     O_R   0.935720 0.435730 0.581430 -0.604024
O9    O     O_R   0.564280 0.935730 0.581430 -0.564903
O10   O     O_R   0.435720 0.064270 0.418570 -0.594102
O11   O     O_R   0.435720 0.064270 0.581430 -0.564989
O12   O     O_R   0.564280 0.935730 0.418570 -0.594153
O13   O     O_R   0.435720 0.935730 0.418570 -0.566462
O14   O     O_R   0.564280 0.064270 0.581430 -0.604025
O15   O     O_R   0.564280 0.064270 0.418570 -0.566501
O16   O     O_R   0.435720 0.935730 0.581430 -0.604012
O17   O     O_3   0.885912 0.508154 0.060869 -0.586176
C77   C     C_3   0.874102 0.570578 0.031096 0.074610
H9    H     H_    0.845698 0.567856 0.963732 0.127908
H10   H     H_    0.917153 0.597055 0.010294 0.138997
C78   C     C_3   0.835306 0.606442 0.107235 -0.390122
H11   H     H_    0.799347 0.635383 0.069668 0.173682
H12   H     H_    0.809917 0.573084 0.154960 0.233810
C79   C     C_3   0.875617 0.650255 0.168867 -0.881407
H13   H     H_    0.912161 0.623907 0.208912 0.271053
H14   H     H_    0.845495 0.674849 0.222374 0.232846
H15   H     H_    0.898638 0.685894 0.122325 0.243064
O18   O     O_3   0.954568 0.396573 0.945616 -0.590921
C80   C     C_3   0.968861 0.338201 0.901788 0.054932
H16   H     H_    0.980314 0.304515 0.960512 0.140958
H17   H     H_    0.012085 0.339777 0.856053 0.116201
C81   C     C_3   0.911578 0.312863 0.846137 -0.365720
H18   H     H_    0.883437 0.282229 0.894592 0.198527
H19   H     H_    0.880574 0.351967 0.823008 0.223879
C82   C     C_3   0.931185 0.275783 0.756400 -0.933302
H20   H     H_    0.955037 0.306726 0.703570 0.273112
H21   H     H_    0.889175 0.256137 0.720181 0.269804
H22   H     H_    0.963376 0.237021 0.776724 0.252541
O19   O     O_3   0.114089 0.491865 0.060856 -0.586174
C83   C     C_3   0.125885 0.429457 0.030995 0.074581
H23   H     H_    0.154328 0.432212 0.963670 0.127883
H24   H     H_    0.082833 0.403017 0.010097 0.139002
C84   C     C_3   0.164615 0.393514 0.107120 -0.390109
H25   H     H_    0.200554 0.364552 0.069542 0.173670
H26   H     H_    0.190027 0.426820 0.154897 0.233859
C85   C     C_3   0.124236 0.349714 0.168673 -0.881251
H27   H     H_    0.087724 0.376082 0.208755 0.271012
H28   H     H_    0.154316 0.325041 0.222145 0.232914
H29   H     H_    0.101172 0.314139 0.122070 0.243042
O20   O     O_3   0.045427 0.603440 0.945589 -0.590929
C86   C     C_3   0.031132 0.661810 0.901751 0.054928
H30   H     H_    0.019680 0.695499 0.960469 0.140948
H31   H     H_    0.987905 0.660230 0.856025 0.116222
C87   C     C_3   0.088411 0.687148 0.846079 -0.365724
H32   H     H_    0.116543 0.717800 0.894514 0.198523
H33   H     H_    0.119427 0.648047 0.822972 0.223891
C88   C     C_3   0.068799 0.724203 0.756321 -0.933309
H34   H     H_    0.044959 0.693242 0.703509 0.273113
H35   H     H_    0.110803 0.743853 0.720086 0.269889
H36   H     H_    0.036596 0.762962 0.776620 0.252483
O21   O     O_3   0.385902 0.007910 0.060859 -0.586370
C89   C     C_3   0.373862 0.070354 0.031418 0.074385
H37   H     H_    0.345321 0.067674 0.964188 0.128128
H38   H     H_    0.416810 0.096960 0.010489 0.139211
C90   C     C_3   0.335130 0.105990 0.107901 -0.390321
H39   H     H_    0.298913 0.134781 0.070647 0.173781
H40   H     H_    0.310048 0.072484 0.155766 0.233628
C91   C     C_3   0.375416 0.149960 0.169309 -0.881127
H41   H     H_    0.412233 0.123771 0.209005 0.271235
H42   H     H_    0.345345 0.174346 0.223112 0.232870
H43   H     H_    0.398093 0.185759 0.122657 0.242944
O22   O     O_3   0.454914 0.896446 0.945682 -0.591107
C92   C     C_3   0.469144 0.838103 0.901727 0.054889
H44   H     H_    0.480676 0.804382 0.960363 0.141006
H45   H     H_    0.512305 0.839707 0.855854 0.116268
C93   C     C_3   0.411776 0.812810 0.846248 -0.365440
H46   H     H_    0.383667 0.782206 0.894792 0.198607
H47   H     H_    0.380786 0.851945 0.823199 0.223887
C94   C     C_3   0.431243 0.775709 0.756469 -0.933923
H48   H     H_    0.454954 0.806656 0.703496 0.273074
H49   H     H_    0.389184 0.756013 0.720463 0.269432
H50   H     H_    0.463515 0.736989 0.776682 0.252256
O23   O     O_3   0.614097 0.992157 0.060837 -0.586340
C95   C     C_3   0.626154 0.929735 0.031302 0.074440
H51   H     H_    0.654647 0.932467 0.964024 0.128081
H52   H     H_    0.583211 0.903109 0.010422 0.139147
C96   C     C_3   0.664962 0.894089 0.107677 -0.390171
H53   H     H_    0.701152 0.865316 0.070324 0.173779
H54   H     H_    0.690077 0.927587 0.155508 0.233665
C97   C     C_3   0.624740 0.850094 0.169146 -0.881318
H55   H     H_    0.587971 0.876269 0.208974 0.271177
H56   H     H_    0.654870 0.825679 0.222836 0.232877
H57   H     H_    0.602008 0.814319 0.122520 0.243026
O24   O     O_3   0.545077 0.103580 0.945644 -0.591092
C98   C     C_3   0.530868 0.161918 0.901655 0.054888
H58   H     H_    0.519340 0.195654 0.960272 0.140997
H59   H     H_    0.487709 0.160316 0.855782 0.116281
C99   C     C_3   0.588246 0.187186 0.846165 -0.365483
H60   H     H_    0.616355 0.217801 0.894690 0.198596
H61   H     H_    0.619234 0.148040 0.823151 0.223888
C100  C     C_3   0.568797 0.224265 0.756352 -0.933901
H62   H     H_    0.545092 0.193306 0.703396 0.273063
H63   H     H_    0.610864 0.243947 0.720342 0.269560
H64   H     H_    0.536527 0.262996 0.776527 0.252257
O25   O     O_3   0.713270 0.339591 0.625435 -0.548446
C101  C     C_3   0.727341 0.334324 0.725659 0.106809
H65   H     H_    0.778583 0.332845 0.742658 0.075303
H66   H     H_    0.707181 0.290063 0.753637 0.115463
C102  C     C_3   0.698832 0.389472 0.781382 -0.326872
H67   H     H_    0.713967 0.386836 0.858346 0.163805
H68   H     H_    0.716526 0.434202 0.751122 0.234597
C103  C     C_3   0.627233 0.389562 0.777749 -0.797195
H69   H     H_    0.610317 0.389217 0.701637 0.291833
H70   H     H_    0.609086 0.432337 0.813921 0.219430
H71   H     H_    0.608624 0.348156 0.816691 0.238444
O26   O     O_3   0.155749 0.797964 0.434254 -0.554747
C104  C     C_3   0.181550 0.807053 0.341074 0.067255
H72   H     H_    0.161555 0.773046 0.288438 0.086101
H73   H     H_    0.233409 0.801941 0.341462 0.111553
C105  C     C_3   0.166036 0.873192 0.306063 -0.351635
H74   H     H_    0.181659 0.878293 0.229638 0.165043
H75   H     H_    0.114383 0.880599 0.308518 0.216580
C106  C     C_3   0.198588 0.923070 0.367544 -0.716041
H76   H     H_    0.182630 0.920292 0.444032 0.295352
H77   H     H_    0.186938 0.970279 0.339029 0.230181
H78   H     H_    0.250361 0.916816 0.364862 0.225460
O27   O     O_3   0.286807 0.660280 0.625298 -0.548404
C107  C     C_3   0.272785 0.665454 0.725551 0.107001
H79   H     H_    0.221551 0.666902 0.742622 0.075253
H80   H     H_    0.292947 0.709694 0.753592 0.115375
C108  C     C_3   0.301343 0.610268 0.781123 -0.326983
H81   H     H_    0.286303 0.612872 0.858135 0.163791
H82   H     H_    0.283596 0.565558 0.750867 0.234567
C109  C     C_3   0.372938 0.610155 0.777270 -0.796956
H83   H     H_    0.389757 0.610464 0.701105 0.291823
H84   H     H_    0.391117 0.567389 0.813428 0.219311
H85   H     H_    0.391610 0.651571 0.816109 0.238469
O28   O     O_3   0.844315 0.202022 0.434178 -0.554712
C110  C     C_3   0.818504 0.192943 0.341005 0.067303
H86   H     H_    0.838495 0.226957 0.288371 0.086094
H87   H     H_    0.766646 0.198055 0.341411 0.111533
C111  C     C_3   0.834014 0.126809 0.305972 -0.351722
H88   H     H_    0.818384 0.121719 0.229550 0.165038
H89   H     H_    0.885667 0.119398 0.308409 0.216596
C112  C     C_3   0.801465 0.076924 0.367449 -0.715927
H90   H     H_    0.817437 0.079684 0.443928 0.295386
H91   H     H_    0.813102 0.029719 0.338906 0.230118
H92   H     H_    0.749692 0.083188 0.364797 0.225465
O29   O     O_3   0.296985 0.344660 0.419048 -0.527039
C113  C     C_3   0.302922 0.321537 0.323711 0.093621
H93   H     H_    0.266554 0.342402 0.275523 0.105225
H94   H     H_    0.298899 0.269790 0.321987 0.093791
C114  C     C_3   0.367554 0.338723 0.283633 -0.342255
H95   H     H_    0.370195 0.324131 0.206436 0.155956
H96   H     H_    0.373954 0.390307 0.286989 0.219302
C115  C     C_3   0.420415 0.306523 0.339749 -0.748905
H97   H     H_    0.420730 0.322362 0.416367 0.293940
H98   H     H_    0.466349 0.318545 0.306603 0.213922
H99   H     H_    0.414608 0.254862 0.337618 0.238920
O30   O     O_3   0.846789 0.794047 0.589338 -0.550562
C116  C     C_3   0.822112 0.799959 0.683803 0.077691
H100  H     H_    0.839323 0.761540 0.731509 0.071214
H101  H     H_    0.770003 0.799427 0.683124 0.112041
C117  C     C_3   0.843195 0.862318 0.727179 -0.359318
H102  H     H_    0.827162 0.865000 0.803702 0.153968
H103  H     H_    0.895330 0.864837 0.726566 0.216226
C118  C     C_3   0.816227 0.918035 0.671380 -0.711871
H104  H     H_    0.832953 0.917670 0.595167 0.299966
H105  H     H_    0.831874 0.962260 0.705924 0.218740
H106  H     H_    0.764072 0.916656 0.672053 0.225206
O31   O     O_3   0.702998 0.655413 0.419212 -0.527042
C119  C     C_3   0.697121 0.678293 0.323725 0.093416
H107  H     H_    0.733194 0.656898 0.275567 0.106028
H108  H     H_    0.701655 0.729990 0.321550 0.093331
C120  C     C_3   0.632252 0.661623 0.284045 -0.342497
H109  H     H_    0.629637 0.675979 0.206739 0.156013
H110  H     H_    0.625322 0.610121 0.287864 0.219441
C121  C     C_3   0.579816 0.694555 0.340086 -0.749012
H111  H     H_    0.579381 0.678875 0.416781 0.293834
H112  H     H_    0.533726 0.682993 0.307074 0.214086
H113  H     H_    0.586227 0.746139 0.337681 0.238972
O32   O     O_3   0.153344 0.206007 0.589496 -0.550553
C122  C     C_3   0.178059 0.200142 0.683941 0.077577
H114  H     H_    0.160534 0.238363 0.731747 0.071511
H115  H     H_    0.230161 0.201080 0.683316 0.111693
C123  C     C_3   0.157460 0.137555 0.727099 -0.359040
H116  H     H_    0.173486 0.134898 0.803626 0.153923
H117  H     H_    0.105348 0.134618 0.726436 0.216354
C124  C     C_3   0.184900 0.082133 0.671143 -0.712090
H118  H     H_    0.168158 0.082440 0.594941 0.300114
H119  H     H_    0.169644 0.037736 0.705579 0.218945
H120  H     H_    0.237041 0.083960 0.671794 0.225006
O33   O     O_3   0.213660 0.839227 0.626421 -0.548314
C125  C     C_3   0.228031 0.833172 0.726436 0.106112
H121  H     H_    0.279321 0.831284 0.742987 0.075297
H122  H     H_    0.207699 0.788833 0.753821 0.115805
C126  C     C_3   0.200050 0.888089 0.783330 -0.327236
H123  H     H_    0.215384 0.884776 0.860138 0.163839
H124  H     H_    0.217960 0.932926 0.753765 0.234214
C127  C     C_3   0.128444 0.888692 0.780186 -0.796002
H125  H     H_    0.111310 0.889005 0.704191 0.291803
H126  H     H_    0.110698 0.931330 0.817206 0.219567
H127  H     H_    0.109660 0.847141 0.818550 0.238386
O34   O     O_3   0.656044 0.297738 0.433066 -0.554781
C128  C     C_3   0.682181 0.306535 0.340042 0.067203
H128  H     H_    0.662366 0.272369 0.287491 0.086161
H129  H     H_    0.734036 0.301415 0.340910 0.111581
C129  C     C_3   0.666810 0.372569 0.304411 -0.351579
H130  H     H_    0.682724 0.377436 0.228092 0.165158
H131  H     H_    0.615149 0.379990 0.306344 0.216423
C130  C     C_3   0.699133 0.422631 0.365822 -0.715820
H132  H     H_    0.682874 0.420096 0.442179 0.295339
H133  H     H_    0.687610 0.469753 0.336848 0.229923
H134  H     H_    0.750914 0.416357 0.363671 0.225528
O35   O     O_3   0.786418 0.160672 0.626275 -0.548350
C131  C     C_3   0.772089 0.166565 0.726328 0.106263
H135  H     H_    0.720805 0.168356 0.742953 0.075375
H136  H     H_    0.792369 0.210895 0.753835 0.115771
C132  C     C_3   0.800184 0.111605 0.782990 -0.327170
H137  H     H_    0.784828 0.114738 0.859808 0.163858
H138  H     H_    0.782387 0.066783 0.753213 0.234405
C133  C     C_3   0.871792 0.111180 0.779870 -0.796415
H139  H     H_    0.888940 0.111070 0.703878 0.291837
H140  H     H_    0.889634 0.068506 0.816682 0.219575
H141  H     H_    0.890468 0.152695 0.818449 0.238400
O36   O     O_3   0.344024 0.702242 0.433050 -0.554734
C134  C     C_3   0.317867 0.693456 0.340040 0.067229
H142  H     H_    0.337659 0.727639 0.287490 0.086125
H143  H     H_    0.266010 0.698560 0.340943 0.111585
C135  C     C_3   0.333251 0.627436 0.304368 -0.351697
H144  H     H_    0.317310 0.622578 0.228064 0.165159
H145  H     H_    0.384914 0.620034 0.306249 0.216462
C136  C     C_3   0.300968 0.577350 0.365791 -0.715599
H146  H     H_    0.317262 0.579871 0.442129 0.295355
H147  H     H_    0.312493 0.530239 0.336776 0.229864
H148  H     H_    0.249185 0.583611 0.363704 0.225540
O37   O     O_3   0.797099 0.844535 0.420034 -0.527261
C137  C     C_3   0.803106 0.822037 0.324350 0.093144
H149  H     H_    0.767261 0.843816 0.276203 0.106426
H150  H     H_    0.798330 0.770370 0.321615 0.093154
C138  C     C_3   0.868148 0.838571 0.285216 -0.342622
H151  H     H_    0.870881 0.824558 0.207771 0.156095
H152  H     H_    0.875331 0.890018 0.289658 0.219537
C139  C     C_3   0.920282 0.805121 0.341177 -0.749347
H153  H     H_    0.920614 0.820461 0.418034 0.293723
H154  H     H_    0.966500 0.816602 0.308517 0.214177
H155  H     H_    0.913602 0.753583 0.338183 0.238993
O38   O     O_3   0.347562 0.294516 0.587819 -0.550685
C140  C     C_3   0.323326 0.300903 0.682479 0.078035
H156  H     H_    0.339888 0.262167 0.730133 0.070568
H157  H     H_    0.271207 0.301428 0.682095 0.112969
C141  C     C_3   0.345821 0.362818 0.725677 -0.360263
H158  H     H_    0.330038 0.365865 0.802291 0.154255
H159  H     H_    0.397997 0.364237 0.724750 0.215966
C142  C     C_3   0.319907 0.419065 0.669973 -0.711364
H160  H     H_    0.336311 0.418241 0.593600 0.299574
H161  H     H_    0.336708 0.462953 0.704247 0.218588
H162  H     H_    0.267737 0.418867 0.671156 0.225834
O39   O     O_3   0.202942 0.155570 0.420002 -0.527310
C143  C     C_3   0.197002 0.178085 0.324314 0.093066
H163  H     H_    0.232793 0.156202 0.276179 0.106498
H164  H     H_    0.201935 0.229735 0.321554 0.092876
C144  C     C_3   0.131914 0.161737 0.285178 -0.342655
H165  H     H_    0.129204 0.175823 0.207761 0.156090
H166  H     H_    0.124617 0.110302 0.289510 0.219469
C145  C     C_3   0.079862 0.195252 0.341237 -0.748965
H167  H     H_    0.079489 0.179828 0.418056 0.293636
H168  H     H_    0.033612 0.183926 0.308563 0.214133
H169  H     H_    0.086664 0.246776 0.338385 0.238962
O40   O     O_3   0.652602 0.705587 0.588124 -0.550670
C146  C     C_3   0.676910 0.699307 0.682755 0.077967
H170  H     H_    0.660213 0.737988 0.730400 0.070678
H171  H     H_    0.729028 0.698992 0.682325 0.112778
C147  C     C_3   0.654687 0.637308 0.726008 -0.360034
H172  H     H_    0.670510 0.634342 0.802609 0.154190
H173  H     H_    0.602516 0.635673 0.725135 0.216011
C148  C     C_3   0.680815 0.581156 0.670312 -0.711452
H174  H     H_    0.664359 0.581883 0.593966 0.299671
H175  H     H_    0.664233 0.537205 0.704650 0.218556
H176  H     H_    0.732985 0.581585 0.671408 0.225691
N5    N     N_3   0.802311 0.434068 0.614999 -0.574729
H177  H     H_    0.835550 0.437069 0.670453 0.229985
H178  H     H_    0.807905 0.472036 0.568549 0.206645
N6    N     N_3   0.065731 0.702655 0.410080 -0.559237
H179  H     H_    0.075403 0.712516 0.337501 0.219640
H180  H     H_    0.044645 0.742105 0.440953 0.245631
N7    N     N_3   0.197729 0.565834 0.614852 -0.574789
H181  H     H_    0.164499 0.562804 0.670319 0.229979
H182  H     H_    0.192123 0.527895 0.568353 0.206626
N8    N     N_3   0.934303 0.297365 0.410026 -0.559218
H183  H     H_    0.924628 0.287486 0.337456 0.219641
H184  H     H_    0.955420 0.257936 0.440913 0.245609
N9    N     N_3   0.202648 0.431681 0.393895 -0.565452
H185  H     H_    0.171578 0.432048 0.335467 0.226565
H186  H     H_    0.193990 0.471130 0.436120 0.202560
N10   N     N_3   0.937850 0.699777 0.593565 -0.571123
H187  H     H_    0.930591 0.707311 0.667521 0.215779
H188  H     H_    0.957464 0.740352 0.564081 0.245305
N11   N     N_3   0.797282 0.568291 0.394093 -0.565753
H189  H     H_    0.828343 0.567841 0.335651 0.226533
H190  H     H_    0.805912 0.528876 0.436405 0.202612
N12   N     N_3   0.062219 0.300233 0.593683 -0.571151
H191  H     H_    0.069487 0.292738 0.667645 0.215742
H192  H     H_    0.042623 0.259634 0.564250 0.245289
N13   N     N_3   0.302650 0.933677 0.616068 -0.574181
H193  H     H_    0.335981 0.936404 0.671424 0.230094
H194  H     H_    0.308213 0.971827 0.569965 0.206797
N14   N     N_3   0.566126 0.202347 0.408823 -0.558917
H195  H     H_    0.576093 0.211855 0.336226 0.219655
H196  H     H_    0.544962 0.241964 0.439046 0.245557
N15   N     N_3   0.697371 0.066251 0.615969 -0.574315
H197  H     H_    0.664048 0.063513 0.671339 0.230095
H198  H     H_    0.691791 0.028118 0.569841 0.206798
N16   N     N_3   0.433927 0.797651 0.408866 -0.558852
H199  H     H_    0.423977 0.788048 0.336295 0.219679
H200  H     H_    0.455136 0.758096 0.439208 0.245498
N17   N     N_3   0.703020 0.931924 0.395062 -0.566135
H201  H     H_    0.672031 0.932714 0.336535 0.226376
H202  H     H_    0.694456 0.971185 0.437750 0.202524
N18   N     N_3   0.438409 0.200073 0.592284 -0.571237
H203  H     H_    0.431392 0.207969 0.666206 0.215896
H204  H     H_    0.458012 0.240474 0.562214 0.245559
N19   N     N_3   0.296942 0.068079 0.395206 -0.566160
H205  H     H_    0.327929 0.067228 0.336674 0.226371
H206  H     H_    0.305479 0.028840 0.437957 0.202487
N20   N     N_3   0.561704 0.799990 0.592532 -0.571233
H207  H     H_    0.568764 0.792162 0.666461 0.215907
H208  H     H_    0.542097 0.759558 0.562574 0.245416

loop_
_geom_bond_atom_site_label_1
_geom_bond_atom_site_label_2
_ccdc_geom_bond_type
C135  H145  S    
C32   N12   S    
C90   H39   S    
C33   C45   A    
C108  H81   S    
C49   C73   A    
C53   C69   A    
C108  C109  S    
C130  H133  S    
C138  H151  S    
C124  H120  S    
C65   N1    A    
C94   H49   S    
Cu4   O15   S    
N15   H198  S    
N9    H185  S    
N13   H194  S    
C135  C136  S    
C86   H30   S    
C22   C38   A    
C117  C118  S    
C145  H169  S    
O32   C122  S    
C128  H129  S    
C97   H55   S    
C17   C61   A    
C3    O8    A    
C95   C96   S    
Cu2   O4    S    
C56   C72   A    
C68   N2    A    
C131  C132  S    
C148  H176  S    
C58   C61   S    
C114  H95   S    
C53   C75   A    
C111  H89   S    
C30   N10   S    
C115  H98   S    
Cu2   N1    S    
C5    O9    A    
C113  C114  S    
C137  H149  S    
C91   H43   S    
C83   C84   S    
N7    H181  S    
O38   C140  S    
C25   C41   A    
C51   O19   S    
C133  H139  S    
C97   H57   S    
C75   C76   S    
C5    O12   A    
C66   H2    S    
C130  H132  S    
C54   C70   A    
C11   C27   A    
C143  H163  S    
C89   H37   S    
C85   H28   S    
C81   C82   S    
C93   H46   S    
C12   C28   A    
C24   C63   A    
N16   H200  S    
C119  H108  S    
C129  H130  S    
C87   H32   S    
C138  C139  S    
C84   H26   S    
C125  C126  S    
C139  H153  S    
C118  H105  S    
C85   H29   S    
C26   N6    S    
C127  H126  S    
C19   C35   A    
C125  H122  S    
Cu2   O2    S    
C79   H14   S    
Cu3   O16   S    
C110  C111  S    
C6    O10   A    
C80   H17   S    
C15   O31   S    
N12   H191  S    
C128  H128  S    
O34   C128  S    
C105  H74   S    
C83   H24   S    
C100  H62   S    
C114  C115  S    
Cu2   O7    S    
C27   N7    S    
C101  H66   S    
O24   C98   S    
O17   C77   S    
C55   C71   A    
O30   C116  S    
N9    H186  S    
C134  H143  S    
C67   H3    S    
C99   H60   S    
C15   C60   A    
O39   C143  S    
C104  C105  S    
C35   N15   S    
Cu1   O8    S    
C50   O18   S    
N18   H203  S    
C10   C58   A    
C52   C74   A    
C88   H35   S    
C116  H100  S    
C120  C121  S    
O40   C146  S    
C143  C144  S    
O29   C113  S    
C20   C61   A    
C136  H147  S    
C10   O26   S    
C39   N19   S    
C77   H9    S    
C1    C43   S    
C93   C94   S    
C2    C44   S    
N10   H187  S    
C117  H103  S    
N19   H206  S    
C34   C46   A    
C37   C47   A    
C11   C58   A    
C38   C48   A    
C129  C130  S    
C55   C75   A    
C95   H52   S    
C92   H45   S    
C112  H90   S    
C102  H68   S    
Cu3   O11   S    
O28   C110  S    
C139  H155  S    
C107  H79   S    
C9    O25   S    
C131  H136  S    
C104  H72   S    
N20   H208  S    
C140  H157  S    
C20   O36   S    
C19   O35   S    
C2    O2    A    
C122  C123  S    
C16   O32   S    
C106  H78   S    
C18   C62   A    
C123  C124  S    
C96   H53   S    
Cu3   O14   S    
Cu4   O10   S    
C91   H42   S    
C82   H21   S    
C37   N17   S    
C18   C34   A    
C113  H94   S    
C105  C106  S    
C38   N18   S    
C100  H64   S    
C34   N14   S    
Cu2   O5    S    
C126  H123  S    
C21   C37   A    
C51   C67   A    
C145  H168  S    
C147  C148  S    
C12   C57   A    
C1    O1    A    
C144  H166  S    
C132  H138  S    
C146  C147  S    
C8    O15   A    
C11   O27   S    
C69   H5    S    
O18   C80   S    
C26   C42   A    
C81   H19   S    
N11   H190  S    
C144  H165  S    
C18   O34   S    
O20   C86   S    
C103  H70   S    
N14   H195  S    
C116  C117  S    
C120  H109  S    
C108  H82   S    
C15   C31   A    
C13   C59   A    
C16   C32   A    
C14   C60   A    
C33   N13   S    
N17   H201  S    
N13   H193  S    
C142  H162  S    
C27   C42   A    
C4    C42   S    
C119  C120  S    
C128  C129  S    
C32   C43   A    
O25   C101  S    
C77   H10   S    
C141  H158  S    
C109  H83   S    
C112  H92   S    
C31   N11   S    
C123  H116  S    
Cu3   O9    S    
C78   H12   S    
C69   N3    A    
C107  C108  S    
C148  H175  S    
C22   O38   S    
C86   C87   S    
N8    H183  S    
C84   C85   S    
C73   C74   S    
C122  H114  S    
C94   H48   S    
C36   N16   S    
C9    C25   A    
C84   H25   S    
C66   N2    A    
Cu1   Cu2   S    
C131  H135  S    
C53   O21   S    
C137  H150  S    
Cu4   O12   S    
C36   C45   A    
C13   C29   A    
O22   C92   S    
N20   H207  S    
N5    H178  S    
C72   N4    A    
C14   O30   S    
C133  H140  S    
C28   C41   A    
C126  C127  S    
C86   H31   S    
O37   C137  S    
C147  H172  S    
C98   C99   S    
C99   C100  S    
C49   C65   A    
C3    C41   S    
O26   C104  S    
C137  C138  S    
C143  H164  S    
C146  H170  S    
C7    O13   A    
C89   H38   S    
C96   C97   S    
C133  H141  S    
C93   H47   S    
C135  H144  S    
C90   H40   S    
C29   C43   A    
C121  H113  S    
C30   C44   A    
C17   C33   A    
C129  H131  S    
C130  H134  S    
C87   H33   S    
C138  H152  S    
C94   H50   S    
Cu1   N2    S    
O35   C131  S    
C68   H4    S    
N11   H189  S    
C89   C90   S    
C139  H154  S    
C142  H160  S    
O33   C125  S    
C87   C88   S    
C3    O5    A    
C65   H1    S    
C141  C142  S    
C113  H93   S    
C110  H87   S    
C6    O11   A    
C50   C74   A    
C80   H16   S    
N12   H192  S    
C71   H7    S    
C105  H75   S    
C114  H96   S    
C124  H119  S    
C111  H88   S    
C82   H20   S    
O27   C107  S    
C115  H97   S    
C78   H11   S    
C127  H125  S    
C99   H61   S    
C70   N4    A    
C8    O14   A    
C12   O28   S    
Cu4   N3    S    
N18   H204  S    
C98   H58   S    
C88   H34   S    
C120  H110  S    
Cu1   O1    S    
C136  H146  S    
C21   C63   A    
C85   H27   S    
C22   C64   A    
C134  H142  S    
C20   C36   A    
C71   N3    A    
N10   H188  S    
C121  H111  S    
C126  H124  S    
C54   O22   S    
C35   C46   A    
C111  C112  S    
C39   C48   A    
C40   C47   A    
C132  H137  S    
C40   N20   S    
C92   H44   S    
C56   C76   A    
C4    O6    A    
C102  H67   S    
N15   H197  S    
C106  H76   S    
C118  H106  S    
C107  H80   S    
C57   C62   S    
C140  H156  S    
C5    C47   S    
C59   C64   S    
C6    C48   S    
C60   C63   S    
C7    C45   S    
C2    O3    A    
C122  H115  S    
C106  H77   S    
C125  H121  S    
N7    H182  S    
C24   O40   S    
C19   C62   A    
C67   N1    A    
C79   H13   S    
C80   C81   S    
C104  H73   S    
C13   O29   S    
O23   C95   S    
C83   H23   S    
C100  H63   S    
C103  H71   S    
C101  H65   S    
N17   H202  S    
C9    C57   A    
C52   C68   A    
C115  H99   S    
C78   C79   S    
C10   C26   A    
C134  C135  S    
C146  H171  S    
C14   C30   A    
C72   H8    S    
C23   O39   S    
C8    C46   S    
C31   C44   A    
N14   H196  S    
C88   H36   S    
C116  H101  S    
C119  H107  S    
C124  H118  S    
Cu4   O13   S    
Cu1   O3    S    
C52   O20   S    
C25   N5    S    
N6    H180  S    
C16   C59   A    
C136  H148  S    
O36   C134  S    
C142  H161  S    
C17   O33   S    
N19   H205  S    
C117  H102  S    
C101  C102  S    
Cu1   O6    S    
C103  H69   S    
C50   C66   A    
C77   C78   S    
C55   O23   S    
Cu3   N4    S    
C54   C76   A    
C95   H51   S    
C141  H159  S    
C92   C93   S    
C109  H84   S    
C112  H91   S    
C102  C103  S    
C123  H117  S    
C4    O7    A    
C118  H104  S    
C70   H6    S    
C21   O37   S    
N6    H179  S    
C49   O17   S    
C148  H174  S    
C140  C141  S    
N16   H199  S    
C23   C64   A    
N8    H184  S    
C97   H56   S    
C127  H127  S    
C29   N9    S    
C51   C73   A    
C56   O24   S    
C90   C91   S    
C109  H85   S    
C79   H15   S    
C91   H41   S    
O31   C119  S    
C82   H22   S    
N5    H177  S    
C1    O4    A    
C23   C39   A    
C24   C40   A    
C28   N8    S    
C121  H112  S    
C145  H167  S    
C147  H173  S    
C98   H59   S    
Cu3   Cu4   S    
C144  C145  S    
C132  C133  S    
C110  H86   S    
C7    O16   A    
O21   C89   S    
O19   C83   S    
C81   H18   S    
C96   H54   S    
