data_mof_unit_49528.cif
_audit_creation_date              2012-12-10T17:05:21-0500
_audit_creation_method            fapswitch 2.2
_symmetry_space_group_name_H-M    P1
_symmetry_Int_Tables_number       1
_space_group_crystal_system       triclinic
_cell_length_a                    10.050731
_cell_length_b                    10.694968
_cell_length_c                    15.403104
_cell_angle_alpha                 89.446636
_cell_angle_beta                  67.9173
_cell_angle_gamma                 88.651022
_cell_volume                      1533.82887285

loop_
_atom_site_label
_atom_site_type_symbol
_atom_type_description
_atom_site_fract_x
_atom_site_fract_y
_atom_site_fract_z
_atom_type_partial_charge
C1    C     C_R   0.503060 0.737110 0.491769 0.895232
C2    C     C_R   0.709783 0.373699 0.043410 0.177845
C3    C     C_R   0.569669 0.420310 0.095115 0.094630
C4    C     C_R   0.409669 0.498908 0.676519 0.867679
C5    C     C_R   0.812541 0.367573 0.085046 -0.221236
C6    C     C_R   0.777920 0.412428 0.176109 -0.193408
C7    C     C_R   0.544725 0.479697 0.179967 -0.231209
C8    C     C_2   0.630727 0.064837 0.450747 0.025739
C9    C     C_2   0.509638 0.129685 0.499549 -0.363439
C10   C     C_2   0.628493 0.930283 0.460214 -0.260772
C11   C     C_2   0.514736 0.865559 0.462292 -0.180267
C12   C     C_R   0.405069 0.432083 0.917322 0.095386
C13   C     C_2   0.054443 0.414882 0.539009 -0.077948
C14   C     C_2   0.916239 0.405533 0.523256 -0.009701
C15   C     C_R   0.502622 0.262510 0.498987 0.925837
C16   C     C_R   0.589858 0.496885 0.323769 0.862827
C17   C     C_R   0.352121 0.486178 0.779159 -0.116488
C18   C     C_R   0.643229 0.469433 0.223560 -0.063223
C19   C     C_R   0.161642 0.495184 0.933145 -0.247278
C20   C     C_R   0.206181 0.508640 0.836267 -0.007202
C21   C     C_R   0.448739 0.447582 0.820463 -0.268541
C22   C     C_1   0.764295 0.121736 0.392316 0.216804
C23   C     C_R   0.259709 0.458781 0.973931 0.139012
C24   C     C_1   0.409701 0.915770 0.426106 0.205577
C25   C     C_1   0.100223 0.548706 0.798771 0.186227
C26   C     C_1   0.252873 0.395953 0.212262 0.163881
C27   C     C_R   0.504476 0.399863 0.959692 0.058933
C28   C     C_R   0.461153 0.415536 0.057579 0.009438
C29   C     C_R   0.311608 0.425443 0.113326 -0.025271
C30   C     C_R   0.213365 0.448605 0.070890 -0.266752
C31   C     C_R   0.645749 0.354085 0.908145 -0.206096
C32   C     C_R   0.745011 0.336621 0.950794 -0.223359
H1    H     H_    0.100236 0.460224 0.113882 0.148724
H2    H     H_    0.851605 0.300100 0.909867 0.148682
H3    H     H_    0.050687 0.516174 0.977077 0.150453
H4    H     H_    0.560058 0.434308 0.775909 0.167076
H5    H     H_    0.680792 0.327067 0.835521 0.143786
H6    H     H_    0.900654 0.671623 0.456217 0.191133
H7    H     H_    0.808747 0.654960 0.572063 0.222321
H8    H     H_    0.918091 0.326353 0.047933 0.145422
H9    H     H_    0.412287 0.083494 0.543794 0.147457
H10   H     H_    0.716462 0.885955 0.474658 0.170865
H11   H     H_    0.078955 0.344490 0.582263 0.141975
H12   H     H_    0.134599 0.550844 0.446482 0.205303
H13   H     H_    0.865351 0.315292 0.535170 0.127427
H14   H     H_    0.446925 0.534010 0.213734 0.161314
H15   H     H_    0.854391 0.400459 0.209858 0.166336
N1    N     N_2   0.148330 0.498670 0.499030 -0.175083
N2    N     N_2   0.852680 0.498640 0.499000 -0.078735
N3    N     N_1   0.870910 0.167148 0.345614 -0.204558
N4    N     N_1   0.326267 0.955458 0.397290 -0.194728
N5    N     N_3   0.892984 0.617197 0.514526 -0.402712
N6    N     N_1   0.015001 0.580650 0.768973 -0.197016
N7    N     N_1   0.205448 0.371810 0.291296 -0.185485
O1    O     O_R   0.386950 0.680940 0.500010 -0.604003
O2    O     O_R   0.613110 0.680900 0.499990 -0.630849
O3    O     O_R   0.322330 0.500030 0.632270 -0.597391
O4    O     O_R   0.548480 0.499990 0.632240 -0.614775
O5    O     O_R   0.386890 0.319100 0.500010 -0.603176
O6    O     O_R   0.613050 0.319060 0.499990 -0.611969
O7    O     O_R   0.451520 0.500010 0.367760 -0.607318
O8    O     O_R   0.677670 0.499970 0.367730 -0.606885
Zn1   Zn    Zn3+2 0.349000 0.500030 0.500020 0.971291
Zn2   Zn    Zn3+2 0.651000 0.499970 0.499980 0.942260

loop_
_geom_bond_atom_site_label_1
_geom_bond_atom_site_label_2
_ccdc_geom_bond_type
C4    O3    A    
C13   N1    D    
C19   C23   A    
O2    Zn2   S    
O3    Zn1   S    
C29   C30   A    
C12   C21   A    
C9    H9    S    
C10   H10   S    
C15   O6    A    
O5    Zn1   S    
C19   C20   A    
C1    C11   S    
O6    Zn2   S    
C22   N3    T    
N2    N5    S    
C7    C18   A    
C24   N4    T    
O7    Zn1   S    
C2    C3    A    
C9    C15   S    
N2    Zn2   S    
C19   H3    S    
C13   C14   S    
C12   C23   A    
C7    H14   S    
C16   O8    A    
C4    C17   S    
C26   N7    T    
C8    C10   S    
C28   C29   A    
C1    O2    A    
C25   N6    T    
H7    N5    S    
C14   H13   S    
C3    C7    A    
O4    Zn2   S    
C5    C6    A    
C6    C18   A    
C31   C32   A    
C1    O1    A    
C14   N2    D    
H6    N5    S    
C16   O7    A    
C12   C27   A    
C27   C31   A    
C2    C5    A    
C23   C30   A    
C6    H15   S    
C11   C24   S    
C13   H11   S    
C17   C20   A    
H12   N1    S    
C26   C29   S    
C2    C32   A    
C10   C11   D    
C5    H8    S    
C4    O4    A    
C27   C28   A    
C21   H4    S    
C3    C28   A    
N1    Zn1   S    
O8    Zn2   S    
C30   H1    S    
C15   O5    A    
C8    C22   S    
C16   C18   S    
C17   C21   A    
C31   H5    S    
O1    Zn1   S    
C8    C9    D    
C20   C25   S    
C32   H2    S    
