data_mof_unit_27646.cif
_audit_creation_date              2013-03-05T16:35:36-0500
_audit_creation_method            fapswitch 2.2
_symmetry_space_group_name_H-M    P1
_symmetry_Int_Tables_number       1
_space_group_crystal_system       triclinic
_cell_length_a                    7.781085
_cell_length_b                    9.094091
_cell_length_c                    17.366585
_cell_angle_alpha                 89.997874
_cell_angle_beta                  84.770586
_cell_angle_gamma                 89.999038
_cell_volume                      1223.77749362

loop_
_atom_site_label
_atom_site_type_symbol
_atom_site_description
_atom_site_fract_x
_atom_site_fract_y
_atom_site_fract_z
_atom_type_partial_charge
O1    O     O_R   0.357240 0.711600 0.500000 -0.576130
O2    O     O_R   0.642760 0.288400 0.500000 -0.566886
O3    O     O_R   0.642760 0.711600 0.500000 -0.575956
O4    O     O_R   0.357240 0.288400 0.500000 -0.566932
H1    H     H_    0.218864 0.650137 0.888794 0.174440
H2    H     H_    0.781095 0.650731 0.111359 0.174238
C1    C     C_R   0.499999 0.779986 0.499998 0.839422
C2    C     C_R   0.500001 0.220017 0.500000 0.888080
O5    O     O_R   0.340660 0.500000 0.613590 -0.549270
O6    O     O_R   0.659340 0.500000 0.386410 -0.549555
O7    O     O_R   0.626230 0.500000 0.613600 -0.549981
O8    O     O_R   0.373770 0.500000 0.386400 -0.550036
C3    C     C_R   0.475596 0.498838 0.650354 0.865314
C4    C     C_R   0.524394 0.498857 0.349653 0.865790
Cu1   Cu    Cu3+1 0.330920 0.500000 0.500000 1.141955
Cu2   Cu    Cu3+1 0.669080 0.500000 0.500000 1.141987
H3    H     H_    0.343003 0.362664 0.113215 0.182508
H4    H     H_    0.657914 0.363132 0.886698 0.182514
N1    N     N_1   0.923170 0.500000 0.500010 0.006664
N2    N     N_1   0.076830 0.500000 0.499990 0.006700
C5    C     C_R   0.457251 0.495710 0.735024 -0.254712
C6    C     C_R   0.542757 0.495829 0.264995 -0.254640
C7    C     C_R   0.576600 0.415544 0.775416 0.308590
C8    C     C_R   0.423784 0.415381 0.224550 0.308515
C9    C     C_R   0.568645 0.426612 0.855712 -0.181201
C10   C     C_R   0.432010 0.426337 0.144246 -0.181293
C11   C     C_R   0.441506 0.512409 0.896425 0.039194
C12   C     C_R   0.559036 0.512355 0.103590 0.039280
C13   C     C_R   0.319027 0.585772 0.857050 -0.176279
C14   C     C_R   0.681116 0.586072 0.143039 -0.176333
C15   C     C_R   0.325835 0.579005 0.776701 0.307850
C16   C     C_R   0.673963 0.579420 0.223394 0.308152
C17   C     C_2   0.429571 0.519795 0.980848 -0.151371
C18   C     C_2   0.571061 0.519811 0.019168 -0.151372
C19   C     C_1   0.499999 0.934636 0.499998 -0.085898
C20   C     C_1   0.500002 0.065374 0.499998 -0.067016
H5    H     H_    0.698377 0.528056 0.988017 0.163724
H6    H     H_    0.302257 0.527912 0.012015 0.163708
N3    N     N_R   0.701164 0.317693 0.736432 0.154616
O9    O     O_R   0.851994 0.300969 0.762069 -0.298537
O10   O     O_R   0.655220 0.228222 0.683531 -0.344881
N4    N     N_R   0.299275 0.317446 0.263495 0.154450
O11   O     O_R   0.148447 0.300741 0.237863 -0.298835
O12   O     O_R   0.345198 0.228018 0.316419 -0.344707
N5    N     N_R   0.797226 0.662379 0.261785 0.127932
O13   O     O_R   0.800549 0.804825 0.255046 -0.319686
O14   O     O_R   0.928516 0.595475 0.287287 -0.291351
N6    N     N_R   0.201740 0.661301 0.738431 0.127883
O15   O     O_R   0.195712 0.803563 0.746137 -0.319737
O16   O     O_R   0.071739 0.593380 0.712382 -0.290910

loop_
_geom_bond_atom_site_label_1
_geom_bond_atom_site_label_2
_geom_bond_distance
_ccdc_geom_bond_type
N4    O12   1.301403 A    
O1    Cu1   1.935180 S    
C9    C11   1.399962 A    
C18   H5    1.087196 S    
C8    N4    1.438685 S    
C16   N5    1.431868 S    
N1    N2    1.195611 T    
C10   C12   1.400049 A    
C19   C20   1.188947 T    
O8    Cu1   1.970628 S    
O4    C2    1.273056 A    
C4    C6    1.464388 S    
O4    Cu1   1.935174 S    
C12   C14   1.392761 A    
C17   C18   1.337359 D    
O5    Cu1   1.981016 S    
C12   C18   1.462142 S    
C13   C15   1.392913 A    
O6    Cu2   1.981016 S    
N5    O13   1.300729 A    
C11   C17   1.462148 S    
C14   C16   1.392841 A    
C5    C15   1.417177 A    
H4    C9    1.083254 S    
C6    C16   1.416919 A    
Cu2   N1    1.977111 S    
C7    N3    1.438764 S    
H3    C10   1.083254 S    
N6    O16   1.301107 A    
N6    O15   1.301056 A    
H2    C14   1.084261 S    
C8    C10   1.393797 A    
O3    C1    1.273066 A    
C15   N6    1.432180 S    
C7    C9    1.393833 A    
C5    C7    1.415851 A    
O6    C4    1.277627 A    
Cu1   N2    1.977112 S    
C6    C8    1.415695 A    
O7    Cu2   1.970627 S    
C11   C13   1.392734 A    
N4    O11   1.301463 A    
C3    C5    1.464615 S    
Cu1   Cu2   2.631252 S    
H1    C13   1.084277 S    
O7    C3    1.282562 A    
O2    Cu2   1.935181 S    
N3    O10   1.301465 A    
C2    C20   1.406330 S    
N5    O14   1.300921 A    
N3    O9    1.301534 A    
O5    C3    1.277629 A    
O1    C1    1.273074 A    
C1    C19   1.406402 S    
O2    C2    1.273062 A    
O3    Cu2   1.935174 S    
C17   H6    1.087214 S    
O8    C4    1.282437 A    
