data_mof_unit_57297.cif
_audit_creation_date              2012-12-10T18:02:08-0500
_audit_creation_method            fapswitch 2.2
_symmetry_space_group_name_H-M    P1
_symmetry_Int_Tables_number       1
_space_group_crystal_system       triclinic
_cell_length_a                    11.109158
_cell_length_b                    9.549011
_cell_length_c                    23.55138
_cell_angle_alpha                 89.863412
_cell_angle_beta                  90.629659
_cell_angle_gamma                 89.1514
_cell_volume                      2497.93208797

loop_
_atom_site_label
_atom_site_type_symbol
_atom_type_description
_atom_site_fract_x
_atom_site_fract_y
_atom_site_fract_z
_atom_type_partial_charge
C1    C     C_R   0.262144 0.501380 0.501743 0.798021
C2    C     C_R   0.737939 0.499169 0.497280 0.806254
C3    C     C_R   0.525070 0.361385 0.241218 -0.003298
C4    C     C_R   0.475137 0.357781 0.758409 -0.014964
C5    C     C_R   0.522471 0.369699 0.300394 -0.256800
C6    C     C_R   0.475512 0.368404 0.699250 -0.240238
C7    C     C_R   0.504524 0.497952 0.328122 -0.204370
C8    C     C_R   0.496232 0.496220 0.671886 -0.205606
C9    C     C_R   0.490797 0.621162 0.295721 0.605260
C10   C     C_R   0.514411 0.617141 0.704613 0.602174
C11   C     C_R   0.494015 0.616204 0.236124 -0.120994
C12   C     C_R   0.514163 0.610108 0.764266 -0.124439
C13   C     C_R   0.510933 0.485552 0.208667 0.138735
C14   C     C_R   0.495054 0.479480 0.791263 0.133346
C15   C     C_R   0.064839 0.379812 0.514254 -0.081434
C16   C     C_R   0.935056 0.624931 0.485418 -0.054966
C17   C     C_R   0.940230 0.373804 0.503855 -0.079917
C18   C     C_R   0.061209 0.628114 0.489632 -0.075363
C19   C     C_R   0.872517 0.498430 0.493992 -0.163317
C20   C     C_R   0.127886 0.504395 0.503181 -0.166957
C21   C     C_R   0.435013 0.075543 0.460369 0.511400
C22   C     C_R   0.563856 0.924519 0.539995 0.542552
C23   C     C_R   0.564498 0.072937 0.539786 0.502528
C24   C     C_R   0.435502 0.927102 0.460242 0.560644
C25   C     C_R   0.500883 0.500015 0.390872 0.879091
C26   C     C_R   0.499108 0.499649 0.609126 0.882013
C27   C     C_R   0.608721 0.461842 0.879156 0.636807
C28   C     C_R   0.404053 0.489421 0.118946 0.631526
C29   C     C_R   0.394356 0.463165 0.881281 0.689077
C30   C     C_R   0.616702 0.455138 0.120266 0.648540
C31   C     C_R   0.396119 0.442326 0.940349 -0.068665
C32   C     C_R   0.619286 0.445218 0.060117 -0.075640
C33   C     C_R   0.507241 0.447363 0.969797 -0.003481
C34   C     C_R   0.508744 0.452353 0.029919 0.012809
C35   C     C_R   0.615957 0.447246 0.939114 -0.072904
C36   C     C_R   0.399049 0.469310 0.059448 -0.093752
C37   C     C_R   0.289961 0.420437 0.971135 -0.106256
C38   C     C_R   0.727308 0.426044 0.029294 -0.103547
C39   C     C_R   0.289009 0.459622 0.028634 -0.091611
C40   C     C_R   0.726595 0.432216 0.969359 -0.091790
Cu1   Cu    Cu3+1 0.500000 0.640660 0.500000 1.160194
Cu2   Cu    Cu3+1 0.500000 0.359340 0.500000 1.107211
H1    H     H_    0.533135 0.274373 0.325107 0.251228
H2    H     H_    0.460992 0.275084 0.674165 0.253980
N1    N     N_R   0.499410 0.469221 0.852174 -0.437572
N2    N     N_R   0.510845 0.478308 0.147555 -0.429011
N3    N     N_R   0.500000 0.852070 0.500000 -0.350971
N4    N     N_R   0.500000 0.147930 0.500000 -0.349012
O1    O     O_R   0.319640 0.618740 0.500000 -0.548207
O2    O     O_R   0.680360 0.381260 0.500000 -0.549850
O3    O     O_R   0.680360 0.618740 0.500000 -0.553313
O4    O     O_R   0.319640 0.381260 0.500000 -0.547955
O5    O     O_R   0.499960 0.618810 0.417880 -0.481069
O6    O     O_R   0.500040 0.381190 0.582120 -0.547233
O7    O     O_R   0.500040 0.618810 0.582120 -0.480934
O8    O     O_R   0.499960 0.381190 0.417880 -0.547663
O9    O     O_2   0.708800 0.471956 0.847650 -0.477372
O10   O     O_2   0.304003 0.517753 0.148863 -0.483265
O11   O     O_2   0.289017 0.484680 0.853297 -0.469745
O12   O     O_2   0.717979 0.442872 0.151988 -0.478633
C41   C     C_2   0.193955 0.325349 0.948813 0.904078
O13   O     O_2   0.205496 0.266604 0.903068 -0.490950
O14   O     O_R   0.097094 0.289434 0.982968 -0.750987
H3    H     H_    0.046512 0.212435 0.965885 0.385295
C42   C     C_2   0.841518 0.392590 0.058857 0.982676
O15   O     O_2   0.895213 0.485158 0.083566 -0.498726
O16   O     O_R   0.884888 0.254513 0.059689 -0.708490
H4    H     H_    0.960499 0.242263 0.083704 0.391489
C43   C     C_2   0.173606 0.503001 0.053404 1.027265
O17   O     O_2   0.126269 0.429349 0.088962 -0.484114
O18   O     O_R   0.121089 0.630396 0.036382 -0.702790
H5    H     H_    0.048116 0.657679 0.059401 0.388875
C44   C     C_2   0.843130 0.422339 0.939512 0.956922
O19   O     O_2   0.866231 0.320229 0.910128 -0.504915
O20   O     O_R   0.925673 0.530560 0.945113 -0.701908
H6    H     H_    0.999808 0.515286 0.921093 0.366741
C45   C     C_2   0.542252 0.220977 0.214944 0.935592
O21   O     O_2   0.503070 0.196838 0.167301 -0.583788
O22   O     O_R   0.602645 0.114860 0.245408 -0.699981
H7    H     H_    0.611312 0.024999 0.222909 0.367044
C46   C     C_2   0.455010 0.217365 0.784225 0.953302
O23   O     O_2   0.488098 0.191299 0.832835 -0.573704
O24   O     O_R   0.399106 0.113116 0.752179 -0.694337
H8    H     H_    0.389504 0.022662 0.774189 0.369006
F1    F     F_    0.476429 0.746712 0.321970 -0.548610
F2    F     F_    0.530854 0.742348 0.678575 -0.546067
C47   C     C_2   0.478096 0.748330 0.203163 0.950725
O25   O     O_2   0.531068 0.764750 0.158443 -0.575934
O26   O     O_R   0.401811 0.854450 0.223323 -0.639734
H9    H     H_    0.396060 0.937793 0.196648 0.360610
C48   C     C_2   0.535093 0.739915 0.797685 0.946493
O27   O     O_2   0.489504 0.755251 0.844324 -0.572472
O28   O     O_R   0.606995 0.845592 0.775633 -0.633924
H10   H     H_    0.615125 0.928059 0.802366 0.363177
C49   C     C_2   0.127876 0.256671 0.539396 0.951277
O29   O     O_2   0.163615 0.261033 0.588652 -0.539760
O30   O     O_R   0.151596 0.139415 0.506025 -0.709117
H11   H     H_    0.207416 0.070745 0.526330 0.354046
C50   C     C_2   0.869789 0.758235 0.474610 0.901579
O31   O     O_2   0.824588 0.782613 0.427976 -0.546307
O32   O     O_R   0.857560 0.853031 0.519093 -0.647269
H12   H     H_    0.798830 0.930959 0.509278 0.342643
C51   C     C_2   0.883773 0.235422 0.498953 0.942118
O33   O     O_2   0.880924 0.157113 0.539985 -0.496166
O34   O     O_R   0.833016 0.196891 0.446741 -0.712910
H13   H     H_    0.791124 0.103737 0.447772 0.326886
C52   C     C_2   0.119481 0.765272 0.482106 0.948530
O35   O     O_2   0.167214 0.821686 0.522852 -0.557559
O36   O     O_R   0.112036 0.833204 0.429512 -0.668471
H14   H     H_    0.148390 0.929832 0.430341 0.402046
F3    F     F_    0.368167 0.146008 0.420881 -0.564672
F4    F     F_    0.629467 0.854109 0.579901 -0.503425
F5    F     F_    0.630516 0.140760 0.579527 -0.548186
F6    F     F_    0.370833 0.859166 0.420147 -0.534420

loop_
_geom_bond_atom_site_label_1
_geom_bond_atom_site_label_2
_ccdc_geom_bond_type
C38   C40   A    
C47   O25   D    
C24   F6    S    
O28   H10   S    
C8    C26   S    
C44   O19   D    
C12   C48   S    
C49   O29   D    
C25   O8    A    
C26   O7    A    
O30   H11   S    
C45   O21   D    
C28   N2    A    
O32   H12   S    
O24   H8    S    
C25   O5    A    
C15   C49   S    
C13   N2    S    
C33   C35   A    
C23   F5    S    
C40   C44   S    
C43   O18   S    
Cu1   Cu2   S    
C41   O14   S    
C18   C52   S    
Cu1   O7    S    
C2    O2    A    
Cu2   O8    S    
C4    C46   S    
C29   O11   S    
C11   C47   S    
C42   O16   S    
C30   O12   S    
C52   O35   D    
C31   C33   A    
C32   C38   A    
C18   C20   A    
C3    C13   A    
C21   N4    A    
C9    F1    S    
C27   N1    A    
C22   N3    A    
C5    H1    S    
C6    H2    S    
C44   O20   S    
C41   O13   D    
C26   O6    A    
Cu1   O1    S    
C21   F3    S    
C46   O23   D    
C14   N1    S    
C45   O22   S    
Cu1   N3    S    
C15   C20   A    
O16   H4    S    
O22   H7    S    
C4    C6    A    
C27   O9    S    
C48   O27   D    
C5    C7    A    
C6    C8    A    
C27   C35   A    
C31   C37   A    
C29   N1    A    
C32   C34   A    
O20   H6    S    
C48   O28   S    
C50   O31   D    
C38   C42   S    
C29   C31   A    
C33   C34   A    
C39   C43   S    
C51   O34   S    
Cu2   N4    S    
C9    C11   A    
Cu1   O5    S    
C10   C12   A    
Cu2   O2    S    
C16   C18   A    
C50   O32   S    
C12   C14   A    
C22   F4    S    
C47   O26   S    
C3    C45   S    
C15   C17   A    
C10   F2    S    
C1    C20   S    
C23   N4    A    
C2    C19   S    
C24   N3    A    
C30   N2    A    
C36   C39   A    
C3    C5    A    
C46   O24   S    
C37   C41   S    
C49   O30   S    
C16   C50   S    
C28   O10   S    
O34   H13   S    
C7    C25   S    
C35   C40   A    
C17   C51   S    
O18   H5    S    
C37   C39   A    
O36   H14   S    
Cu2   O6    S    
C30   C32   A    
C11   C13   A    
C52   O36   S    
C16   C19   A    
C17   C19   A    
C34   C36   A    
C4    C14   A    
C43   O17   D    
C1    O4    A    
C2    O3    A    
O14   H3    S    
C7    C9    A    
C28   C36   A    
C8    C10   A    
C42   O15   D    
C21   C24   A    
C51   O33   D    
C22   C23   A    
O26   H9    S    
C1    O1    A    
Cu1   O3    S    
Cu2   O4    S    
