data_mof_unit_9267.cif
_audit_creation_date              2013-03-05T16:35:52-0500
_audit_creation_method            fapswitch 2.2
_symmetry_space_group_name_H-M    P1
_symmetry_Int_Tables_number       1
_space_group_crystal_system       triclinic
_cell_length_a                    23.564781
_cell_length_b                    9.081739
_cell_length_c                    7.773316
_cell_angle_alpha                 89.972054
_cell_angle_beta                  89.997148
_cell_angle_gamma                 90.000612
_cell_volume                      1663.56086567

loop_
_atom_site_label
_atom_site_type_symbol
_atom_site_description
_atom_site_fract_x
_atom_site_fract_y
_atom_site_fract_z
_atom_type_partial_charge
O1    O     O_R   0.500000 0.288390 0.642760 -0.586424
O2    O     O_R   0.500000 0.711610 0.357240 -0.586457
O3    O     O_R   0.500000 0.711610 0.642760 -0.580032
O4    O     O_R   0.500000 0.288390 0.357240 -0.580006
H1    H     H_    0.947888 0.132707 0.572817 0.185928
H2    H     H_    0.051021 0.867303 0.426736 0.186219
H3    H     H_    0.947889 0.867324 0.426948 0.185927
H4    H     H_    0.051020 0.132746 0.573102 0.186224
C1    C     C_R   0.500105 0.219990 0.500024 0.822834
C2    C     C_R   0.500103 0.780010 0.499976 0.822497
O5    O     O_R   0.417880 0.500000 0.642820 -0.544258
O6    O     O_R   0.582120 0.500000 0.357180 -0.542261
O7    O     O_R   0.582120 0.500000 0.642820 -0.542395
O8    O     O_R   0.417880 0.500000 0.357180 -0.544408
C3    C     C_R   0.207935 0.500038 0.499977 0.230452
C4    C     C_R   0.790885 0.500014 0.499900 0.212885
C5    C     C_R   0.390423 0.500016 0.500004 0.835585
C6    C     C_R   0.609283 0.499997 0.499994 0.853023
Cu1   Cu    Cu3+1 0.500000 0.500000 0.669080 1.037837
Cu2   Cu    Cu3+1 0.500000 0.500000 0.330920 1.037807
H5    H     H_    0.214326 0.538882 0.228002 0.166714
H6    H     H_    0.784272 0.373705 0.266430 0.177276
H7    H     H_    0.214299 0.461279 0.771965 0.166590
H8    H     H_    0.784293 0.626344 0.733364 0.177436
C7    C     C_R   0.296905 0.526399 0.345733 0.383325
C8    C     C_R   0.701880 0.425424 0.369225 0.405458
C9    C     C_R   0.296896 0.473719 0.654279 0.383495
C10   C     C_R   0.701895 0.574623 0.630671 0.405284
C11   C     C_R   0.327436 0.500047 0.500007 -0.259063
C12   C     C_R   0.671730 0.500022 0.499965 -0.256329
C13   C     C_R   0.880143 0.629767 0.473916 0.553520
C14   C     C_R   0.118761 0.370271 0.525860 0.549407
C15   C     C_R   0.880142 0.370257 0.525828 0.553513
C16   C     C_R   0.118761 0.629792 0.474039 0.549435
N1    N     N_R   0.851738 0.500011 0.499873 -0.443938
N2    N     N_R   0.147125 0.500034 0.499961 -0.445797
C17   C     C_R   0.939651 0.367503 0.526078 -0.019466
C18   C     C_R   0.059254 0.632512 0.473429 -0.019629
C19   C     C_R   0.939651 0.632528 0.473685 -0.019464
C20   C     C_R   0.059254 0.367540 0.526419 -0.019623
C21   C     C_R   0.969515 0.500018 0.499890 -0.017212
C22   C     C_R   0.029389 0.500023 0.499912 -0.016794
C23   C     C_R   0.969855 0.235984 0.552256 -0.164531
C24   C     C_R   0.029052 0.764044 0.447399 -0.165348
C25   C     C_R   0.969856 0.764052 0.447523 -0.164522
C26   C     C_R   0.029051 0.236002 0.552423 -0.165350
C27   C     C_1   0.500190 0.065384 0.500033 -0.188268
C28   C     C_1   0.500190 0.934615 0.499967 -0.188371
C29   C     C_R   0.237541 0.522951 0.346860 -0.196906
C30   C     C_R   0.761201 0.428400 0.368601 -0.185101
C31   C     C_R   0.237529 0.477154 0.653115 -0.196950
C32   C     C_R   0.761212 0.571633 0.631229 -0.184923
N3    N     N_1   0.500000 0.500000 0.076820 -0.025869
N4    N     N_1   0.500000 0.500000 0.923180 -0.025858
O9    O     O_2   0.850847 0.755392 0.447086 -0.530098
O10   O     O_2   0.148104 0.244295 0.549762 -0.529031
O11   O     O_2   0.850845 0.244629 0.552647 -0.530102
O12   O     O_2   0.148105 0.755775 0.450162 -0.529016
O13   O     O_3   0.324814 0.547404 0.191222 -0.534993
C33   C     C_3   0.324728 0.699060 0.152314 -0.182564
H9    H     H_    0.349684 0.716453 0.032987 0.199206
H10   H     H_    0.345273 0.764446 0.256306 0.127305
H11   H     H_    0.280955 0.739937 0.127859 0.153900
O14   O     O_3   0.673590 0.353153 0.238370 -0.537643
C34   C     C_3   0.668262 0.203520 0.284103 -0.254892
H12   H     H_    0.644260 0.145989 0.181405 0.189193
H13   H     H_    0.644018 0.190057 0.406130 0.130105
H14   H     H_    0.710542 0.149603 0.294717 0.172872
O15   O     O_3   0.324808 0.452867 0.808811 -0.534928
C35   C     C_3   0.324494 0.301337 0.848377 -0.182455
H15   H     H_    0.344808 0.235361 0.744472 0.127252
H16   H     H_    0.280676 0.261078 0.873477 0.153921
H17   H     H_    0.349548 0.284027 0.967523 0.199276
O16   O     O_3   0.673643 0.646920 0.761589 -0.537583
C36   C     C_3   0.667969 0.796345 0.715296 -0.254674
H18   H     H_    0.643168 0.809106 0.594230 0.130162
H19   H     H_    0.710135 0.850551 0.702584 0.172451
H20   H     H_    0.644372 0.854128 0.818667 0.189219

loop_
_geom_bond_atom_site_label_1
_geom_bond_atom_site_label_2
_geom_bond_distance
_ccdc_geom_bond_type
H8    C32   1.083255 S    
C9    C11   1.418734 A    
C5    C11   1.484287 S    
C21   C22   1.410906 A    
Cu1   Cu2   2.628625 S    
C10   O16   1.382234 S    
H5    C29   1.083403 S    
C19   C21   1.408820 A    
N3    N4    1.194293 T    
C20   C26   1.405055 A    
O5    Cu1   1.945889 S    
O7    C6    1.281500 A    
C33   H11   1.112620 S    
H3    C25   1.083079 S    
C4    C30   1.398110 A    
C18   C22   1.408959 A    
C8    C30   1.398139 A    
C4    N1    1.433973 S    
C33   H10   1.113983 S    
C8    O14   1.382240 S    
C34   H13   1.113972 S    
O3    Cu1   1.932547 S    
C35   H15   1.113986 S    
C6    C12   1.471566 S    
C3    C31   1.395136 A    
C9    O15   1.382496 S    
C19   C25   1.405155 A    
C14   C20   1.402490 A    
H1    C23   1.083080 S    
O13   C33   1.409973 S    
H2    C24   1.083083 S    
O8    C5    1.284962 A    
C36   H20   1.109332 S    
C9    C31   1.399353 A    
H4    C26   1.083084 S    
C7    C11   1.418744 A    
O1    Cu1   1.932747 S    
O16   C36   1.410125 S    
O7    Cu1   1.945866 S    
O2    Cu2   1.932746 S    
O8    Cu2   1.945868 S    
O1    C1    1.271855 A    
C15   C17   1.402522 A    
C33   H9    1.109489 S    
C17   C23   1.405156 A    
C36   H18   1.113816 S    
C18   C24   1.405055 A    
H7    C31   1.083394 S    
C27   C28   1.187614 T    
C34   H14   1.113200 S    
O6    Cu2   1.945886 S    
C35   H17   1.109491 S    
C36   H19   1.113265 S    
Cu1   N4    1.975199 S    
C1    C27   1.404087 S    
C2    C28   1.404085 S    
C13   N1    1.370093 A    
O2    C2    1.271854 A    
C14   N2    1.369607 A    
C3    N2    1.432965 S    
C24   C25   1.394939 A    
O5    C5    1.284968 A    
C15   O11   1.349634 S    
C16   C18   1.402488 A    
C4    C32   1.398112 A    
Cu2   N3    1.975199 S    
C8    C12   1.413223 A    
H6    C30   1.083248 S    
O14   C34   1.410086 S    
C10   C12   1.413263 A    
O3    C2    1.271653 A    
C10   C32   1.398072 A    
C20   C22   1.408959 A    
C15   N1    1.370093 A    
C13   C19   1.402520 A    
C16   N2    1.369607 A    
C3    C29   1.395126 A    
C17   C21   1.408820 A    
O15   C35   1.409978 S    
C23   C26   1.394939 A    
C7    C29   1.399267 A    
O4    Cu2   1.932548 S    
C34   H12   1.109345 S    
O6    C6    1.281478 A    
C16   O12   1.349594 S    
C35   H16   1.112577 S    
C7    O13   1.382447 S    
C13   O9    1.349633 S    
O4    C1    1.271653 A    
C14   O10   1.349596 S    
