data_mof_unit_19583.cif
_audit_creation_date              2012-12-10T20:25:42-0500
_audit_creation_method            fapswitch 2.2
_symmetry_space_group_name_H-M    P1
_symmetry_Int_Tables_number       1
_space_group_crystal_system       triclinic
_cell_length_a                    8.572244
_cell_length_b                    10.643383
_cell_length_c                    9.960819
_cell_angle_alpha                 87.883017
_cell_angle_beta                  98.231359
_cell_angle_gamma                 92.229712
_cell_volume                      898.306260578

loop_
_atom_site_label
_atom_site_type_symbol
_atom_type_description
_atom_site_fract_x
_atom_site_fract_y
_atom_site_fract_z
_atom_type_partial_charge
C1    C     C_R   0.517165 0.260616 0.502657 0.900537
C2    C     C_R   0.580157 0.940965 0.377888 0.041817
C3    C     C_R   0.559554 0.871725 0.498377 -0.136212
C4    C     C_R   0.594663 0.932186 0.620915 0.043384
C5    C     C_3   0.527778 0.916735 0.751055 -0.467508
C6    C     C_3   0.536265 0.059252 0.753863 -0.082063
C7    C     C_R   0.362751 0.477557 0.055565 0.125862
C8    C     C_R   0.623930 0.550624 0.086272 0.154363
C9    C     C_R   0.624557 0.550543 0.942935 0.062473
C10   C     C_R   0.365943 0.468979 0.914646 0.072329
C11   C     C_3   0.274578 0.345110 0.915904 0.050019
C12   C     C_R   0.202106 0.495903 0.465704 1.007473
C13   C     C_3   0.250446 0.367926 0.062283 -0.256293
C14   C     C_R   0.512987 0.740236 0.498951 0.891979
C15   C     C_R   0.797951 0.502884 0.534189 0.890069
C16   C     C_2   0.039487 0.469574 0.455906 -0.081705
C17   C     C_2   0.961245 0.527473 0.543108 -0.117583
C18   C     C_R   0.601261 0.060799 0.623403 0.050836
C19   C     C_R   0.567774 0.131581 0.503523 -0.161415
C20   C     C_R   0.587338 0.073183 0.380932 0.059175
H1    H     H_    0.292871 0.294212 0.139757 0.189932
H2    H     H_    0.404576 0.877486 0.737280 0.201873
H3    H     H_    0.609352 0.869308 0.832417 0.201908
H4    H     H_    0.418873 0.100949 0.742055 0.220628
N1    N     N_R   0.498950 0.499140 0.142680 -0.124734
N2    N     N_R   0.498950 0.499180 0.857030 -0.124624
O1    O     O_R   0.500020 0.316790 0.614690 -0.601819
O2    O     O_R   0.500000 0.316760 0.385350 -0.599536
O3    O     O_R   0.271760 0.500010 0.587850 -0.589592
O4    O     O_R   0.271740 0.499970 0.358500 -0.638580
O5    O     O_R   0.500000 0.683240 0.614650 -0.634567
O6    O     O_R   0.499980 0.683210 0.385310 -0.579383
O7    O     O_R   0.728260 0.500030 0.641500 -0.656233
O8    O     O_R   0.728240 0.499990 0.412150 -0.603934
Zn1   Zn    Zn3+2 0.500010 0.500020 0.653130 0.948322
Zn2   Zn    Zn3+2 0.499990 0.499980 0.346870 0.961044
N3    N     N_3   0.978441 0.360041 0.381728 -0.481928
H5    H     H_    0.897333 0.385717 0.297915 0.208450
H6    H     H_    0.923837 0.297217 0.445152 0.214665
N4    N     N_3   0.759862 0.605327 0.892114 -0.490614
H7    H     H_    0.724619 0.662986 0.807181 0.231714
H8    H     H_    0.829168 0.532762 0.869608 0.208564
C21   C     C_2   0.128691 0.338825 0.811113 0.508910
H9    H     H_    0.040242 0.409052 0.807550 0.046240
O9    O     O_2   0.108189 0.254707 0.729658 -0.603953
N5    N     N_3   0.375245 0.238561 0.911822 -0.423885
H10   H     H_    0.315904 0.157637 0.944073 0.185620
H11   H     H_    0.477874 0.250334 0.981548 0.179152
N6    N     N_3   0.090967 0.407678 0.071350 -0.496034
H12   H     H_    0.021746 0.327096 0.087925 0.187127
H13   H     H_    0.093944 0.463424 0.155294 0.235155
N7    N     N_3   0.030130 0.632421 0.621045 -0.456875
H14   H     H_    0.967451 0.712546 0.586785 0.172825
H15   H     H_    0.016154 0.615381 0.722559 0.182614
N8    N     N_3   0.606837 0.146345 0.260005 -0.431148
H16   H     H_    0.713593 0.124552 0.228702 0.178042
H17   H     H_    0.514370 0.123107 0.183945 0.171856
N9    N     N_3   0.584791 0.878936 0.253020 -0.423247
H18   H     H_    0.689505 0.906035 0.216015 0.171257
H19   H     H_    0.489360 0.906714 0.182223 0.183658
N10   N     N_3   0.651964 0.107477 0.864550 -0.461288
H20   H     H_    0.759217 0.062915 0.867422 0.204207
H21   H     H_    0.675016 0.202737 0.842884 0.215847
N11   N     N_3   0.752279 0.609394 0.171635 -0.384215
H22   H     H_    0.761500 0.703628 0.139685 0.180190
H23   H     H_    0.856055 0.567171 0.156948 0.168851

loop_
_geom_bond_atom_site_label_1
_geom_bond_atom_site_label_2
_ccdc_geom_bond_type
C9    N4    S    
C7    C10   A    
C21   H9    S    
C2    N9    S    
C11   C21   S    
N3    H5    S    
C6    N10   S    
C12   O3    A    
C1    O2    A    
C11   C13   S    
O3    Zn1   S    
C15   O8    A    
C19   C20   A    
C7    N1    A    
O4    Zn2   S    
C14   O5    A    
N8    H16   S    
C4    C18   A    
N11   H22   S    
C10   N2    A    
N4    H8    S    
C2    C3    A    
C13   H1    S    
N3    H6    S    
C8    N1    A    
C21   O9    D    
N11   H23   S    
N10   H20   S    
C3    C14   S    
C8    N11   S    
C20   N8    S    
C13   N6    S    
C4    C5    S    
O6    Zn2   S    
C17   N7    S    
C6    H4    S    
N4    H7    S    
O7    Zn1   S    
N7    H15   S    
C9    N2    A    
C18   C19   A    
N9    H19   S    
O8    Zn2   S    
N8    H17   S    
C5    C6    S    
C6    C18   S    
O5    Zn1   S    
C1    C19   S    
C10   C11   S    
N1    Zn2   S    
C2    C20   A    
C3    C4    A    
N5    H11   S    
N2    Zn1   S    
C7    C13   S    
N7    H14   S    
O2    Zn2   S    
C15   C17   S    
N6    H12   S    
C1    O1    A    
N5    H10   S    
C16   C17   D    
C11   N5    S    
O1    Zn1   S    
N9    H18   S    
C12   O4    A    
C15   O7    A    
N10   H21   S    
C5    H2    S    
C12   C16   S    
C16   N3    S    
C14   O6    A    
C8    C9    A    
N6    H13   S    
C5    H3    S    
