data_mof_unit_6484.cif
_audit_creation_date              2012-10-26T18:31:56-0400
_audit_creation_method            fapswitch 2.2
_symmetry_space_group_name_H-M    P1
_symmetry_Int_Tables_number       1
_space_group_crystal_system       triclinic
_cell_length_a                    12.45777
_cell_length_b                    13.247132
_cell_length_c                    14.339964
_cell_angle_alpha                 94.350927
_cell_angle_beta                  108.381142
_cell_angle_gamma                 117.100382
_cell_volume                      1930.54159361

loop_
_atom_site_label
_atom_site_type_symbol
_atom_type_description
_atom_site_fract_x
_atom_site_fract_y
_atom_site_fract_z
_atom_type_partial_charge
C1    C     C_R   0.648036 0.713268 0.504821 0.535239
C2    C     C_R   0.190711 0.469232 0.002599 0.030742
C3    C     C_R   0.120180 0.445264 0.066527 0.024867
C4    C     C_R   0.614734 0.511145 0.685859 0.551333
C5    C     C_R   0.321818 0.497513 0.039933 -0.125527
C6    C     C_R   0.386828 0.505212 0.141510 0.085699
C7    C     C_R   0.185483 0.447729 0.167670 -0.163515
C8    C     C_R   0.169771 0.955417 0.405784 -0.123037
C9    C     C_R   0.253804 0.160968 0.473023 -0.000654
C10   C     C_R   0.707250 0.922215 0.538816 -0.095217
C11   C     C_R   0.788209 0.040107 0.545272 0.146400
C12   C     C_R   0.823218 0.452065 0.903046 0.033472
C13   C     C_R   0.897356 0.072055 0.520479 -0.102581
C14   C     C_R   0.922243 0.986544 0.482250 -0.004940
C15   C     C_R   0.826939 0.866708 0.460230 -0.025937
C16   C     C_R   0.346729 0.285142 0.487306 0.542256
C17   C     C_R   0.038072 0.015969 0.464473 0.001257
C18   C     C_R   0.052343 0.926205 0.418613 0.067395
C19   C     C_R   0.947877 0.809720 0.382921 0.130748
C20   C     C_R   0.834522 0.782569 0.400106 -0.094768
C21   C     C_R   0.141974 0.132210 0.493210 -0.135978
C22   C     C_R   0.269470 0.071717 0.432905 -0.149538
C23   C     C_R   0.751584 0.429042 0.965876 0.050057
C24   C     C_R   0.726497 0.834810 0.498626 -0.046375
C25   C     C_R   0.264188 0.720192 0.620493 -0.156296
C26   C     C_R   0.649886 0.334647 0.366213 0.238149
C27   C     C_R   0.723963 0.296372 0.336737 -0.116246
C28   C     C_R   0.382252 0.484320 0.313303 0.563633
C29   C     C_R   0.859619 0.358312 0.381314 0.062182
C30   C     C_R   0.927070 0.461786 0.462757 -0.037769
C31   C     C_R   0.847475 0.500830 0.491534 0.152725
C32   C     C_R   0.069248 0.530813 0.514582 -0.018499
C33   C     C_R   0.127934 0.646323 0.574065 0.001186
C34   C     C_R   0.939784 0.445325 0.931756 0.036231
C35   C     C_R   0.052021 0.686244 0.594575 -0.160867
C36   C     C_R   0.918892 0.611834 0.567450 0.124304
C37   C     C_R   0.158111 0.492012 0.513078 0.035810
C38   C     C_R   0.344222 0.678703 0.610604 0.044724
C39   C     C_R   0.666016 0.495052 0.787837 -0.007162
C40   C     C_R   0.317490 0.477323 0.205475 0.032523
C41   C     C_R   0.639307 0.440028 0.939768 -0.135643
C42   C     C_R   0.596975 0.473385 0.851342 -0.137474
C43   C     C_R   0.778385 0.485289 0.815061 -0.133711
C44   C     C_3   0.847537 0.621577 0.254860 -0.310835
C45   C     C_R   0.990549 0.427696 0.028902 0.037565
C46   C     C_3   0.639112 0.115054 0.526649 -0.303601
C47   C     C_3   0.460131 0.257325 0.207102 -0.294189
C48   C     C_R   0.910827 0.395568 0.085350 -0.138681
C49   C     C_R   0.792826 0.395114 0.053728 -0.143244
C50   C     C_R   0.008585 0.457648 0.867493 -0.135148
C51   C     C_R   0.131623 0.469197 0.902588 -0.132548
Cu1   Cu    Cu3+1 0.416420 0.526630 0.522910 0.923820
Cu2   Cu    Cu3+1 0.583580 0.473370 0.477090 0.984002
H1    H     H_    0.735662 0.371619 0.100171 0.107772
H2    H     H_    0.137556 0.431399 0.220118 0.113957
H3    H     H_    0.099768 0.772758 0.645705 0.108194
H4    H     H_    0.308628 0.809307 0.665122 0.094506
H5    H     H_    0.125897 0.403162 0.479567 0.123903
H6    H     H_    0.674792 0.217850 0.275238 0.130121
H7    H     H_    0.183027 0.482827 0.851998 0.108256
H8    H     H_    0.583838 0.422014 0.987433 0.091031
H9    H     H_    0.508260 0.478109 0.830965 0.124687
H10   H     H_    0.829414 0.503449 0.765449 0.121716
H11   H     H_    0.936484 0.368679 0.153726 0.130068
H12   H     H_    0.376118 0.519053 0.991305 0.100465
H13   H     H_    0.970507 0.458663 0.789143 0.103726
H14   H     H_    0.025844 0.700339 0.382199 0.258228
H15   H     H_    0.880888 0.574982 0.214248 0.157654
H16   H     H_    0.792273 0.652262 0.199280 0.158796
H17   H     H_    0.783679 0.559199 0.287615 0.157549
H18   H     H_    0.841796 0.213197 0.601516 0.247623
H19   H     H_    0.633216 0.189510 0.560879 0.156914
H20   H     H_    0.558473 0.032491 0.528931 0.143344
H21   H     H_    0.625866 0.114996 0.446320 0.137250
H22   H     H_    0.472123 0.187924 0.330818 0.219393
H23   H     H_    0.357110 0.091486 0.420272 0.108820
H24   H     H_    0.355393 0.232504 0.180353 0.154389
H25   H     H_    0.467265 0.188090 0.165200 0.101157
H26   H     H_    0.515198 0.341348 0.189796 0.164658
H27   H     H_    0.000420 0.390192 0.324326 0.228535
H28   H     H_    0.948049 0.263828 0.368659 0.229954
H29   H     H_    0.892196 0.735848 0.630408 0.221081
H30   H     H_    0.919826 0.653599 0.705291 0.190577
H31   H     H_    0.570824 0.637449 0.177187 0.220327
H32   H     H_    0.544793 0.503722 0.132806 0.201680
H33   H     H_    0.184320 0.889060 0.372325 0.135613
H34   H     H_    0.138393 0.202797 0.531575 0.119262
H35   H     H_    0.630325 0.899167 0.567054 0.132708
H36   H     H_    0.958308 0.164323 0.528978 0.086462
H37   H     H_    0.751846 0.695079 0.364847 0.176877
H38   H     H_    0.449534 0.736134 0.644072 0.125709
N1    N     N_R   0.290690 0.566960 0.557640 -0.237305
N2    N     N_R   0.709100 0.433710 0.442970 -0.210983
N3    N     N_2   0.961317 0.720400 0.334339 -0.531950
N4    N     N_2   0.765573 0.128081 0.583446 -0.513962
N5    N     N_2   0.511178 0.268700 0.315473 -0.444001
N6    N     N_3   0.922168 0.319194 0.331566 -0.667536
N7    N     N_3   0.868391 0.649101 0.630298 -0.531550
N8    N     N_3   0.525360 0.550166 0.180999 -0.637354
O1    O     O_R   0.545970 0.684450 0.528810 -0.512761
O2    O     O_R   0.687130 0.639470 0.490120 -0.481851
O3    O     O_R   0.519670 0.535100 0.660030 -0.500267
O4    O     O_R   0.660830 0.490120 0.621340 -0.469491
O5    O     O_R   0.312870 0.360530 0.509880 -0.521909
O6    O     O_R   0.454030 0.315550 0.471190 -0.485432
O7    O     O_R   0.339170 0.509880 0.378660 -0.512865
O8    O     O_R   0.480330 0.464900 0.339970 -0.440079

loop_
_geom_bond_atom_site_label_1
_geom_bond_atom_site_label_2
_ccdc_geom_bond_type
C21   H34   S    
H27   N6    S    
C27   C29   A    
C41   C42   A    
C19   C20   A    
C41   H8    S    
C43   H10   S    
C12   C23   A    
Cu1   O3    S    
C26   C27   A    
C9    C16   S    
C12   C43   A    
C3    C7    A    
C30   C31   A    
C9    C22   A    
C48   H11   S    
H18   N4    S    
C28   C40   S    
C28   O8    A    
C49   H1    S    
C4    O4    A    
C38   N1    A    
C18   C19   A    
C16   O5    A    
Cu1   O5    S    
C46   N4    S    
C35   C36   A    
Cu2   O2    S    
H30   N7    S    
C4    O3    A    
H14   N3    S    
C8    C22   A    
C7    C40   A    
C44   H17   S    
C7    H2    S    
C42   H9    S    
C46   H19   S    
C37   H5    S    
C26   N2    A    
Cu1   O7    S    
C13   C14   A    
H29   N7    S    
C14   C17   A    
C15   C20   A    
C25   H4    S    
C1    O1    A    
H22   N5    S    
C50   C51   A    
C39   C42   A    
C26   N5    S    
C22   H23   S    
C34   C50   A    
Cu2   N2    S    
C44   N3    S    
C5    H12   S    
C10   C11   A    
C28   O7    A    
C39   C43   A    
C10   C24   A    
C31   N2    A    
C20   H37   S    
C38   H38   S    
C3    C45   A    
C8    C18   A    
C29   C30   A    
H32   N8    S    
C25   C38   A    
Cu2   O8    S    
C4    C39   S    
C47   N5    S    
C10   H35   S    
C17   C18   A    
C44   H16   S    
C34   C45   A    
C32   C37   A    
C50   H13   S    
C19   N3    S    
C16   O6    A    
C15   C24   A    
C6    C40   A    
C44   H15   S    
C2    C5    A    
C47   H24   S    
C12   C34   A    
C1    O2    A    
C46   H21   S    
Cu1   Cu2   S    
C45   C48   A    
C11   N4    S    
C48   C49   A    
C37   N1    A    
C13   H36   S    
C35   H3    S    
C14   C15   A    
H31   N8    S    
C23   C49   A    
C23   C41   A    
C29   N6    S    
C32   C33   A    
C2    C3    A    
C27   H6    S    
C47   H26   S    
C6    N8    S    
C30   C32   A    
C11   C13   A    
C9    C21   A    
C5    C6    A    
H28   N6    S    
Cu2   O4    S    
C33   C35   A    
Cu1   O1    S    
C8    H33   S    
C17   C21   A    
Cu1   N1    S    
C2    C51   A    
Cu2   O6    S    
C1    C24   S    
C31   C36   A    
C36   N7    S    
C51   H7    S    
C47   H25   S    
C46   H20   S    
C25   C33   A    
