data_mof_unit_28038.cif
_audit_creation_date              2012-12-10T17:52:27-0500
_audit_creation_method            fapswitch 2.2
_symmetry_space_group_name_H-M    P1
_symmetry_Int_Tables_number       1
_space_group_crystal_system       triclinic
_cell_length_a                    19.164667
_cell_length_b                    10.655192
_cell_length_c                    9.912669
_cell_angle_alpha                 89.751423
_cell_angle_beta                  89.795157
_cell_angle_gamma                 91.099597
_cell_volume                      2023.79343734

loop_
_atom_site_label
_atom_site_type_symbol
_atom_type_description
_atom_site_fract_x
_atom_site_fract_y
_atom_site_fract_z
_atom_type_partial_charge
C1    C     C_R   0.503515 0.260658 0.500411 0.950876
C2    C     C_R   0.853721 0.442435 0.503613 -0.081379
C3    C     C_R   0.622875 0.128160 0.622761 0.600431
C4    C     C_R   0.365471 0.499805 0.500615 0.866491
C5    C     C_R   0.677437 0.060636 0.678488 -0.189754
C6    C     C_R   0.676370 0.930471 0.674121 -0.201462
C7    C     C_R   0.620501 0.866991 0.614525 -0.122798
C8    C     C_R   0.563871 0.933485 0.559715 0.015239
C9    C     C_R   0.564907 0.065388 0.562448 -0.028492
C10   C     C_R   0.508530 0.128159 0.500880 -0.095452
C11   C     C_R   0.454613 0.063728 0.435673 -0.208753
C12   C     C_R   0.289590 0.486611 0.502300 -0.176808
C13   C     C_R   0.453639 0.935479 0.434697 -0.168039
C14   C     C_R   0.506727 0.871523 0.498510 -0.063479
C15   C     C_R   0.409465 0.335145 0.141053 -0.247890
C16   C     C_R   0.500978 0.739361 0.499595 0.839028
C17   C     C_R   0.364805 0.254065 0.071532 0.649919
C18   C     C_R   0.364645 0.254497 0.931926 -0.249989
C19   C     C_R   0.409224 0.335713 0.861171 -0.234098
C20   C     C_R   0.455286 0.419000 0.928274 0.057008
C21   C     C_R   0.455356 0.418894 0.072830 0.080312
C22   C     C_R   0.542851 0.577277 0.070930 -0.182713
C23   C     C_R   0.929104 0.425048 0.505649 0.330723
C24   C     C_R   0.542929 0.577236 0.927822 0.663951
C25   C     C_R   0.634712 0.501482 0.499557 0.957772
C26   C     C_R   0.248933 0.529116 0.611825 0.101706
C27   C     C_R   0.177477 0.505374 0.612135 -0.195984
C28   C     C_R   0.145554 0.440480 0.505517 -0.118831
C29   C     C_R   0.185830 0.399847 0.396329 0.692557
C30   C     C_R   0.257214 0.423321 0.394946 -0.281264
C31   C     C_R   0.069865 0.423771 0.506276 0.332881
C32   C     C_R   0.813921 0.429461 0.621996 0.633975
C33   C     C_R   0.743335 0.454331 0.619775 -0.225586
C34   C     C_R   0.710750 0.490590 0.499558 -0.147100
C35   C     C_R   0.750760 0.506869 0.380482 0.105978
C36   C     C_R   0.821936 0.481376 0.383742 -0.257651
F1    F     F_    0.628849 0.254269 0.626522 -0.692441
F2    F     F_    0.321319 0.174688 0.140400 -0.649709
F3    F     F_    0.587019 0.656279 0.860302 -0.665785
F4    F     F_    0.156692 0.335671 0.292049 -0.616187
F5    F     F_    0.842631 0.390726 0.739711 -0.643403
H1    H     H_    0.721340 0.109861 0.723807 0.192322
H2    H     H_    0.287354 0.389190 0.310743 0.204187
H3    H     H_    0.713836 0.441632 0.712414 0.230978
H4    H     H_    0.852814 0.494886 0.292907 0.188831
H5    H     H_    0.412240 0.113139 0.387971 0.178610
H6    H     H_    0.308512 0.673862 0.683246 0.201728
H7    H     H_    0.308547 0.541001 0.780523 0.223046
H8    H     H_    0.706765 0.644550 0.271949 0.179402
H9    H     H_    0.755363 0.549053 0.177798 0.206353
H10   H     H_    0.719294 0.878520 0.715837 0.187163
H11   H     H_    0.622852 0.765848 0.610050 0.176771
H12   H     H_    0.410605 0.885705 0.386627 0.167062
H13   H     H_    0.577842 0.640414 0.124296 0.172903
H14   H     H_    0.406336 0.329562 0.247903 0.206496
H15   H     H_    0.329780 0.191548 0.877808 0.188022
H16   H     H_    0.405878 0.330453 0.754314 0.224435
H17   H     H_    0.146729 0.540110 0.695493 0.200710
N1    N     N_R   0.034352 0.411957 0.388964 -0.072137
N2    N     N_R   0.965126 0.412584 0.388660 -0.159441
N3    N     N_R   0.964647 0.433459 0.623197 -0.072355
N4    N     N_R   0.033813 0.432847 0.623532 -0.159920
N5    N     N_R   0.499340 0.498800 0.142780 -0.131577
N6    N     N_R   0.499320 0.498720 0.857170 -0.155531
N7    N     N_3   0.277829 0.599735 0.721766 -0.426892
N8    N     N_3   0.719563 0.550577 0.257603 -0.405973
O1    O     O_R   0.500000 0.316780 0.614690 -0.594111
O2    O     O_R   0.499990 0.316750 0.385360 -0.637248
O3    O     O_R   0.398140 0.500000 0.614700 -0.656831
O4    O     O_R   0.398130 0.499970 0.385370 -0.629520
O5    O     O_R   0.500010 0.683250 0.614640 -0.580051
O6    O     O_R   0.500000 0.683220 0.385310 -0.618792
O7    O     O_R   0.601870 0.500030 0.614630 -0.545407
O8    O     O_R   0.601860 0.500000 0.385300 -0.598953
Zn1   Zn    Zn3+2 0.500000 0.500020 0.653130 1.015542
Zn2   Zn    Zn3+2 0.500000 0.499980 0.346870 0.966377

loop_
_geom_bond_atom_site_label_1
_geom_bond_atom_site_label_2
_ccdc_geom_bond_type
C5    H1    S    
C35   C36   A    
C16   O6    A    
O6    Zn2   S    
C1    O2    A    
C4    O4    A    
C7    C8    A    
C22   H13   S    
C19   H16   S    
C26   C27   A    
O8    Zn2   S    
C28   C29   A    
C7    H11   S    
C25   O8    A    
C5    C6    A    
N5    Zn2   S    
C24   F3    S    
C2    C32   A    
C34   C35   A    
C31   N1    A    
C22   N5    A    
C19   C20   A    
C8    C9    A    
C33   H3    S    
C32   F5    S    
C14   C16   S    
C6    H10   S    
C4    C12   S    
C9    C10   A    
C18   H15   S    
C25   C34   S    
N1    N2    A    
C24   N6    A    
C13   C14   A    
O7    Zn1   S    
C31   N4    A    
C16   O5    A    
C4    O3    A    
C33   C34   A    
C13   H12   S    
C23   N2    A    
H8    N8    S    
C18   C19   A    
C35   N8    S    
C12   C26   A    
C15   H14   S    
C20   N6    A    
C29   C30   A    
C3    C9    A    
C23   N3    A    
C17   C18   A    
C36   H4    S    
H9    N8    S    
O4    Zn2   S    
H7    N7    S    
C22   C24   A    
C30   H2    S    
O1    Zn1   S    
C2    C23   S    
C2    C36   A    
C15   C17   A    
C8    C14   A    
C12   C30   A    
C26   N7    S    
C28   C31   S    
C1    C10   S    
C3    C5    A    
C27   H17   S    
C6    C7    A    
O2    Zn2   S    
C32   C33   A    
O5    Zn1   S    
C11   C13   A    
C29   F4    S    
C1    O1    A    
N6    Zn1   S    
O3    Zn1   S    
C25   O7    A    
C17   F2    S    
N3    N4    A    
C21   N5    A    
C10   C11   A    
C15   C21   A    
C20   C21   A    
C3    F1    S    
C27   C28   A    
C11   H5    S    
H6    N7    S    
