data_mof_unit_45530.cif
_audit_creation_date              2012-10-26T19:02:35-0400
_audit_creation_method            fapswitch 2.2
_symmetry_space_group_name_H-M    P1
_symmetry_Int_Tables_number       1
_space_group_crystal_system       triclinic
_cell_length_a                    16.099616
_cell_length_b                    8.684983
_cell_length_c                    7.452354
_cell_angle_alpha                 103.145193
_cell_angle_beta                  91.440674
_cell_angle_gamma                 92.039776
_cell_volume                      1013.48575612

loop_
_atom_site_label
_atom_site_type_symbol
_atom_type_description
_atom_site_fract_x
_atom_site_fract_y
_atom_site_fract_z
_atom_type_partial_charge
C1    C     C_R   0.497622 0.199604 0.453482 0.542256
C2    C     C_R   0.798628 0.511499 0.618324 0.291897
C3    C     C_R   0.119152 0.365479 0.386467 0.285146
C4    C     C_R   0.878762 0.446433 0.615557 0.278224
C5    C     C_R   0.092164 0.338978 0.555415 0.022008
C6    C     C_R   0.898363 0.321772 0.467804 0.021621
C7    C     C_R   0.141887 0.399172 0.714860 -0.160821
C8    C     C_R   0.847145 0.290572 0.307231 -0.159428
C9    C     C_R   0.221312 0.466100 0.704659 -0.191975
C10   C     C_R   0.771159 0.362933 0.303594 -0.210896
C11   C     C_2   0.032175 0.205005 0.557716 0.160003
C12   C     C_R   0.502360 0.800400 0.546517 0.562214
C13   C     C_2   0.950572 0.192026 0.501252 0.160945
C14   C     C_3   0.251863 0.268239 0.109757 -0.079587
C15   C     C_3   0.762372 0.547851 0.920304 -0.057356
C16   C     C_3   0.970608 0.636714 0.772455 -0.097099
C17   C     C_3   0.034240 0.449175 0.185287 -0.102349
C18   C     C_2   0.496467 0.031726 0.427278 -0.147323
C19   C     C_2   0.503507 0.968299 0.572717 -0.142623
C20   C     C_R   0.347172 0.497288 0.523285 0.558527
C21   C     C_R   0.652637 0.496069 0.476064 0.576007
C22   C     C_R   0.255182 0.468031 0.533251 -0.022991
C23   C     C_R   0.743227 0.464958 0.462487 -0.010809
C24   C     C_R   0.202537 0.420165 0.372405 0.282471
Cu1   Cu    Cu3+1 0.508700 0.517250 0.683000 0.966443
Cu2   Cu    Cu3+1 0.491300 0.482750 0.317000 0.962103
H1    H     H_    0.730260 0.324840 0.182806 0.140738
H2    H     H_    0.293238 0.212167 0.196336 0.120088
H3    H     H_    0.285587 0.274100 0.983436 0.122939
H4    H     H_    0.822277 0.541257 0.994534 0.167230
H5    H     H_    0.731086 0.427971 0.876972 0.117181
H6    H     H_    0.721834 0.621849 0.020226 0.137928
H7    H     H_    0.925153 0.731848 0.801520 0.205938
H8    H     H_    0.002510 0.638511 0.642079 0.143577
H9    H     H_    0.018621 0.663307 0.885768 0.145867
H10   H     H_    0.082857 0.527541 0.144536 0.157615
H11   H     H_    0.998983 0.517936 0.301103 0.118409
H12   H     H_    0.259035 0.502884 0.830537 0.177138
H13   H     H_    0.989833 0.408440 0.066546 0.191433
H14   H     H_    0.122409 0.379895 0.846053 0.183340
H15   H     H_    0.861852 0.197110 0.190550 0.180649
H16   H     H_    0.489828 0.959997 0.287191 0.135014
H17   H     H_    0.510139 0.040041 0.712803 0.132347
H18   H     H_    0.438032 0.375196 0.957667 0.234684
H19   H     H_    0.561875 0.624967 0.042360 0.237658
H20   H     H_    0.194591 0.192542 0.065788 0.187471
I1    I     I_    0.879580 0.975245 0.484240 -0.380428
I2    I     I_    0.091286 0.010124 0.631919 -0.414999
N1    N     N_2   0.478180 0.456750 0.041980 -0.251352
N2    N     N_2   0.521820 0.543250 0.958020 -0.256423
O1    O     O_R   0.505650 0.286040 0.618880 -0.509458
O2    O     O_3   0.773957 0.621378 0.771387 -0.551121
O3    O     O_3   0.932557 0.486951 0.767807 -0.615538
O4    O     O_3   0.068678 0.315059 0.229963 -0.570458
O5    O     O_R   0.494350 0.713960 0.381120 -0.499503
O6    O     O_R   0.490960 0.256910 0.309800 -0.505528
O7    O     O_R   0.509040 0.743090 0.690200 -0.486540
O8    O     O_R   0.394600 0.516230 0.672450 -0.506115
O9    O     O_R   0.605400 0.483770 0.327550 -0.512145
O10   O     O_R   0.379910 0.487100 0.363380 -0.442918
O11   O     O_R   0.620090 0.512900 0.636620 -0.457074
O12   O     O_3   0.232671 0.423412 0.200886 -0.564251

loop_
_geom_bond_atom_site_label_1
_geom_bond_atom_site_label_2
_ccdc_geom_bond_type
H18   N1    S    
C10   H1    S    
C2    C4    A    
C7    H14   S    
Cu1   O1    S    
C15   H5    S    
C17   H10   S    
C16   H7    S    
C20   O10   A    
C11   C13   D    
Cu2   O9    S    
C21   O11   A    
C20   C22   S    
C16   H8    S    
Cu2   O5    S    
N1    N2    D    
C18   H16   S    
C1    C18   S    
C15   H6    S    
C14   H20   S    
C21   O9    A    
Cu1   O11   S    
C15   O2    S    
C6    C13   S    
C24   O12   S    
C1    O1    A    
C11   I2    S    
Cu2   O10   S    
C2    O2    S    
H19   N2    S    
C12   O7    A    
Cu2   O6    S    
C12   C19   S    
C4    C6    A    
C9    H12   S    
C1    O6    A    
C19   H17   S    
C5    C11   S    
C21   C23   S    
C16   H9    S    
C10   C23   A    
C3    O4    S    
C22   C24   A    
C9    C22   A    
C4    O3    S    
Cu1   O8    S    
C17   H11   S    
C14   H3    S    
C20   O8    A    
C12   O5    A    
C7    C9    A    
Cu1   O7    S    
C8    H15   S    
C15   H4    S    
C8    C10   A    
C18   C19   D    
C17   H13   S    
Cu2   N1    S    
C2    C23   A    
C5    C7    A    
Cu1   N2    S    
C6    C8    A    
C14   H2    S    
Cu1   Cu2   S    
C16   O3    S    
C13   I1    S    
C17   O4    S    
C3    C24   A    
C3    C5    A    
C14   O12   S    
