data_mof_unit_58199.cif
_audit_creation_date              2012-10-26T20:58:19-0400
_audit_creation_method            fapswitch 2.2
_symmetry_space_group_name_H-M    P1
_symmetry_Int_Tables_number       1
_space_group_crystal_system       triclinic
_cell_length_a                    10.636185
_cell_length_b                    14.69084
_cell_length_c                    14.731981
_cell_angle_alpha                 64.810372
_cell_angle_beta                  104.176702
_cell_angle_gamma                 102.90367
_cell_volume                      2000.90764547

loop_
_atom_site_label
_atom_site_type_symbol
_atom_type_description
_atom_site_fract_x
_atom_site_fract_y
_atom_site_fract_z
_atom_type_partial_charge
C1    C     C_R   0.477568 0.119762 0.312119 0.538509
C2    C     C_R   0.443923 0.538376 0.955021 -0.023270
C3    C     C_R   0.359238 0.499098 0.884657 0.246634
C4    C     C_R   0.533405 0.514524 0.133437 0.265066
C5    C     C_R   0.324815 0.395193 0.912473 -0.109774
C6    C     C_R   0.545226 0.620221 0.103126 -0.123923
C7    C     C_R   0.729282 0.287826 0.662114 -0.162010
C8    C     C_R   0.272208 0.713383 0.336019 -0.162623
C9    C     C_R   0.687124 0.203353 0.637349 0.025158
C10   C     C_R   0.314193 0.797510 0.361478 0.031177
C11   C     C_R   0.517734 0.285518 0.510702 0.036748
C12   C     C_R   0.521391 0.880354 0.687963 0.536165
C13   C     C_R   0.480719 0.713676 0.490172 0.049363
C14   C     C_R   0.548035 0.370469 0.538631 -0.015272
C15   C     C_R   0.451373 0.629524 0.461014 -0.012330
C16   C     C_R   0.259441 0.000863 0.498491 0.554304
C17   C     C_R   0.740545 0.999230 0.501362 0.553795
C18   C     C_R   0.663372 0.374229 0.610375 0.036616
C19   C     C_R   0.337098 0.626476 0.388236 0.037514
C20   C     C_R   0.471775 0.453218 0.494158 0.008184
C21   C     C_R   0.527763 0.546948 0.505062 -0.002149
C22   C     C_R   0.658230 0.554754 0.559059 0.001658
C23   C     C_R   0.498465 0.290898 0.176795 -0.095960
C24   C     C_R   0.341499 0.445798 0.439601 0.024388
C25   C     C_R   0.715456 0.465775 0.623849 0.026817
C26   C     C_R   0.284918 0.535061 0.374435 0.032154
C27   C     C_3   0.005702 0.933912 0.461458 0.014741
C28   C     C_3   0.994243 0.066358 0.538125 0.014415
C29   C     C_3   0.932827 0.027182 0.405400 -0.001909
C30   C     C_3   0.067123 0.973072 0.594261 -0.004169
C31   C     C_3   0.877256 0.999961 0.501695 0.045174
C32   C     C_3   0.122719 0.000287 0.497940 0.043525
C33   C     C_3   0.949079 0.905698 0.558653 -0.123752
C34   C     C_R   0.498179 0.709118 0.824775 -0.104622
C35   C     C_3   0.050864 0.094546 0.440955 -0.121769
C36   C     C_R   0.451383 0.187758 0.204581 -0.019996
C37   C     C_R   0.527190 0.814099 0.796192 -0.021909
C38   C     C_R   0.331320 0.222975 0.034429 -0.137178
C39   C     C_R   0.561201 0.789968 0.973031 -0.139471
C40   C     C_R   0.369207 0.153487 0.132451 -0.137123
C41   C     C_R   0.556837 0.854555 0.870851 -0.139214
C42   C     C_3   0.854186 0.058495 0.298097 -0.399916
C43   C     C_3   0.145698 0.941960 0.701616 -0.400764
C44   C     C_3   0.747662 0.655262 0.533105 -0.416942
C45   C     C_R   0.449826 0.364006 0.082744 0.026715
C46   C     C_3   0.251373 0.345642 0.465490 -0.408522
C47   C     C_3   0.009658 0.859709 0.415348 -0.390616
C48   C     C_3   0.990068 0.141218 0.583373 -0.389445
C49   C     C_3   0.190674 0.591040 0.795538 -0.016185
C50   C     C_3   0.136134 0.665638 0.691185 -0.373233
C51   C     C_3   0.681747 0.487045 0.285693 -0.026543
C52   C     C_3   0.760996 0.398644 0.344874 -0.389793
C53   C     C_3   0.837661 0.470470 0.701605 -0.411141
C54   C     C_3   0.162769 0.530741 0.296455 -0.402697
C55   C     C_R   0.489370 0.643669 0.926135 0.013943
C56   C     C_R   0.369380 0.327570 0.009464 -0.008791
C57   C     C_R   0.530892 0.684638 0.001081 -0.007185
C58   C     C_R   0.478311 0.471109 0.058758 -0.002967
Cu1   Cu    Cu3+1 0.465750 0.918270 0.475680 0.913962
Cu2   Cu    Cu3+1 0.534250 0.081730 0.524320 0.909027
H1    H     H_    0.554193 0.714121 0.554923 0.133855
H2    H     H_    0.573362 0.652475 0.160301 0.104344
H3    H     H_    0.487036 0.679004 0.767587 0.188156
H4    H     H_    0.575399 0.310709 0.229920 0.184867
H5    H     H_    0.579364 0.935715 0.850656 0.127451
H6    H     H_    0.332298 0.073678 0.152242 0.118904
H7    H     H_    0.268311 0.195201 0.979026 0.100418
H8    H     H_    0.589781 0.822224 0.030151 0.102610
H9    H     H_    0.919390 0.074514 0.243161 0.123592
H10   H     H_    0.774843 0.996307 0.293498 0.146041
H11   H     H_    0.810455 0.127759 0.278711 0.126108
H12   H     H_    0.443659 0.284386 0.446515 0.155760
H13   H     H_    0.080333 0.925751 0.756490 0.122581
H14   H     H_    0.189936 0.872900 0.721227 0.127252
H15   H     H_    0.224725 0.004334 0.706211 0.148205
H16   H     H_    0.844430 0.645534 0.524995 0.128307
H17   H     H_    0.709797 0.713073 0.458659 0.130616
H18   H     H_    0.762841 0.683841 0.594072 0.117413
H19   H     H_    0.154669 0.355923 0.473180 0.128503
H20   H     H_    0.236219 0.316843 0.404681 0.122398
H21   H     H_    0.288567 0.287807 0.540156 0.131429
H22   H     H_    0.908511 0.827562 0.392037 0.117567
H23   H     H_    0.263858 0.863675 0.321255 0.115798
H24   H     H_    0.057751 0.900076 0.347206 0.129045
H25   H     H_    0.064707 0.797239 0.471894 0.141666
H26   H     H_    0.091185 0.173194 0.606975 0.120082
H27   H     H_    0.935546 0.203791 0.526026 0.141005
H28   H     H_    0.941421 0.101434 0.651245 0.129207
H29   H     H_    0.213143 0.629628 0.849557 0.134512
H30   H     H_    0.114471 0.524156 0.820533 0.126169
H31   H     H_    0.108670 0.628739 0.635815 0.154476
H32   H     H_    0.048018 0.691092 0.695733 0.082130
H33   H     H_    0.210663 0.732946 0.664132 0.181792
H34   H     H_    0.738296 0.137622 0.677100 0.119634
H35   H     H_    0.665028 0.515770 0.339806 0.155060
H36   H     H_    0.744340 0.548230 0.233021 0.111410
H37   H     H_    0.793785 0.377501 0.291289 0.126665
H38   H     H_    0.848782 0.420980 0.393797 0.097269
H39   H     H_    0.701739 0.331743 0.393639 0.193146
H40   H     H_    0.923104 0.459413 0.678483 0.125501
H41   H     H_    0.860334 0.543244 0.711730 0.128230
H42   H     H_    0.823275 0.410689 0.777497 0.123990
H43   H     H_    0.138242 0.457430 0.287280 0.133640
H44   H     H_    0.077788 0.543542 0.318708 0.115809
H45   H     H_    0.815593 0.285247 0.719576 0.092583
H46   H     H_    0.178317 0.589698 0.220435 0.126998
H47   H     H_    0.186939 0.716657 0.277553 0.089943
H48   H     H_    0.906093 0.829450 0.607527 0.096469
H49   H     H_    0.093061 0.171045 0.391881 0.101626
H50   H     H_    0.260892 0.367466 0.857274 0.121652
N1    N     N_R   0.585750 0.204560 0.560800 -0.244705
N2    N     N_R   0.414250 0.795440 0.439200 -0.232646
O1    O     O_R   0.454850 0.022100 0.338110 -0.505047
O2    O     O_3   0.557870 0.454323 0.236948 -0.578568
O3    O     O_R   0.545150 0.977900 0.661890 -0.504143
O4    O     O_R   0.512700 0.160150 0.379180 -0.506127
O5    O     O_R   0.487300 0.839850 0.620820 -0.509075
O6    O     O_R   0.287930 0.931000 0.479440 -0.508500
O7    O     O_R   0.712070 0.069000 0.520560 -0.509816
O8    O     O_R   0.345780 0.069050 0.520520 -0.504052
O9    O     O_R   0.654220 0.930950 0.479480 -0.506487
O10   O     O_3   0.303905 0.560993 0.788538 -0.575310

loop_
_geom_bond_atom_site_label_1
_geom_bond_atom_site_label_2
_ccdc_geom_bond_type
C9    N1    A    
C30   C32   S    
C43   H13   S    
C23   C45   A    
C29   C42   S    
C27   C29   S    
C34   C37   A    
C39   H8    S    
C10   H23   S    
C5    C56   A    
C49   H30   S    
C39   C41   A    
C27   C33   S    
C15   C19   A    
C18   C25   A    
C47   H25   S    
C54   H44   S    
C44   H17   S    
C38   C40   A    
C25   C53   S    
C13   N2    A    
C2    C55   A    
C16   O8    A    
C46   H19   S    
C11   C14   A    
C5    H50   S    
C27   C47   S    
C39   C57   A    
C52   H37   S    
C42   H10   S    
Cu2   O7    S    
C47   H22   S    
C12   C37   S    
C44   H16   S    
C19   C26   A    
C14   C18   A    
C42   H11   S    
C22   C44   S    
C20   C24   A    
C28   C35   S    
C53   H41   S    
C22   C25   A    
C48   H28   S    
C10   N2    A    
C1    O4    A    
C35   H49   S    
C3    O10   S    
C51   H36   S    
C12   O3    A    
C43   H14   S    
C34   C55   A    
Cu1   O5    S    
C40   H6    S    
C21   C22   A    
C6    C57   A    
C33   H48   S    
C1    O1    A    
C26   C54   S    
C53   H40   S    
C43   H15   S    
C45   C58   A    
C8    C19   A    
C54   H46   S    
C11   N1    A    
C51   C52   S    
C51   O2    S    
C32   C35   S    
C14   C20   A    
C54   H43   S    
C36   C40   A    
C45   C56   A    
C4    C6    A    
C49   H29   S    
C11   H12   S    
C41   H5    S    
C42   H9    S    
C44   H18   S    
Cu1   Cu2   S    
C16   O6    A    
C46   H21   S    
C53   H42   S    
Cu1   O1    S    
C7    C18   A    
C31   C33   S    
Cu1   N2    S    
C48   H27   S    
C13   H1    S    
C47   H24   S    
C20   C21   A    
C50   H32   S    
C23   H4    S    
C23   C36   A    
Cu1   O6    S    
C55   C57   A    
C17   C31   S    
C48   H26   S    
C30   C43   S    
Cu2   O4    S    
C8    H47   S    
C4    O2    S    
C7    C9    A    
C28   C48   S    
C30   C33   S    
C27   C32   S    
C28   C31   S    
C24   C26   A    
C3    C5    A    
C2    C58   A    
C50   H33   S    
C16   C32   S    
C29   C35   S    
C52   H39   S    
C24   C46   S    
C6    H2    S    
C13   C15   A    
C2    C3    A    
C28   C30   S    
C29   C31   S    
Cu2   N1    S    
C46   H20   S    
C49   O10   S    
C52   H38   S    
C34   H3    S    
C7    H45   S    
Cu2   O8    S    
C37   C41   A    
C17   O7    A    
C12   O5    A    
C50   H31   S    
C15   C21   A    
C38   C56   A    
C38   H7    S    
C17   O9    A    
C8    C10   A    
C49   C50   S    
C4    C58   A    
Cu2   O3    S    
Cu1   O9    S    
C9    H34   S    
C1    C36   S    
C51   H35   S    
