data_mof_unit_33182.cif
_audit_creation_date              2012-10-26T20:22:26-0400
_audit_creation_method            fapswitch 2.2
_symmetry_space_group_name_H-M    P1
_symmetry_Int_Tables_number       1
_space_group_crystal_system       triclinic
_cell_length_a                    9.52017
_cell_length_b                    10.781431
_cell_length_c                    17.199516
_cell_angle_alpha                 90.344548
_cell_angle_beta                  86.51642
_cell_angle_gamma                 90.568308
_cell_volume                      1762.00194292

loop_
_atom_site_label
_atom_site_type_symbol
_atom_type_description
_atom_site_fract_x
_atom_site_fract_y
_atom_site_fract_z
_atom_type_partial_charge
C1    C     C_R   0.500894 0.737448 0.499156 0.548382
C2    C     C_R   0.079603 0.433080 0.445764 0.011845
C3    C     C_R   0.069252 0.566544 0.554332 0.012720
C4    C     C_R   0.930784 0.433224 0.445732 0.012264
C5    C     C_R   0.482466 0.502130 0.650280 0.534014
C6    C     C_R   0.517518 0.496526 0.349807 0.533252
C7    C     C_R   0.475810 0.510679 0.735344 -0.004844
C8    C     C_R   0.523983 0.479444 0.265320 -0.008107
C9    C     C_R   0.597613 0.542931 0.773124 -0.128348
C10   C     C_R   0.404060 0.435856 0.229798 -0.121719
C11   C     C_R   0.594864 0.553552 0.854187 0.039569
C12   C     C_R   0.499236 0.262646 0.499298 0.546813
C13   C     C_R   0.407737 0.412128 0.149824 0.037758
C14   C     C_R   0.467901 0.525009 0.897795 0.052218
C15   C     C_R   0.533120 0.439032 0.104544 0.042151
C16   C     C_R   0.345420 0.496764 0.859904 -0.138814
C17   C     C_R   0.654032 0.478822 0.140363 -0.136952
C18   C     C_R   0.349013 0.490127 0.779059 -0.152835
C19   C     C_R   0.649892 0.498312 0.220477 -0.154626
C20   C     C_2   0.460179 0.519431 0.982751 -0.148742
C21   C     C_2   0.538035 0.438632 0.019589 -0.150038
C22   C     C_3   0.277738 0.356602 0.115800 -0.280793
C23   C     C_R   0.498725 0.935653 0.571028 -0.000821
C24   C     C_3   0.249852 0.224619 0.145173 -0.448975
C25   C     C_3   0.726310 0.599946 0.891359 -0.271960
C26   C     C_3   0.705887 0.730020 0.925566 -0.435293
C27   C     C_3   0.493942 0.863793 0.647510 -0.265317
C28   C     C_3   0.641853 0.839310 0.673145 -0.440923
C29   C     C_3   0.471575 0.137056 0.352209 -0.267541
C30   C     C_3   0.610578 0.163175 0.306000 -0.434651
C31   C     C_3   0.500632 0.140549 0.647138 -0.270469
C32   C     C_3   0.351351 0.172441 0.677944 -0.438288
C33   C     C_3   0.516137 0.859364 0.350389 -0.266930
C34   C     C_R   0.492127 0.064722 0.427035 -0.001384
C35   C     C_3   0.667893 0.819423 0.330020 -0.433365
C36   C     C_R   0.500092 0.066339 0.570963 0.000842
C37   C     C_R   0.503104 0.934039 0.426611 0.001832
C38   C     C_R   0.496835 0.128634 0.499030 0.016703
C39   C     C_R   0.502501 0.871638 0.498883 0.019870
C40   C     C_R   0.920511 0.566256 0.554474 0.011455
Cu1   Cu    Cu3+1 0.359340 0.499980 0.500000 0.907331
Cu2   Cu    Cu3+1 0.640660 0.500020 0.500000 0.905700
H1    H     H_    0.694723 0.562945 0.739166 0.112207
H2    H     H_    0.139779 0.379175 0.402456 0.097002
H3    H     H_    0.121095 0.620120 0.597797 0.106189
H4    H     H_    0.878923 0.379455 0.402365 0.103746
H5    H     H_    0.342517 0.165382 0.130115 0.153959
H6    H     H_    0.227317 0.223978 0.209279 0.136261
H7    H     H_    0.157258 0.184754 0.117299 0.132220
H8    H     H_    0.185326 0.415405 0.132344 0.127581
H9    H     H_    0.287333 0.352194 0.051328 0.152700
H10   H     H_    0.675444 0.795157 0.879851 0.144146
H11   H     H_    0.623553 0.729869 0.974066 0.159375
H12   H     H_    0.307488 0.417475 0.264637 0.118004
H13   H     H_    0.805986 0.763427 0.948648 0.127671
H14   H     H_    0.757770 0.535730 0.937043 0.136466
H15   H     H_    0.816973 0.604120 0.847498 0.121825
H16   H     H_    0.697125 0.774067 0.632182 0.169760
H17   H     H_    0.704762 0.926304 0.675145 0.141340
H18   H     H_    0.634975 0.797802 0.732104 0.132932
H19   H     H_    0.432152 0.913136 0.694540 0.136988
H20   H     H_    0.437068 0.774072 0.642636 0.151838
H21   H     H_    0.683646 0.215194 0.342488 0.162542
H22   H     H_    0.660768 0.076257 0.284957 0.146898
H23   H     H_    0.744082 0.530204 0.247066 0.120008
H24   H     H_    0.590779 0.219676 0.254172 0.148216
H25   H     H_    0.395808 0.089558 0.315419 0.120741
H26   H     H_    0.419884 0.227199 0.364562 0.154922
H27   H     H_    0.300683 0.234762 0.637176 0.187157
H28   H     H_    0.285873 0.087215 0.685922 0.139297
H29   H     H_    0.355246 0.220442 0.735062 0.135272
H30   H     H_    0.554028 0.090739 0.692842 0.137790
H31   H     H_    0.563291 0.227375 0.639547 0.162919
H32   H     H_    0.699225 0.743536 0.368000 0.195134
H33   H     H_    0.677576 0.785006 0.268957 0.125307
H34   H     H_    0.253544 0.466358 0.750923 0.120654
H35   H     H_    0.742531 0.898037 0.336092 0.145452
H36   H     H_    0.446267 0.776272 0.354114 0.155004
H37   H     H_    0.480903 0.910565 0.299909 0.136500
H38   H     H_    0.613114 0.379361 0.987521 0.117677
H39   H     H_    0.383755 0.576947 0.015293 0.119127
H40   H     H_    0.247590 0.476688 0.893190 0.098495
H41   H     H_    0.750512 0.498748 0.105785 0.102773
H42   H     H_    0.860643 0.618905 0.598335 0.092581
N1    N     N_R   0.147930 0.499970 0.499980 -0.222346
N2    N     N_R   0.852070 0.500030 0.500020 -0.223259
O1    O     O_R   0.381260 0.680340 0.500000 -0.503706
O2    O     O_R   0.618740 0.319660 0.500000 -0.500064
O3    O     O_R   0.618830 0.680370 0.500010 -0.507648
O4    O     O_R   0.381170 0.319630 0.499990 -0.510557
O5    O     O_R   0.367440 0.500000 0.613600 -0.512440
O6    O     O_R   0.632560 0.500000 0.386400 -0.514132
O7    O     O_R   0.605010 0.500030 0.613600 -0.511453
O8    O     O_R   0.394990 0.499970 0.386400 -0.514057

loop_
_geom_bond_atom_site_label_1
_geom_bond_atom_site_label_2
_ccdc_geom_bond_type
C1    O1    A    
C35   H32   S    
C30   H22   S    
C3    N1    A    
C34   C37   A    
Cu1   Cu2   S    
C40   H42   S    
C25   H14   S    
C26   H13   S    
C4    H4    S    
C35   H33   S    
C6    C8    S    
C22   C24   S    
C12   O4    A    
C11   C14   A    
C6    O6    A    
C33   H36   S    
C31   H31   S    
C4    N2    A    
C11   C25   S    
Cu2   O7    S    
C2    N1    A    
C7    C9    A    
C40   N2    A    
C27   H19   S    
C33   C35   S    
C29   H25   S    
Cu1   O8    S    
C2    H2    S    
C6    O8    A    
C18   H34   S    
Cu2   N2    S    
C23   C27   S    
C22   H8    S    
Cu1   O4    S    
C20   H39   S    
C25   H15   S    
C32   H29   S    
C28   H18   S    
Cu1   O1    S    
C9    H1    S    
C8    C19   A    
C12   O2    A    
C24   H6    S    
C14   C20   S    
C5    C7    S    
C33   H37   S    
C32   H28   S    
C25   C26   S    
C29   C34   S    
C3    H3    S    
C33   C37   S    
C17   H41   S    
C2    C4    A    
C29   C30   S    
C27   H20   S    
C26   H10   S    
C29   H26   S    
C31   C32   S    
C7    C18   A    
C16   H40   S    
C30   H24   S    
C9    C11   A    
C5    O5    A    
C16   C18   A    
C31   H30   S    
Cu1   O5    S    
C3    C40   A    
C13   C15   A    
C14   C16   A    
Cu2   O2    S    
C26   H11   S    
C28   H17   S    
C24   H7    S    
C15   C17   A    
C1    O3    A    
C34   C38   A    
C24   H5    S    
C10   C13   A    
C5    O7    A    
C32   H27   S    
C28   H16   S    
Cu1   N1    S    
Cu2   O3    S    
C36   C38   A    
C37   C39   A    
C23   C39   A    
C21   H38   S    
C17   C19   A    
C35   H35   S    
C13   C22   S    
C19   H23   S    
Cu2   O6    S    
C12   C38   S    
C10   H12   S    
C1    C39   S    
C15   C21   S    
C20   C21   D    
C8    C10   A    
C23   C36   A    
C27   C28   S    
C31   C36   S    
C30   H21   S    
C22   H9    S    
