data_mof_unit_48477.cif
_audit_creation_date              2012-12-11T16:48:31-0500
_audit_creation_method            fapswitch 2.2
_symmetry_space_group_name_H-M    P1
_symmetry_Int_Tables_number       1
_space_group_crystal_system       triclinic
_cell_length_a                    17.318415
_cell_length_b                    24.429149
_cell_length_c                    15.131977
_cell_angle_alpha                 89.587653
_cell_angle_beta                  125.882413
_cell_angle_gamma                 90.833804
_cell_volume                      5186.44036414

loop_
_atom_site_label
_atom_site_type_symbol
_atom_type_description
_atom_site_fract_x
_atom_site_fract_y
_atom_site_fract_z
_atom_type_partial_charge
Br1   Br    Br    0.297947 0.768705 0.782630 -0.482341
Br2   Br    Br    0.449844 0.752976 0.668103 -0.455979
Br3   Br    Br    0.039629 0.252123 0.331933 -0.455056
Br4   Br    Br    0.949843 0.252976 0.668103 -0.455979
Br5   Br    Br    0.688081 0.771385 0.217157 -0.546909
Br6   Br    Br    0.797947 0.268705 0.782630 -0.482341
Br7   Br    Br    0.188081 0.271385 0.217157 -0.546909
Br8   Br    Br    0.731166 0.226075 0.179785 -0.533049
Br9   Br    Br    0.262055 0.246453 0.826510 -0.532041
Br10  Br    Br    0.231166 0.726075 0.179785 -0.533049
Br11  Br    Br    0.762055 0.746453 0.826510 -0.532041
Br12  Br    Br    0.539629 0.752123 0.331933 -0.455056
C1    C     C_R   0.311216 0.373876 0.907886 -0.027856
C2    C     C_R   0.551358 0.498511 0.726760 -0.275489
C3    C     C_R   0.081775 0.859351 0.909056 -0.160785
C4    C     C_R   0.313445 0.357909 0.997357 0.082770
C5    C     C_R   0.662989 0.338009 0.000701 0.138031
C6    C     C_R   0.813446 0.857910 0.997357 0.082770
C7    C     C_R   0.162989 0.838009 0.000701 0.138031
C8    C     C_3   0.472965 0.370775 0.444499 -0.080455
C9    C     C_3   0.768234 0.423602 0.853891 -0.111848
C10   C     C_3   0.972966 0.870775 0.444499 -0.080453
C11   C     C_3   0.268234 0.923602 0.853891 -0.111848
C12   C     C_3   0.653761 0.385166 0.343600 -0.130765
C13   C     C_R   0.058121 0.999912 0.363010 -0.272881
C14   C     C_3   0.386106 0.390872 0.640566 -0.236622
C15   C     C_3   0.153761 0.885165 0.343600 -0.130765
C16   C     C_3   0.886106 0.890872 0.640566 -0.236623
C17   C     C_3   0.409341 0.587810 0.267966 -0.240332
C18   C     C_3   0.676619 0.587593 0.863720 -0.220277
C19   C     C_3   0.909341 0.087810 0.267966 -0.240332
C20   C     C_3   0.176619 0.087594 0.863720 -0.220276
C21   C     C_R   0.051358 0.998511 0.726760 -0.275489
C22   C     C_R   0.187712 0.499556 0.645550 0.143636
C23   C     C_R   0.824425 0.501125 0.272412 0.145182
C24   C     C_R   0.687712 0.999556 0.645550 0.143636
C25   C     C_R   0.324425 0.001125 0.272412 0.145182
C26   C     C_2   0.979296 0.458521 0.362374 -0.080849
C27   C     C_2   0.076253 0.461423 0.462983 -0.098905
C28   C     C_2   0.479296 0.958521 0.362374 -0.080849
C29   C     C_R   0.671258 0.358737 0.090636 -0.089672
C30   C     C_2   0.576253 0.961423 0.462983 -0.098905
C31   C     C_2   0.925963 0.503485 0.321737 -0.205092
C32   C     C_2   0.100825 0.501128 0.536248 -0.189330
C33   C     C_2   0.425963 0.003485 0.321737 -0.205092
C34   C     C_2   0.600825 0.001128 0.536248 -0.189330
C35   C     C_R   0.385226 0.760981 0.104813 0.057090
C36   C     C_R   0.602055 0.766563 0.894602 0.057018
C37   C     C_R   0.885226 0.260981 0.104813 0.057090
C38   C     C_R   0.102055 0.266563 0.894602 0.057018
C39   C     C_R   0.365609 0.740606 0.006568 -0.032436
C40   C     C_R   0.811216 0.873876 0.907886 -0.027856
C41   C     C_R   0.624859 0.745221 0.993892 -0.028889
C42   C     C_R   0.865609 0.240606 0.006568 -0.032436
C43   C     C_R   0.124859 0.245221 0.993892 -0.028889
C44   C     C_R   0.299334 0.769606 0.910430 0.360035
C45   C     C_R   0.682748 0.778867 0.087484 0.344706
C46   C     C_R   0.799334 0.269606 0.910430 0.360035
C47   C     C_R   0.182748 0.278867 0.087484 0.344706
C48   C     C_R   0.731215 0.300887 0.907752 -0.271890
C49   C     C_R   0.239610 0.320295 0.086576 -0.253381
C50   C     C_R   0.231215 0.800887 0.907752 -0.271890
C51   C     C_R   0.171258 0.858737 0.090636 -0.089672
C52   C     C_R   0.739610 0.820295 0.086576 -0.253381
C53   C     C_R   0.735994 0.308350 0.002954 0.047078
C54   C     C_R   0.236801 0.328917 0.992652 0.049539
C55   C     C_R   0.235994 0.808350 0.002954 0.047078
C56   C     C_R   0.736801 0.828917 0.992652 0.049539
C57   C     C_R   0.449041 0.652022 0.089899 -0.087477
C58   C     C_R   0.546719 0.653882 0.911973 -0.003467
C59   C     C_R   0.949041 0.152022 0.089899 -0.087477
C60   C     C_R   0.046719 0.153882 0.911973 -0.003467
C61   C     C_R   0.819334 0.293222 0.101876 -0.043900
C62   C     C_R   0.387089 0.683693 0.000757 0.052378
C63   C     C_R   0.160838 0.305348 0.895514 -0.005686
C64   C     C_R   0.319334 0.793222 0.101876 -0.043900
C65   C     C_R   0.660838 0.805348 0.895514 -0.005686
C66   C     C_3   0.837058 0.269847 0.203560 0.060742
C67   C     C_3   0.149268 0.282706 0.796652 0.056560
C68   C     C_3   0.337058 0.769847 0.203560 0.060742
C69   C     C_3   0.649268 0.782706 0.796652 0.056560
C70   C     C_3   0.410215 0.734479 0.208468 0.118506
C71   C     C_3   0.581077 0.741362 0.792033 0.090480
C72   C     C_3   0.910215 0.234478 0.208468 0.118506
C73   C     C_R   0.607388 0.686576 0.000602 0.031143
C74   C     C_3   0.081077 0.241362 0.792033 0.090480
C75   C     C_R   0.618873 0.457978 0.635971 -0.066490
C76   C     C_R   0.610597 0.455332 0.541157 -0.112997
C77   C     C_R   0.118874 0.957978 0.635971 -0.066490
C78   C     C_R   0.110597 0.955332 0.541157 -0.112997
C79   C     C_R   0.585838 0.502525 0.660064 0.127752
C80   C     C_R   0.584853 0.501388 0.473911 0.132305
C81   C     C_R   0.085838 0.002525 0.660064 0.127751
C82   C     C_R   0.084853 0.001388 0.473911 0.132304
C83   C     C_R   0.572841 0.551208 0.603072 -0.176489
C84   C     C_R   0.887089 0.183693 0.000757 0.052378
C85   C     C_R   0.579616 0.551231 0.516504 -0.162991
C86   C     C_R   0.072841 0.051208 0.603072 -0.176489
C87   C     C_R   0.079617 0.051231 0.516504 -0.162991
C88   C     C_3   0.638548 0.395545 0.561822 0.488311
C89   C     C_3   0.653042 0.400995 0.671883 0.297048
C90   C     C_3   0.138548 0.895545 0.561822 0.488310
C91   C     C_3   0.153042 0.900995 0.671883 0.297048
C92   C     C_R   0.551118 0.454770 0.304036 0.475265
C93   C     C_R   0.508190 0.453903 0.738935 0.492787
C94   C     C_R   0.051118 0.954770 0.304036 0.475265
C95   C     C_R   0.107388 0.186576 0.000602 0.031143
C96   C     C_R   0.008190 0.953903 0.738935 0.492787
C97   C     C_R   0.238828 0.545288 0.705069 -0.122028
C98   C     C_R   0.767780 0.546195 0.246021 -0.133438
C99   C     C_R   0.738828 0.045288 0.705069 -0.122028
C100  C     C_R   0.267780 0.046195 0.246021 -0.133438
C101  C     C_R   0.536794 0.544993 0.295441 0.544166
C102  C     C_R   0.531947 0.543533 0.765415 0.535416
C103  C     C_R   0.036794 0.044993 0.295441 0.544166
C104  C     C_R   0.031947 0.043533 0.765415 0.535417
C105  C     C_R   0.240187 0.453841 0.702326 -0.172442
C106  C     C_R   0.558121 0.499912 0.363010 -0.272881
C107  C     C_R   0.768891 0.454896 0.251370 -0.159553
C108  C     C_R   0.740187 0.953841 0.702326 -0.172442
C109  C     C_R   0.268891 0.954896 0.251370 -0.159553
C110  C     C_R   0.351203 0.651013 0.909169 -0.100837
C111  C     C_R   0.645297 0.652841 0.091011 -0.122977
C112  C     C_R   0.851203 0.151013 0.909169 -0.100837
C113  C     C_R   0.145297 0.152841 0.091011 -0.122977
C114  C     C_R   0.402601 0.372210 0.090341 -0.114589
C115  C     C_R   0.581775 0.359351 0.909056 -0.160785
C116  C     C_R   0.902601 0.872210 0.090341 -0.114589
H1    H     H_    0.252206 0.370426 0.823340 0.107267
H2    H     H_    0.290046 0.342609 0.161063 0.149438
H3    H     H_    0.173961 0.817670 0.830803 0.165022
H4    H     H_    0.790046 0.842609 0.161063 0.149438
H5    H     H_    0.867840 0.300368 0.270642 0.138689
H6    H     H_    0.115021 0.311802 0.727072 0.151410
H7    H     H_    0.367840 0.800368 0.270642 0.138689
H8    H     H_    0.615021 0.811802 0.727072 0.151410
H9    H     H_    0.391003 0.690700 0.198876 0.139600
H10   H     H_    0.604778 0.698693 0.800797 0.173182
H11   H     H_    0.891002 0.190700 0.198876 0.139600
H12   H     H_    0.719212 0.345809 0.173766 0.114921
H13   H     H_    0.104778 0.198693 0.800797 0.173182
H14   H     H_    0.551214 0.588951 0.618681 0.207423
H15   H     H_    0.573706 0.590451 0.480876 0.220626
H16   H     H_    0.051214 0.088951 0.618681 0.207423
H17   H     H_    0.073706 0.090451 0.480876 0.220626
H18   H     H_    0.706194 0.388683 0.570863 0.122460
H19   H     H_    0.607852 0.372507 0.680773 0.131369
H20   H     H_    0.206194 0.888683 0.570863 0.122460
H21   H     H_    0.107852 0.872507 0.680773 0.131369
H22   H     H_    0.503039 0.666447 0.171323 0.194114
H23   H     H_    0.752206 0.870426 0.823340 0.107267
H24   H     H_    0.491983 0.667748 0.830601 0.164525
H25   H     H_    0.003040 0.166447 0.171323 0.194114
H26   H     H_    0.991983 0.167748 0.830601 0.164525
H27   H     H_    0.224106 0.587379 0.677838 0.122108
H28   H     H_    0.789085 0.588623 0.253169 0.116266
H29   H     H_    0.724106 0.087379 0.677838 0.122108
H30   H     H_    0.289085 0.088623 0.253169 0.116266
H31   H     H_    0.226093 0.412238 0.672292 0.107790
H32   H     H_    0.793695 0.413659 0.271545 0.092116
H33   H     H_    0.726093 0.912238 0.672292 0.107790
H34   H     H_    0.219212 0.845809 0.173766 0.114921
H35   H     H_    0.293695 0.913659 0.271545 0.092116
H36   H     H_    0.306539 0.662633 0.824653 0.157716
H37   H     H_    0.687636 0.665114 0.175302 0.168427
H38   H     H_    0.806539 0.162633 0.824653 0.157716
H39   H     H_    0.187636 0.165114 0.175302 0.168427
H40   H     H_    0.428205 0.366074 0.173958 0.160575
H41   H     H_    0.549462 0.347176 0.826273 0.170069
H42   H     H_    0.928205 0.866074 0.173958 0.160575
H43   H     H_    0.049462 0.847176 0.826273 0.170069
H44   H     H_    0.947739 0.417942 0.335528 0.133612
H45   H     H_    0.959105 0.543900 0.341950 0.147386
H46   H     H_    0.122369 0.426733 0.483373 0.140072
H47   H     H_    0.447739 0.917942 0.335528 0.133612
H48   H     H_    0.622369 0.926733 0.483373 0.140072
H49   H     H_    0.450952 0.403916 0.383883 0.135302
H50   H     H_    0.461537 0.383327 0.505971 0.146727
H51   H     H_    0.425411 0.335045 0.400141 0.179659
H52   H     H_    0.710602 0.415096 0.864123 0.093222
H53   H     H_    0.777873 0.468541 0.852075 0.129767
H54   H     H_    0.835394 0.407148 0.926475 0.175742
H55   H     H_    0.950953 0.903916 0.383883 0.135301
H56   H     H_    0.054707 0.535366 0.518738 0.145449
H57   H     H_    0.961537 0.883327 0.505971 0.146726
H58   H     H_    0.925411 0.835045 0.400141 0.179658
H59   H     H_    0.210602 0.915096 0.864123 0.093222
H60   H     H_    0.277873 0.968541 0.852075 0.129767
H61   H     H_    0.335394 0.907148 0.926475 0.175743
H62   H     H_    0.712850 0.416010 0.383281 0.112366
H63   H     H_    0.630590 0.374719 0.260242 0.140399
H64   H     H_    0.682399 0.347150 0.392559 0.201734
H65   H     H_    0.334505 0.424325 0.593665 0.147536
H66   H     H_    0.384290 0.377751 0.709813 0.157633
H67   H     H_    0.459105 0.043900 0.341950 0.147386
H68   H     H_    0.363123 0.355277 0.584977 0.194757
H69   H     H_    0.212850 0.916010 0.383281 0.112366
H70   H     H_    0.130590 0.874719 0.260242 0.140399
H71   H     H_    0.182399 0.847150 0.392559 0.201734
H72   H     H_    0.834505 0.924325 0.593665 0.147537
H73   H     H_    0.884290 0.877751 0.709813 0.157633
H74   H     H_    0.863124 0.855277 0.584977 0.194757
H75   H     H_    0.398159 0.550160 0.301413 0.131916
H76   H     H_    0.359039 0.587338 0.177496 0.161482
H77   H     H_    0.391440 0.622452 0.299572 0.211123
H78   H     H_    0.554707 0.035366 0.518738 0.145450
H79   H     H_    0.708632 0.573498 0.822460 0.164580
H80   H     H_    0.695791 0.559264 0.931718 0.121298
H81   H     H_    0.709844 0.627813 0.901339 0.192839
H82   H     H_    0.898159 0.050160 0.301413 0.131916
H83   H     H_    0.859039 0.087338 0.177496 0.161482
H84   H     H_    0.891440 0.122452 0.299572 0.211123
H85   H     H_    0.195791 0.059264 0.931718 0.121298
H86   H     H_    0.209844 0.127813 0.901339 0.192839
H87   H     H_    0.208632 0.073498 0.822460 0.164580
H88   H     H_    0.673961 0.317670 0.830803 0.165022
N1    N     N_R   0.395410 0.396350 0.944340 -0.044448
N2    N     N_R   0.474920 0.471030 0.794350 -0.134025
N3    N     N_R   0.025080 0.971030 0.205650 -0.135543
N4    N     N_R   0.974920 0.971030 0.794350 -0.134025
N5    N     N_R   0.320260 0.527820 0.794570 -0.047816
N6    N     N_R   0.679740 0.527820 0.205430 -0.053074
N7    N     N_R   0.820260 0.027820 0.794570 -0.047816
N8    N     N_R   0.179740 0.027820 0.205430 -0.053074
N9    N     N_R   0.524590 0.527840 0.205200 -0.124127
N10   N     N_R   0.475410 0.527840 0.794800 -0.122435
N11   N     N_R   0.024590 0.027840 0.205200 -0.124127
N12   N     N_R   0.604590 0.396350 0.055660 -0.052647
N13   N     N_R   0.975410 0.027840 0.794800 -0.122435
N14   N     N_R   0.320750 0.471000 0.795020 -0.052658
N15   N     N_R   0.679250 0.471000 0.204980 -0.063905
N16   N     N_R   0.820750 0.971000 0.795020 -0.052658
N17   N     N_R   0.179250 0.971000 0.204980 -0.063905
N18   N     N_R   0.393620 0.602490 0.942710 -0.056587
N19   N     N_R   0.606380 0.602490 0.057290 -0.060773
N20   N     N_R   0.893620 0.102490 0.942710 -0.056587
N21   N     N_R   0.106380 0.102490 0.057290 -0.060773
N22   N     N_R   0.451720 0.396350 0.057510 -0.044332
N23   N     N_R   0.895410 0.896350 0.944340 -0.044448
N24   N     N_R   0.548280 0.396350 0.942490 -0.050443
N25   N     N_R   0.951720 0.896350 0.057510 -0.044332
N26   N     N_R   0.048280 0.896350 0.942490 -0.050443
N27   N     N_R   0.104590 0.896350 0.055660 -0.052647
N28   N     N_R   0.449930 0.602500 0.055880 -0.048167
N29   N     N_R   0.550070 0.602500 0.944120 -0.043580
N30   N     N_R   0.949930 0.102500 0.055880 -0.048167
N31   N     N_R   0.050070 0.102500 0.944120 -0.043580
N32   N     N_R   0.525080 0.471030 0.205650 -0.135543
Ni1   Ni    Ni4+2 0.435420 0.434270 0.870230 0.209604
Ni2   Ni    Ni4+2 0.564580 0.434270 0.129770 0.211199
Ni3   Ni    Ni4+2 0.935420 0.934270 0.870230 0.209604
Ni4   Ni    Ni4+2 0.064580 0.934270 0.129770 0.211199
Ni5   Ni    Ni4+2 0.563430 0.564580 0.128740 0.231132
Ni6   Ni    Ni4+2 0.436570 0.564580 0.871260 0.227795
Ni7   Ni    Ni4+2 0.063430 0.064580 0.128740 0.231132
Ni8   Ni    Ni4+2 0.936570 0.064580 0.871260 0.227795
O1    O     O_3   0.568194 0.354949 0.492874 -0.573545
O2    O     O_3   0.576677 0.594051 0.788288 -0.643276
O3    O     O_3   0.004125 0.095020 0.300960 -0.626255
O4    O     O_3   0.076677 0.094051 0.788288 -0.643276
O5    O     O_3   0.751126 0.399144 0.759441 -0.582249
O6    O     O_3   0.068194 0.854949 0.492874 -0.573546
O7    O     O_3   0.251126 0.899144 0.759441 -0.582249
O8    O     O_3   0.576171 0.402051 0.342987 -0.614838
O9    O     O_3   0.478985 0.406700 0.676551 -0.674179
O10   O     O_3   0.076172 0.902051 0.342987 -0.614838
O11   O     O_3   0.978985 0.906700 0.676551 -0.674179
O12   O     O_3   0.504125 0.595020 0.300960 -0.626255

loop_
_geom_bond_atom_site_label_1
_geom_bond_atom_site_label_2
_ccdc_geom_bond_type
C58   C73   A    
C33   H67   S    
C51   H34   S    
C75   C76   A    
C116  H42   S    
C17   H75   S    
C75   C79   A    
C104  N13   A    
C105  H31   S    
N4    N13   A    
Br6   C46   S    
C23   C107  A    
C15   H69   S    
C39   C62   S    
C99   N7    A    
C37   C61   A    
C14   H68   S    
C108  N16   A    
C18   H81   S    
C12   H62   S    
C6    C40   A    
N8    Ni7   S    
Br11  C69   S    
C3    C7    A    
C115  N24   A    
C15   H70   S    
C16   H72   S    
C16   O11   S    
C100  H30   S    
C50   C55   A    
C69   H8    S    
C74   H13   S    
C1    N1    A    
C16   H73   S    
C52   C56   A    
C37   C72   S    
C17   O12   S    
C113  H39   S    
Br1   C44   S    
C10   O6    S    
C35   C64   A    
N12   N24   A    
C70   H9    S    
C43   C47   A    
C13   C103  A    
C30   C34   D    
C26   C27   S    
C15   O10   S    
Br4   C74   S    
N30   Ni7   S    
C18   H79   S    
C6    C56   S    
C37   C42   A    
C59   H25   S    
C105  N14   A    
C17   H77   S    
N21   N31   A    
C39   C44   A    
Br9   C67   S    
C35   C70   S    
C67   H6    S    
C80   C106  S    
C85   H15   S    
C25   C100  A    
C40   N23   A    
C6    C116  A    
C75   C89   S    
C20   H87   S    
C49   C54   A    
C9    H52   S    
C78   C90   S    
C19   H84   S    
C52   H4    S    
C72   H11   S    
C88   H18   S    
C107  H32   S    
C92   N32   A    
N5    N14   A    
C80   C85   A    
C110  H36   S    
C61   C66   S    
C90   O6    S    
C24   C34   S    
C11   O7    S    
N14   Ni1   S    
C23   C31   S    
C32   H56   S    
C92   C106  A    
C104  O4    S    
C107  N15   A    
C8    O1    S    
C14   O9    S    
C90   H20   S    
N31   Ni8   S    
N9    N32   A    
C28   C30   S    
C94   N3    A    
C87   H17   S    
C29   N12   A    
C18   H80   S    
N24   Ni1   S    
C17   H76   S    
N22   Ni2   S    
Br8   C66   S    
C116  N25   A    
C100  N8    A    
Br2   C71   S    
C9    H54   S    
N25   Ni4   S    
N1    Ni1   S    
C27   H46   S    
C97   H27   S    
N7    Ni8   S    
Br7   C47   S    
C69   C71   S    
N32   Ni2   S    
C13   C94   A    
C78   C82   A    
C8    H51   S    
N12   Ni2   S    
C2    C93   A    
C28   C33   D    
C99   H29   S    
C47   C49   A    
C60   H26   S    
C84   C112  A    
N23   Ni3   S    
N20   N30   A    
C20   O4    S    
C58   H24   S    
C95   C113  A    
N23   N25   A    
C53   C61   A    
C7    C51   A    
C41   C45   A    
C5    C115  A    
N11   Ni7   S    
C59   C84   A    
C2    C102  A    
C46   C48   A    
C43   C95   S    
C96   N4    A    
C36   C65   A    
C10   H58   S    
C96   O11   S    
C9    H53   S    
N8    N17   A    
C29   H12   S    
C114  N22   A    
C103  N11   A    
C10   H55   S    
C112  H38   S    
C102  N10   A    
C102  O2    S    
C101  N9    A    
C60   C95   A    
C65   C69   S    
N18   Ni6   S    
C38   C74   S    
C51   N27   A    
C12   O8    S    
C24   C99   A    
C42   C46   A    
N26   N27   A    
N15   Ni2   S    
Br12  C70   S    
C57   C62   A    
C12   H64   S    
N16   Ni3   S    
C76   C80   A    
N20   Ni8   S    
C7    C55   S    
C89   O5    S    
C68   H7    S    
N19   Ni5   S    
C76   C88   S    
C23   C98   A    
C108  H33   S    
C110  N18   A    
C21   C96   A    
C20   H85   S    
C49   H2    S    
C111  H37   S    
C68   C70   S    
C5    C53   S    
C62   C110  A    
C48   C53   A    
C86   C87   A    
C109  N17   A    
N3    Ni4   S    
C3    H43   S    
N2    Ni1   S    
C25   C109  A    
N4    Ni3   S    
C4    C54   S    
N26   Ni3   S    
C27   C32   D    
C25   C33   S    
C14   H66   S    
C11   H61   S    
N13   Ni8   S    
C113  N21   A    
N7    N16   A    
C60   N31   A    
C45   C52   A    
C111  N19   A    
N6    Ni5   S    
C9    O5    S    
C56   C65   A    
C34   H78   S    
C22   C32   S    
C57   H22   S    
C88   O1    S    
C89   H19   S    
C21   C104  A    
Br10  C68   S    
N27   Ni4   S    
C63   C67   S    
C86   H16   S    
C18   O2    S    
C42   C84   S    
C50   H3    S    
N21   Ni7   S    
C64   C68   S    
C97   N5    A    
C21   C81   S    
N6    N15   A    
C28   H47   S    
C35   C39   A    
C83   C85   A    
C57   N28   A    
C26   H44   S    
C8    H49   S    
C1    H1    S    
C36   C41   A    
C115  H41   S    
N29   Ni6   S    
C114  H40   S    
C38   C43   A    
C36   C71   S    
Br5   C45   S    
N28   Ni5   S    
C16   H74   S    
C11   H60   S    
C10   H57   S    
C41   C73   S    
C94   O10   S    
C48   H88   S    
C101  O12   S    
C20   H86   S    
C26   C31   D    
C30   H48   S    
C98   N6    A    
C103  O3    S    
C38   C63   A    
C11   H59   S    
C31   H45   S    
N5    Ni6   S    
C19   H82   S    
C4    C114  A    
C82   C87   A    
C22   C105  A    
C40   H23   S    
C8    H50   S    
C54   C63   A    
N1    N22   A    
C88   C89   S    
N2    N10   A    
N10   Ni6   S    
C73   C111  A    
C12   H63   S    
C44   C50   A    
C67   C74   S    
C77   C81   A    
C90   C91   S    
C24   C108  A    
C66   H5    S    
C5    C29   A    
C2    C79   S    
C3    N26   A    
C98   H28   S    
C91   H21   S    
C58   N29   A    
C79   C83   A    
C101  C106  A    
C112  N20   A    
C66   C72   S    
C13   C82   S    
C19   H83   S    
C15   H71   S    
C83   H14   S    
N9    Ni5   S    
C93   N2    A    
C1    C4    A    
Br3   C72   S    
C22   C97   A    
C91   O7    S    
C19   O3    S    
C55   C64   A    
C92   O8    S    
C59   N30   A    
N3    N11   A    
C77   C78   A    
C14   H65   S    
C93   O9    S    
C81   C86   A    
N19   N29   A    
C71   H10   S    
C77   C91   S    
N17   Ni4   S    
N18   N28   A    
C109  H35   S    
