data_mof_unit_9646.cif
_audit_creation_date              2012-10-26T19:46:08-0400
_audit_creation_method            fapswitch 2.2
_symmetry_space_group_name_H-M    P1
_symmetry_Int_Tables_number       1
_space_group_crystal_system       triclinic
_cell_length_a                    10.799631
_cell_length_b                    9.520886
_cell_length_c                    15.92169
_cell_angle_alpha                 90.11986
_cell_angle_beta                  90.197358
_cell_angle_gamma                 89.908882
_cell_volume                      1637.08554865

loop_
_atom_site_label
_atom_site_type_symbol
_atom_type_description
_atom_site_fract_x
_atom_site_fract_y
_atom_site_fract_z
_atom_type_partial_charge
C1    C     C_R   0.262116 0.500062 0.500063 0.546034
C2    C     C_R   0.933359 0.589553 0.446215 -0.095161
C3    C     C_R   0.870591 0.499639 0.500061 0.005704
C4    C     C_R   0.127602 0.500043 0.500144 0.054935
C5    C     C_R   0.431940 0.074339 0.442371 0.022947
C6    C     C_R   0.432296 0.925579 0.442195 0.021356
C7    C     C_R   0.499673 0.499878 0.340339 0.557700
C8    C     C_R   0.568269 0.925679 0.557600 0.024175
C9    C     C_R   0.568386 0.074476 0.557537 0.022412
C10   C     C_R   0.737477 0.499885 0.500120 0.557494
C11   C     C_R   0.499793 0.500142 0.659688 0.549153
C12   C     C_3   0.636585 0.493516 0.949590 0.420340
C13   C     C_3   0.422924 0.636460 0.049216 0.202158
C14   C     C_3   0.433755 0.359377 0.049170 0.201077
C15   C     C_3   0.422992 0.371334 0.950226 -0.111513
C16   C     C_3   0.441654 0.644707 0.951215 -0.115554
C17   C     C_1   0.498963 0.500640 0.748948 0.018396
C18   C     C_3   0.498697 0.500715 0.083562 0.035910
C19   C     C_3   0.497562 0.502908 0.916739 -0.021478
C20   C     C_3   0.331224 0.707358 0.901348 -0.351007
C21   C     C_3   0.289123 0.358547 0.916201 -0.324191
C22   C     C_3   0.502995 0.221029 0.071456 -0.317619
C23   C     C_3   0.638387 0.506238 0.049788 0.382979
C24   C     C_3   0.460063 0.780070 0.089687 -0.316518
C25   C     C_3   0.128658 0.317860 0.618929 -0.366055
C26   C     C_3   0.126406 0.682687 0.381683 -0.346227
C27   C     C_1   0.498155 0.501629 0.824233 0.026101
C28   C     C_1   0.498776 0.499975 0.175827 0.088002
C29   C     C_1   0.499128 0.499678 0.251093 0.053525
C30   C     C_R   0.063065 0.410146 0.555713 -0.021912
C31   C     C_R   0.062046 0.589539 0.444485 -0.022961
C32   C     C_R   0.934292 0.409723 0.553890 -0.100805
Cl1   Cl    Cl    0.260151 0.629201 0.075715 -0.500364
Cl2   Cl    Cl    0.286986 0.324593 0.101040 -0.505632
Cl3   Cl    Cl    0.718444 0.660633 0.086485 -0.460218
Cl4   Cl    Cl    0.738790 0.378619 0.099264 -0.434729
Cl5   Cl    Cl    0.731069 0.626513 0.899904 -0.446436
Cl6   Cl    Cl    0.708369 0.334023 0.911660 -0.497352
Cu1   Cu    Cu3+1 0.500020 0.640660 0.500000 0.961336
Cu2   Cu    Cu3+1 0.500020 0.359340 0.500000 0.967380
H1    H     H_    0.623192 0.869731 0.603615 0.132306
H2    H     H_    0.301916 0.808135 0.930455 0.177516
H3    H     H_    0.359119 0.731884 0.835945 0.124738
H4    H     H_    0.224056 0.429535 0.948749 0.253430
H5    H     H_    0.284328 0.379094 0.847716 0.106073
H6    H     H_    0.255345 0.249632 0.926017 0.180240
H7    H     H_    0.443742 0.128372 0.057409 0.147101
H8    H     H_    0.586504 0.202525 0.033468 0.201161
H9    H     H_    0.527009 0.217084 0.139306 0.185598
H10   H     H_    0.386233 0.859908 0.079701 0.165718
H11   H     H_    0.474279 0.771239 0.158491 0.165426
H12   H     H_    0.623451 0.130548 0.603479 0.127782
H13   H     H_    0.542145 0.829647 0.061082 0.167611
H14   H     H_    0.178640 0.231864 0.586251 0.162130
H15   H     H_    0.195060 0.381273 0.656522 0.136325
H16   H     H_    0.062675 0.268582 0.663362 0.141173
H17   H     H_    0.194925 0.620865 0.345075 0.168330
H18   H     H_    0.060015 0.729827 0.336304 0.165827
H19   H     H_    0.173438 0.770104 0.414947 0.138420
H20   H     H_    0.467993 0.277742 0.921524 0.160510
H21   H     H_    0.513581 0.725247 0.939471 0.173507
H22   H     H_    0.883049 0.341595 0.595743 0.135480
H23   H     H_    0.881433 0.657676 0.404394 0.146998
H24   H     H_    0.377183 0.130275 0.396258 0.133110
H25   H     H_    0.378516 0.869637 0.395584 0.113945
H26   H     H_    0.250049 0.637582 0.898427 0.194066
N1    N     N_R   0.500030 0.852070 0.500020 -0.228901
N2    N     N_R   0.500030 0.147930 0.500020 -0.232111
O1    O     O_R   0.319660 0.618740 0.500000 -0.510071
O2    O     O_R   0.319660 0.381260 0.500000 -0.508504
O3    O     O_R   0.500020 0.618840 0.379440 -0.504699
O4    O     O_R   0.500020 0.381160 0.379440 -0.488208
O5    O     O_R   0.680370 0.618830 0.500010 -0.498016
O6    O     O_R   0.680370 0.381170 0.500010 -0.494341
O7    O     O_R   0.500010 0.618730 0.620560 -0.497730
O8    O     O_R   0.500010 0.381270 0.620560 -0.505324

loop_
_geom_bond_atom_site_label_1
_geom_bond_atom_site_label_2
_ccdc_geom_bond_type
C22   H8    S    
C7    C29   S    
C15   H20   S    
C14   C18   S    
C25   H16   S    
C15   C19   S    
C12   C23   S    
Cu2   O2    S    
C13   C18   S    
C20   H26   S    
C28   C29   T    
C11   O8    A    
C7    O3    A    
C5    C6    A    
C10   O5    A    
C12   Cl5   S    
C6    H25   S    
C8    C9    A    
Cu1   O7    S    
C19   C27   S    
C26   H19   S    
C24   H11   S    
C22   H7    S    
C26   C31   S    
C9    H12   S    
C5    N2    A    
C21   H5    S    
C24   H10   S    
C18   C23   S    
C17   C27   T    
C18   C28   S    
C25   H14   S    
Cu1   Cu2   S    
C24   H13   S    
C1    O1    A    
Cu2   O8    S    
C5    H24   S    
C2    C31   A    
C13   Cl1   S    
C21   H4    S    
C16   C20   S    
Cu1   O1    S    
C8    H1    S    
C26   H18   S    
C22   H9    S    
C6    N1    A    
C23   Cl3   S    
C16   H21   S    
C7    O4    A    
C20   H3    S    
C2    H23   S    
C21   H6    S    
C25   C30   S    
C11   C17   S    
Cu2   O4    S    
Cu1   N1    S    
C25   H15   S    
C14   Cl2   S    
C20   H2    S    
C1    O2    A    
C1    C4    S    
C14   C22   S    
C2    C3    A    
C9    N2    A    
C32   H22   S    
C3    C10   S    
C11   O7    A    
C30   C32   A    
C10   O6    A    
C16   C19   S    
C12   C19   S    
Cu2   O6    S    
Cu1   O5    S    
C12   Cl6   S    
C3    C32   A    
C26   H17   S    
C4    C31   A    
C15   C21   S    
C13   C24   S    
C8    N1    A    
C23   Cl4   S    
Cu2   N2    S    
C13   C16   S    
Cu1   O3    S    
C14   C15   S    
C4    C30   A    
