data_mof_unit_62701.cif
_audit_creation_date              2012-12-11T18:31:54-0500
_audit_creation_method            fapswitch 2.2
_symmetry_space_group_name_H-M    P1
_symmetry_Int_Tables_number       1
_space_group_crystal_system       triclinic
_cell_length_a                    8.185482
_cell_length_b                    14.322779
_cell_length_c                    18.802668
_cell_angle_alpha                 94.41444
_cell_angle_beta                  92.704786
_cell_angle_gamma                 91.567511
_cell_volume                      2194.35207342

loop_
_atom_site_label
_atom_site_type_symbol
_atom_type_description
_atom_site_fract_x
_atom_site_fract_y
_atom_site_fract_z
_atom_type_partial_charge
Ba1   Ba    Ba6+2 0.841340 0.543980 0.464170 1.631821
Ba2   Ba    Ba6+2 0.348470 0.456100 0.535830 1.631698
C1    C     C_3   0.575235 0.873918 0.262152 -0.375278
C2    C     C_3   0.441857 0.510555 0.243741 -0.010878
C3    C     C_2   0.379243 0.517923 0.166865 -0.118456
C4    C     C_3   0.106011 0.743131 0.262510 0.302342
C5    C     C_2   0.219770 0.496483 0.146857 -0.080637
C6    C     C_2   0.107063 0.471437 0.204378 -0.130368
C7    C     C_1   0.161628 0.475234 0.272618 0.067663
C8    C     C_R   0.049548 0.493360 0.929377 0.458447
C9    C     C_R   0.158769 0.496544 0.069875 0.458191
C10   C     C_R   0.083873 0.528613 0.799515 -0.125597
C11   C     C_R   0.029070 0.520371 0.726709 0.065411
C12   C     C_3   0.594755 0.779700 0.293112 0.340745
C13   C     C_R   0.784594 0.436956 0.757441 0.013218
C14   C     C_R   0.837783 0.444513 0.829830 -0.143772
C15   C     C_R   0.990340 0.488833 0.852049 -0.073914
C16   C     C_3   0.088308 0.765373 0.184850 -0.344444
C17   C     C_R   0.883324 0.471415 0.706493 -0.284029
C18   C     C_R   0.699370 0.936065 0.539599 -0.036816
C19   C     C_R   0.509647 0.801507 0.498547 0.053688
C20   C     C_R   0.363625 0.769552 0.462245 -0.290756
C21   C     C_R   0.257807 0.831777 0.432159 0.016000
C22   C     C_R   0.303632 0.926132 0.432312 -0.143435
C23   C     C_3   0.484126 0.305925 0.323113 0.310751
C24   C     C_R   0.452887 0.959643 0.466136 -0.005095
C25   C     C_R   0.555564 0.898321 0.501951 -0.021895
C26   C     C_R   0.641341 0.091716 0.502542 -0.019768
C27   C     C_R   0.744280 0.031463 0.539135 -0.001643
C28   C     C_3   0.188259 0.743450 0.611229 0.307171
C29   C     C_R   0.685719 0.187836 0.503904 0.024312
C30   C     C_R   0.828124 0.222631 0.541296 -0.286436
C31   C     C_R   0.935909 0.162724 0.572629 0.019958
C32   C     C_R   0.893203 0.067275 0.573055 -0.143513
C33   C     C_R   0.497482 0.054436 0.465814 -0.038547
C34   C     C_3   0.446012 0.268370 0.246039 -0.386900
C35   C     C_3   0.195720 0.849359 0.626925 -0.390277
C36   C     C_3   0.008005 0.257461 0.391520 0.303378
C37   C     C_3   0.000354 0.151350 0.377039 -0.386900
C38   C     C_3   0.699200 0.666765 0.673763 0.308611
C39   C     C_3   0.718611 0.694773 0.753483 -0.389153
C40   C     C_3   0.123516 0.261128 0.740730 0.352575
C41   C     C_3   0.142184 0.235136 0.817500 -0.352019
C42   C     C_3   0.601908 0.208280 0.703138 0.357977
C43   C     C_3   0.588363 0.111442 0.730658 -0.359830
C44   C     C_2   0.302514 0.517188 0.293527 -0.265680
H1    H     H_    0.718987 0.778283 0.318968 0.117111
H2    H     H_    0.819391 0.647417 0.653860 0.010760
H3    H     H_    0.611885 0.605854 0.665133 0.069766
H4    H     H_    0.592973 0.931079 0.305460 0.083918
H5    H     H_    0.810106 0.753554 0.763713 0.126035
H6    H     H_    0.760315 0.634914 0.782768 0.067384
H7    H     H_    0.599464 0.717071 0.773886 0.131266
H8    H     H_    0.502199 0.772942 0.333665 -0.018865
H9    H     H_    0.450683 0.877936 0.236689 0.115009
H10   H     H_    0.367217 0.325062 0.347074 0.026803
H11   H     H_    0.566599 0.368938 0.324061 0.033414
H12   H     H_    0.294720 0.869841 0.668052 0.128386
H13   H     H_    0.369798 0.202806 0.244548 0.131493
H14   H     H_    0.377389 0.320155 0.216651 0.064887
H15   H     H_    0.561463 0.253516 0.219149 0.123655
H16   H     H_    0.667669 0.883335 0.221706 0.136457
H17   H     H_    0.140798 0.836469 0.178701 0.116682
H18   H     H_    0.192392 0.328136 0.736413 0.093102
H19   H     H_    0.991699 0.270838 0.727886 -0.063566
H20   H     H_    0.273213 0.225808 0.832506 0.153052
H21   H     H_    0.094462 0.291508 0.853951 0.077223
H22   H     H_    0.072293 0.168895 0.823550 0.110341
H23   H     H_    0.220249 0.884498 0.577911 0.065273
H24   H     H_    0.732385 0.223430 0.693717 -0.065666
H25   H     H_    0.528827 0.207276 0.651820 0.094081
H26   H     H_    0.662906 0.109763 0.781427 0.112848
H27   H     H_    0.633817 0.058452 0.690708 0.069357
H28   H     H_    0.052919 0.671684 0.266503 0.079422
H29   H     H_    0.458770 0.093484 0.740119 0.150799
H30   H     H_    0.466531 0.534184 0.127541 0.109723
H31   H     H_    0.981157 0.449500 0.190001 0.116641
H32   H     H_    0.197808 0.566516 0.814979 0.111249
H33   H     H_    0.760251 0.415734 0.868332 0.107034
H34   H     H_    0.077062 0.873312 0.646794 0.116917
H35   H     H_    0.315545 0.558905 0.344354 0.060804
H36   H     H_    0.327922 0.696091 0.460645 0.067931
H37   H     H_    0.221745 0.973376 0.407196 0.072456
H38   H     H_    0.976781 0.021257 0.598398 0.070291
H39   H     H_    0.238381 0.744554 0.278605 -0.022880
H40   H     H_    0.861079 0.296363 0.541546 0.063434
H41   H     H_    0.778477 0.892443 0.569376 0.096743
H42   H     H_    0.417024 0.098536 0.437036 0.095537
H43   H     H_    0.154407 0.713317 0.151072 0.089114
H44   H     H_    0.956949 0.762475 0.166757 0.136014
H45   H     H_    0.889765 0.281606 0.410216 0.006108
H46   H     H_    0.309463 0.719745 0.595745 0.007408
H47   H     H_    0.095834 0.725358 0.566900 0.066667
H48   H     H_    0.841425 0.465242 0.650852 0.068985
H49   H     H_    0.105268 0.276444 0.433444 0.076403
H50   H     H_    0.896400 0.129839 0.338645 0.135159
H51   H     H_    0.983652 0.117168 0.427172 0.066138
H52   H     H_    0.116186 0.127251 0.354317 0.114211
N1    N     N_R   0.203917 0.524788 0.950612 -0.238522
N2    N     N_R   0.257128 0.526244 0.019071 -0.241143
N3    N     N_R   0.004197 0.465613 0.048707 -0.242821
N4    N     N_R   0.951168 0.463892 0.980232 -0.243323
O1    O     O_2   0.878750 0.447310 0.330740 -0.465676
O2    O     O_2   0.274510 0.167077 0.563908 -0.493482
O3    O     O_3   0.186221 0.189670 0.695369 -0.598800
O4    O     O_3   0.131030 0.448880 0.418060 -0.494375
O5    O     O_3   0.553640 0.613150 0.531430 -0.485516
O6    O     O_2   0.393070 0.270760 0.474720 -0.471795
O7    O     O_3   0.561198 0.236078 0.359307 -0.646262
O8    O     O_2   0.444698 0.447457 0.756096 -0.484312
O9    O     O_3   0.541815 0.274684 0.753568 -0.597341
O10   O     O_3   0.627390 0.618170 0.367170 -0.490055
O11   O     O_2   0.774968 0.572024 0.247447 -0.488569
O12   O     O_3   0.641028 0.743290 0.639414 -0.640291
O13   O     O_3   0.040486 0.297424 0.328014 -0.634938
O14   O     O_3   0.571697 0.707510 0.238340 -0.607697
O15   O     O_2   0.796630 0.729270 0.525320 -0.474043
O16   O     O_3   0.039210 0.666640 0.400620 -0.486347
O17   O     O_2   0.916023 0.833238 0.434095 -0.493758
O18   O     O_3   0.022512 0.809472 0.304908 -0.605062
O19   O     O_2   0.310950 0.552720 0.669300 -0.460256
O20   O     O_3   0.058670 0.551200 0.581940 -0.498381
O21   O     O_3   0.562310 0.381900 0.632830 -0.484855
O22   O     O_3   0.146396 0.702483 0.673149 -0.633950
O23   O     O_3   0.636050 0.386930 0.468580 -0.470864
O24   O     O_3   0.150490 0.333430 0.599380 -0.487296
P1    P     P_3+3 0.053470 0.419720 0.342720 0.982775
P2    P     P_3+3 0.625250 0.715650 0.546950 0.973077
P3    P     P_3+3 0.057992 0.787112 0.394410 0.935552
P4    P     P_3+3 0.136230 0.580350 0.657290 0.982737
P5    P     P_3+3 0.136819 0.212207 0.606927 0.944214
P6    P     P_3+3 0.605623 0.599700 0.274097 0.961369
P7    P     P_3+3 0.573372 0.269356 0.450899 0.936034
P8    P     P_3+3 0.582718 0.386628 0.726110 0.953545

loop_
_geom_bond_atom_site_label_1
_geom_bond_atom_site_label_2
_ccdc_geom_bond_type
N3    N4    A    
O11   P6    D    
C35   H23   S    
Ba1   P2    S    
O19   P4    D    
C29   P7    S    
C34   H13   S    
C5    C6    S    
O3    P5    S    
C13   P8    S    
C2    C44   S    
Ba2   O21   S    
C13   C17   A    
C24   C25   A    
C7    P1    S    
C4    H39   S    
C32   H38   S    
C20   H36   S    
C26   C27   A    
C22   H37   S    
C22   C24   A    
O5    P2    S    
C28   H47   S    
Ba1   O10   S    
C36   C37   S    
C16   H17   S    
Ba2   O19   S    
C8    C15   S    
C13   C14   A    
C18   H41   S    
Ba2   O5    S    
O13   P1    S    
C21   P3    S    
C42   H25   S    
C43   H27   S    
Ba1   Ba2   S    
Ba1   O20   S    
O17   P3    D    
C1    H9    S    
C38   O12   S    
C29   C30   A    
C26   C33   A    
C14   C15   A    
O2    P5    D    
C10   H32   S    
C36   H49   S    
C40   H19   S    
C11   P4    S    
C23   H10   S    
C42   H24   S    
O1    P1    D    
Ba1   O1    S    
C39   H6    S    
C35   H12   S    
C23   O7    S    
Ba1   O4    S    
C36   H45   S    
C31   P5    S    
C19   C25   A    
C7    C44   D    
C19   C20   A    
C43   H26   S    
C23   H11   S    
C4    O18   S    
O15   P2    D    
C1    H4    S    
C4    H28   S    
C18   C27   A    
Ba2   O20   S    
C4    C16   S    
C35   H34   S    
C11   C17   A    
O21   P8    S    
O7    P7    S    
O18   P3    S    
C16   H44   S    
C8    N4    A    
C2    P6    S    
C3    C5    D    
C6    C7    D    
C37   H52   S    
O4    P1    S    
Ba2   O4    S    
C28   C35   S    
C9    N2    A    
C10   C15   A    
C5    C9    S    
Ba2   O23   S    
C44   H35   S    
O12   P2    S    
C33   H42   S    
N1    N2    A    
O14   P6    S    
C21   C22   A    
C30   H40   S    
C31   C32   A    
O22   P4    S    
C9    N3    A    
Ba1   O15   S    
O10   P6    S    
C19   P2    S    
C17   H48   S    
C39   H7    S    
C1    C12   S    
Ba1   O5    S    
Ba2   O24   S    
C28   H46   S    
C38   C39   S    
C12   H8    S    
C28   O22   S    
C6    H31   S    
O8    P8    D    
C40   C41   S    
C34   H15   S    
C40   H18   S    
C42   C43   S    
C1    H16   S    
O23   P7    S    
C38   H2    S    
C16   H43   S    
C26   C29   A    
Ba1   P1    S    
Ba1   O23   S    
C2    C3    S    
C34   H14   S    
O9    P8    S    
C12   H1    S    
C18   C25   A    
C41   H22   S    
C43   H29   S    
C14   H33   S    
C30   C31   A    
C3    H30   S    
O6    P7    D    
O16   P3    S    
C36   O13   S    
O24   P5    S    
C41   H20   S    
C12   O14   S    
C27   C32   A    
Ba2   O6    S    
Ba2   P4    S    
O20   P4    S    
Ba1   O16   S    
C8    N1    A    
C40   O3    S    
C37   H50   S    
C37   H51   S    
C23   C34   S    
C42   O9    S    
C24   C33   A    
C10   C11   A    
C41   H21   S    
C20   C21   A    
C39   H5    S    
C38   H3    S    
