data_mof_unit_51937.cif
_audit_creation_date              2012-12-11T14:52:41-0500
_audit_creation_method            fapswitch 2.2
_symmetry_space_group_name_H-M    P1
_symmetry_Int_Tables_number       1
_space_group_crystal_system       triclinic
_cell_length_a                    18.778959
_cell_length_b                    10.966132
_cell_length_c                    18.810645
_cell_angle_alpha                 89.977432
_cell_angle_beta                  90.945455
_cell_angle_gamma                 89.977356
_cell_volume                      3873.19596937

loop_
_atom_site_label
_atom_site_type_symbol
_atom_type_description
_atom_site_fract_x
_atom_site_fract_y
_atom_site_fract_z
_atom_type_partial_charge
C1    C     C_R   0.271278 0.044934 0.852533 0.542733
C2    C     C_R   0.693793 0.531705 0.034823 -0.030465
C3    C     C_3   0.005969 0.332489 0.070535 0.012580
C4    C     C_2   0.352897 0.433442 0.578733 0.559502
C5    C     C_2   0.642384 0.444478 0.423587 0.573437
C6    C     C_2   0.857589 0.944323 0.576494 0.573482
C7    C     C_2   0.147102 0.933511 0.421325 0.559381
C8    C     C_2   0.411572 0.988165 0.072349 0.587411
C9    C     C_2   0.532654 0.062421 0.940292 0.581940
C10   C     C_2   0.967268 0.569092 0.051332 0.583359
C11   C     C_2   0.090014 0.486010 0.928802 0.583360
C12   C     C_3   0.372347 0.489563 0.933059 -0.372623
C13   C     C_R   0.806275 0.032120 0.965282 -0.032545
C14   C     C_3   0.635074 0.464182 0.071772 -0.376849
C15   C     C_3   0.865267 0.965055 0.928469 -0.377648
C16   C     C_3   0.127403 0.990233 0.066797 -0.375424
C17   C     C_R   0.184741 0.061303 0.029737 -0.023284
C18   C     C_R   0.306752 0.539599 0.042868 -0.118808
C19   C     C_R   0.699510 0.518489 0.961199 -0.133981
C20   C     C_R   0.800450 0.018831 0.038869 -0.134518
C21   C     C_R   0.193166 0.040115 0.957055 -0.118287
C22   C     C_R   0.251491 0.594897 0.079624 0.025331
C23   C     C_R   0.752684 0.580407 0.924353 0.000037
C24   C     C_R   0.746861 0.080024 0.075522 0.002250
C25   C     C_R   0.728092 0.042592 0.146671 0.543049
C26   C     C_R   0.248752 0.094683 0.920451 0.024766
C27   C     C_R   0.209673 0.683946 0.046086 -0.089734
C28   C     C_R   0.798197 0.660156 0.960299 -0.125458
C29   C     C_R   0.700785 0.158826 0.039407 -0.137997
C30   C     C_R   0.291165 0.182586 0.954227 -0.088806
C31   C     C_R   0.219160 0.710430 0.975165 -0.099493
C32   C     C_R   0.794492 0.672134 0.032639 -0.120966
C33   C     C_R   0.705107 0.171808 0.967250 -0.117127
C34   C     C_R   0.281823 0.208739 0.025162 -0.100698
C35   C     C_R   0.269213 0.646758 0.935251 0.025902
C36   C     C_R   0.771805 0.542701 0.853285 0.543078
C37   C     C_R   0.743598 0.607555 0.071385 0.041637
C38   C     C_R   0.756383 0.107764 0.928641 0.057190
C39   C     C_R   0.231156 0.146094 0.064847 0.026556
C40   C     C_R   0.468435 0.724834 0.528279 -0.110297
C41   C     C_R   0.475451 0.728245 0.455704 -0.111614
C42   C     C_R   0.024540 0.228210 0.544319 -0.111604
C43   C     C_R   0.031528 0.224790 0.471741 -0.110305
C44   C     C_R   0.499713 0.834399 0.423120 0.024187
C45   C     C_R   0.482954 0.828699 0.569741 0.024865
C46   C     C_R   0.017002 0.328674 0.430243 0.024748
C47   C     C_R   0.228748 0.544974 0.147464 0.541589
C48   C     C_R   0.000283 0.334395 0.576870 0.024324
C49   C     C_R   0.510352 0.941119 0.463481 -0.133809
C50   C     C_R   0.501530 0.938399 0.536818 -0.138691
C51   C     C_R   0.998429 0.438397 0.463128 -0.138737
C52   C     C_R   0.989627 0.441126 0.536468 -0.133836
C53   C     C_R   0.470926 0.822029 0.855167 0.565053
C54   C     C_R   0.532164 0.821140 0.143173 0.571986
C55   C     C_R   0.968156 0.321047 0.856672 0.573223
C56   C     C_R   0.028494 0.322371 0.145122 0.563750
C57   C     C_R   0.184702 0.618435 0.540241 -0.152466
C58   C     C_3   0.546566 0.747794 0.967769 -0.143286
C59   C     C_R   0.813457 0.623197 0.461186 -0.161178
C60   C     C_R   0.686620 0.123542 0.538754 -0.161160
C61   C     C_R   0.315419 0.117957 0.459665 -0.152470
C62   C     C_R   0.183852 0.619498 0.467824 -0.118845
C63   C     C_R   0.813840 0.625922 0.533533 -0.127335
C64   C     C_R   0.686227 0.126158 0.466405 -0.127294
C65   C     C_R   0.316276 0.119094 0.532085 -0.118791
C66   C     C_R   0.239693 0.566522 0.430546 0.005938
C67   C     C_R   0.758532 0.571506 0.570843 0.009959
C68   C     C_R   0.741497 0.071517 0.429135 0.009771
C69   C     C_3   0.489652 0.717035 0.023577 -0.131600
C70   C     C_R   0.260378 0.066405 0.569406 0.006052
C71   C     C_R   0.295786 0.508558 0.467327 -0.148695
C72   C     C_R   0.701965 0.514886 0.534291 -0.133371
C73   C     C_R   0.798036 0.014773 0.465732 -0.133478
C74   C     C_R   0.204248 0.008582 0.532673 -0.148770
C75   C     C_R   0.297666 0.508016 0.541450 0.029190
C76   C     C_R   0.699822 0.514583 0.460271 0.041984
C77   C     C_R   0.800185 0.014553 0.539756 0.041862
C78   C     C_R   0.202368 0.007964 0.458554 0.029261
C79   C     C_R   0.244457 0.574210 0.577487 0.009415
C80   C     C_3   0.008999 0.216644 0.977325 -0.130580
C81   C     C_R   0.754041 0.577902 0.423887 0.010110
C82   C     C_R   0.745996 0.078053 0.576095 0.010391
C83   C     C_R   0.255604 0.073986 0.422469 0.009392
C84   C     C_R   0.273711 0.680505 0.859651 0.533232
C85   C     C_R   0.737900 0.640378 0.146424 0.555399
C86   C     C_R   0.762147 0.140556 0.853628 0.564329
C87   C     C_R   0.226403 0.180192 0.140336 0.533183
C88   C     C_R   0.272658 0.042267 0.643958 0.565972
C89   C     C_R   0.727907 0.043745 0.355357 0.564074
C90   C     C_R   0.772100 0.543749 0.644638 0.564332
C91   C     C_3   0.951786 0.249974 0.032331 -0.152253
C92   C     C_R   0.227363 0.542296 0.356023 0.565407
C93   C     C_R   0.466363 0.822937 0.644836 0.547466
C94   C     C_R   0.529349 0.824073 0.352574 0.548985
C95   C     C_R   0.970653 0.324073 0.647424 0.548696
C96   C     C_R   0.033620 0.322930 0.355155 0.545838
C97   C     C_R   0.258404 0.631404 0.645771 0.575579
C98   C     C_R   0.741303 0.632166 0.354659 0.571903
C99   C     C_R   0.758708 0.132190 0.645335 0.573143
C100  C     C_R   0.241612 0.131366 0.354215 0.575327
C101  C     C_3   0.460594 0.910684 0.029883 0.043827
C102  C     C_R   0.315289 0.561159 0.970224 -0.026052
C103  C     C_3   0.516711 0.941814 0.973938 0.054742
C104  C     C_3   0.983448 0.443073 0.025191 0.055624
C105  C     C_3   0.039779 0.409165 0.970147 0.043845
C106  C     C_3   0.435372 0.800914 0.985319 -0.144032
C107  C     C_3   0.571733 0.859034 0.012478 -0.143180
C108  C     C_3   0.928266 0.361077 0.986386 -0.145240
C109  C     C_3   0.063486 0.299747 0.015777 -0.144003
C110  C     C_3   0.492563 0.831027 0.929929 0.014227
C111  C     C_3   0.514136 0.827551 0.067526 0.019258
C112  C     C_3   0.986095 0.327071 0.932338 0.026664
Cr1   Cr    Cr6+3 0.229630 0.835900 0.747350 1.032988
Cr2   Cr    Cr6+3 0.614200 0.677120 0.250660 1.062620
Cr3   Cr    Cr6+3 0.885800 0.177120 0.749340 1.063200
Cr4   Cr    Cr6+3 0.114200 0.177120 0.250660 1.050007
Cr5   Cr    Cr6+3 0.770370 0.835900 0.252650 1.022688
Cr6   Cr    Cr6+3 0.729630 0.335900 0.747350 1.020963
Cr7   Cr    Cr6+3 0.270370 0.335900 0.252650 1.032068
Cr8   Cr    Cr6+3 0.387410 0.989850 0.750850 1.060990
Cr9   Cr    Cr6+3 0.612590 0.989850 0.249150 1.062829
Cr10  Cr    Cr6+3 0.887410 0.489850 0.750850 1.067462
Cr11  Cr    Cr6+3 0.112590 0.489850 0.249150 1.068684
Cr12  Cr    Cr6+3 0.385800 0.677120 0.749340 1.051716
H1    H     H_    0.378771 0.783076 0.972684 0.127787
H2    H     H_    0.859733 0.666394 0.559979 0.169026
H3    H     H_    0.640351 0.166726 0.439927 0.169233
H4    H     H_    0.362528 0.158263 0.558558 0.172339
H5    H     H_    0.335773 0.458510 0.438387 0.169661
H6    H     H_    0.661757 0.465457 0.563301 0.169491
H7    H     H_    0.838211 0.965186 0.436759 0.169457
H8    H     H_    0.164222 0.958714 0.561653 0.169662
H9    H     H_    0.581652 0.681832 0.940599 0.138425
H10   H     H_    0.477450 0.625116 0.044898 0.136100
H11   H     H_    0.020812 0.124055 0.956804 0.135095
H12   H     H_    0.627881 0.882987 0.025676 0.130688
H13   H     H_    0.915554 0.185621 0.059271 0.136783
H14   H     H_    0.341000 0.474793 0.070154 0.126746
H15   H     H_    0.663857 0.457167 0.932881 0.129482
H16   H     H_    0.836355 0.957992 0.067303 0.128167
H17   H     H_    0.158532 0.976185 0.929600 0.127078
H18   H     H_    0.166667 0.728368 0.073537 0.147336
H19   H     H_    0.840001 0.707981 0.933048 0.172790
H20   H     H_    0.658271 0.205500 0.066307 0.155584
H21   H     H_    0.334459 0.226444 0.926925 0.156104
H22   H     H_    0.184552 0.777304 0.950501 0.154047
H23   H     H_    0.872417 0.386207 0.972570 0.128844
H24   H     H_    0.831806 0.734245 0.057915 0.156533
H25   H     H_    0.667839 0.234134 0.942052 0.150343
H26   H     H_    0.316828 0.274848 0.049928 0.155674
H27   H     H_    0.450753 0.640268 0.551705 0.188075
H28   H     H_    0.465936 0.645287 0.425710 0.164851
H29   H     H_    0.034070 0.145237 0.574343 0.164878
H30   H     H_    0.049205 0.140209 0.448342 0.188255
H31   H     H_    0.529033 0.024409 0.439128 0.131509
H32   H     H_    0.510279 0.020585 0.567671 0.123520
H33   H     H_    0.989677 0.520601 0.432244 0.123911
H34   H     H_    0.119844 0.280662 0.028954 0.126269
H35   H     H_    0.970954 0.524436 0.560795 0.131401
H36   H     H_    0.449208 0.351985 0.574804 0.338838
H37   H     H_    0.542154 0.378416 0.426591 0.339008
H38   H     H_    0.957793 0.878004 0.573545 0.339037
H39   H     H_    0.050778 0.852236 0.425331 0.339033
H40   H     H_    0.330945 0.990390 0.141888 0.356821
H41   H     H_    0.577771 0.150845 0.858732 0.336993
H42   H     H_    0.945901 0.678389 0.134444 0.327535
H43   H     H_    0.170811 0.487902 0.859448 0.356742
H44   H     H_    0.400064 0.424637 0.969462 0.125789
H45   H     H_    0.140940 0.663174 0.566611 0.155826
H46   H     H_    0.348451 0.435242 0.889024 0.168911
H47   H     H_    0.413462 0.551963 0.912620 0.178349
H48   H     H_    0.606538 0.400701 0.035203 0.124967
H49   H     H_    0.657477 0.410249 0.116815 0.152820
H50   H     H_    0.594952 0.529608 0.091362 0.176527
H51   H     H_    0.893828 0.901562 0.965064 0.134246
H52   H     H_    0.843136 0.911218 0.883299 0.154361
H53   H     H_    0.905276 0.030771 0.909034 0.175416
H54   H     H_    0.099620 0.925523 0.030364 0.118597
H55   H     H_    0.151046 0.935744 0.110928 0.168259
H56   H     H_    0.857443 0.667256 0.434811 0.150049
H57   H     H_    0.086405 0.052963 0.087126 0.178265
H58   H     H_    0.642662 0.167776 0.565088 0.149882
H59   H     H_    0.359209 0.162507 0.433247 0.155609
H60   H     H_    0.137633 0.658808 0.441317 0.172603
O1    O     O_R   0.214270 0.709000 0.827470 -0.501707
O2    O     O_R   0.543270 0.717630 0.330160 -0.506679
O3    O     O_R   0.956730 0.217630 0.669840 -0.506857
O4    O     O_R   0.043270 0.217630 0.330160 -0.515992
O5    O     O_R   0.320620 0.625640 0.672920 -0.464577
O6    O     O_R   0.679380 0.625640 0.327080 -0.459860
O7    O     O_R   0.820620 0.125640 0.672920 -0.459643
O8    O     O_R   0.179380 0.125640 0.327080 -0.464401
O9    O     O_3   0.334280 0.834290 0.749180 -0.284737
O10   O     O_3   0.665720 0.834290 0.250820 -0.268340
O11   O     O_3   0.834280 0.334290 0.749180 -0.269493
O12   O     O_R   0.785730 0.709000 0.172530 -0.525247
O13   O     O_3   0.165720 0.334290 0.250820 -0.285385
O14   O     O_R   0.236160 0.958490 0.823130 -0.523214
O15   O     O_R   0.763840 0.958490 0.176870 -0.514498
O16   O     O_R   0.736160 0.458490 0.823130 -0.514943
O17   O     O_R   0.263840 0.458490 0.176870 -0.523282
O18   O     O_R   0.332080 0.075470 0.831280 -0.506797
O19   O     O_R   0.667920 0.075470 0.168720 -0.510713
O20   O     O_R   0.832080 0.575470 0.831280 -0.505885
O21   O     O_R   0.167920 0.575470 0.168720 -0.505485
O22   O     O_R   0.446300 0.918110 0.826620 -0.476468
O23   O     O_R   0.714270 0.209000 0.827470 -0.528465
O24   O     O_R   0.553700 0.918110 0.173380 -0.487532
O25   O     O_R   0.946300 0.418110 0.826620 -0.483736
O26   O     O_R   0.053700 0.418110 0.173380 -0.458092
O27   O     O_R   0.457110 0.716200 0.831760 -0.540625
O28   O     O_R   0.542890 0.716200 0.168240 -0.531312
O29   O     O_R   0.957110 0.216200 0.831760 -0.532524
O30   O     O_R   0.042890 0.216200 0.168240 -0.543188
O31   O     O_R   0.320980 0.624310 0.823030 -0.504916
O32   O     O_R   0.679020 0.624310 0.176970 -0.507610
O33   O     O_R   0.820980 0.124310 0.823030 -0.509128
O34   O     O_R   0.285730 0.209000 0.172530 -0.503795
O35   O     O_R   0.179020 0.124310 0.176970 -0.504371
O36   O     O_R   0.213890 0.710430 0.665540 -0.527641
O37   O     O_R   0.786110 0.710430 0.334460 -0.530005
O38   O     O_R   0.713890 0.210430 0.665540 -0.530762
O39   O     O_R   0.286110 0.210430 0.334460 -0.527726
O40   O     O_R   0.235810 0.959820 0.673020 -0.510482
O41   O     O_R   0.764190 0.959820 0.326980 -0.510135
O42   O     O_R   0.735810 0.459820 0.673020 -0.510187
O43   O     O_R   0.264190 0.459820 0.326980 -0.510641
O44   O     O_R   0.331700 0.076900 0.669350 -0.500503
O45   O     O_R   0.445950 0.919440 0.676520 -0.503424
O46   O     O_R   0.668300 0.076900 0.330650 -0.503740
O47   O     O_R   0.831700 0.576900 0.669350 -0.503720
O48   O     O_R   0.168300 0.576900 0.330650 -0.500160
O49   O     O_2   0.341953 0.392897 0.638146 -0.502191
O50   O     O_R   0.416240 0.404422 0.544442 -0.733667
O51   O     O_2   0.653245 0.396413 0.366102 -0.514115
O52   O     O_R   0.576580 0.429247 0.456222 -0.712005
O53   O     O_2   0.846700 0.896312 0.634006 -0.513142
O54   O     O_R   0.923392 0.928910 0.543878 -0.712046
O55   O     O_2   0.158005 0.892969 0.361918 -0.502427
O56   O     O_R   0.554050 0.919440 0.323480 -0.507513
O57   O     O_R   0.083776 0.904587 0.455661 -0.733743
O58   O     O_2   0.420626 0.098192 0.076132 -0.480231
O59   O     O_R   0.357900 0.931535 0.110895 -0.708683
O60   O     O_2   0.507845 0.156313 0.964497 -0.511661
O61   O     O_R   0.574449 0.065868 0.879609 -0.697615
O62   O     O_2   0.962683 0.653258 0.008954 -0.524514
O63   O     O_R   0.956405 0.589697 0.123603 -0.684191
O64   O     O_2   0.083364 0.596700 0.927679 -0.483995
O65   O     O_R   0.142373 0.428664 0.888844 -0.707917
O66   O     O_R   0.945950 0.419440 0.676520 -0.507823
O67   O     O_R   0.054050 0.419440 0.323480 -0.502033
O68   O     O_R   0.456730 0.717630 0.669840 -0.515105

loop_
_geom_bond_atom_site_label_1
_geom_bond_atom_site_label_2
_ccdc_geom_bond_type
C3    C104  S    
C53   C110  S    
C99   O7    A    
C21   C26   A    
C73   H7    S    
C69   H10   S    
Cr2   O6    S    
C48   C95   S    
C74   H8    S    
C55   C112  S    
Cr6   O38   S    
Cr8   O18   S    
C82   C99   S    
C96   O4    A    
Cr5   O37   S    
C1    O14   A    
Cr7   O17   S    
C39   C87   S    
Cr10  O11   S    
C98   O6    A    
C35   C102  A    
Cr6   O16   S    
C49   C50   A    
C59   C81   A    
C34   H26   S    
C95   O3    A    
C57   C62   A    
C41   H28   S    
Cr6   O42   S    
C12   C102  S    
Cr10  O47   S    
Cr4   O4    S    
C106  H1    S    
Cr5   O41   S    
C11   O65   S    
C80   H11   S    
C15   H52   S    
C38   C86   S    
C103  C110  S    
C33   C38   A    
C11   O64   D    
C64   C68   A    
C37   C85   S    
C59   H56   S    
C14   H50   S    
C58   C107  S    
C14   H49   S    
C17   C39   A    
H38   O54   S    
C4    O50   S    
C71   H5    S    
C81   C98   S    
C1    O18   A    
Cr2   O28   S    
C65   C70   A    
C98   O37   A    
C29   C33   A    
C27   H18   S    
Cr11  O21   S    
C3    C91   S    
C67   C72   A    
C18   C102  A    
C87   O34   A    
Cr10  O20   S    
C18   H14   S    
C57   C79   A    
C24   C29   A    
C104  C105  S    
C4    C75   S    
C105  C109  S    
Cr5   O10   S    
C91   H13   S    
C31   H22   S    
C60   C82   A    
C78   C83   A    
Cr11  O48   S    
C20   C24   A    
C92   O43   A    
C50   H32   S    
C16   C17   S    
C5    O52   S    
C80   C109  S    
C70   C74   A    
Cr7   O34   S    
Cr1   O14   S    
C88   O40   A    
C92   O48   A    
C10   O62   D    
C87   O35   A    
C89   O46   A    
C43   H30   S    
C9    O61   S    
C8    C101  S    
Cr8   O44   S    
Cr1   O36   S    
C56   O30   A    
Cr5   O15   S    
C84   O31   A    
Cr11  O13   S    
C108  H23   S    
Cr3   O7    S    
C52   H35   S    
C97   O5    A    
C22   C47   S    
Cr4   O8    S    
C99   O38   A    
C70   C88   S    
C101  C103  S    
H36   O50   S    
C7    O57   S    
C84   O1    A    
C100  O8    A    
C107  C111  S    
C44   C49   A    
C109  H34   S    
C95   O66   A    
Cr12  O5    S    
C90   O42   A    
C60   C64   A    
C68   C89   S    
C12   H47   S    
C57   H45   S    
C6    O54   S    
C108  C112  S    
C58   H9    S    
C60   H58   S    
C40   C45   A    
C6    O53   D    
C63   C67   A    
C61   H59   S    
C62   C66   A    
Cr7   O43   S    
C51   C52   A    
C4    O49   D    
C94   O2    A    
C28   C32   A    
C42   H29   S    
H41   O61   S    
C24   C25   S    
Cr9   O19   S    
Cr4   O30   S    
C61   C83   A    
C85   O32   A    
C30   C34   A    
C16   H57   S    
C6    C77   S    
C12   H46   S    
C100  O39   A    
Cr7   O13   S    
C68   C73   A    
C32   C37   A    
C29   H20   S    
C27   C31   A    
C46   C51   A    
C51   H33   S    
C67   C90   S    
C17   C21   A    
C34   C39   A    
C40   H27   S    
C86   O33   A    
Cr12  O9    S    
C19   C23   A    
C65   H4    S    
Cr1   O40   S    
C56   O26   A    
C107  H12   S    
C25   O15   A    
Cr2   O32   S    
C55   O25   A    
Cr3   O3    S    
C3    C56   S    
C66   C71   A    
C8    O58   D    
C9    C103  S    
C64   H3    S    
Cr1   O1    S    
C80   C112  S    
C47   O17   A    
Cr7   O39   S    
C53   O22   A    
Cr10  O25   S    
C72   C76   A    
C58   C69   S    
C28   H19   S    
C42   C48   A    
C11   C105  S    
Cr4   O35   S    
C72   H6    S    
Cr6   O11   S    
C13   C38   A    
Cr8   O45   S    
C7    C78   S    
C94   O56   A    
C40   C41   A    
C16   H54   S    
Cr3   O29   S    
C7    O55   D    
C45   C93   S    
C26   C30   A    
C54   O24   A    
C22   C27   A    
C15   H53   S    
C74   C78   A    
C1    C26   S    
C47   O21   A    
C31   C35   A    
C90   O47   A    
C23   C28   A    
C42   C43   A    
H42   O63   S    
C105  C112  S    
Cr9   O10   S    
C104  C108  S    
C30   H21   S    
C106  C110  S    
C93   O45   A    
C101  C106  S    
Cr3   O11   S    
Cr9   O46   S    
C69   C106  S    
Cr12  O27   S    
C53   O27   A    
Cr2   O10   S    
C13   C20   A    
C2    C19   A    
C58   C110  S    
Cr1   O9    S    
C91   C108  S    
C49   H31   S    
C36   O16   A    
C89   O41   A    
C25   O19   A    
C93   O68   A    
Cr2   O2    S    
C76   C81   A    
C55   O29   A    
C66   C92   S    
C35   C84   S    
C16   H55   S    
C85   O12   A    
C79   C97   S    
C32   H24   S    
C18   C22   A    
C101  C111  S    
Cr9   O56   S    
C8    O59   S    
C86   O23   A    
C59   C63   A    
Cr8   O9    S    
H43   O65   S    
C15   H51   S    
C83   C100  S    
Cr8   O22   S    
C20   H16   S    
C5    C76   S    
C13   C15   S    
Cr6   O23   S    
C21   H17   S    
Cr12  O68   S    
Cr5   O12   S    
C33   H25   S    
C71   C75   A    
Cr4   O13   S    
C69   C111  S    
C2    C37   A    
C88   O44   A    
H37   O52   S    
C77   C82   A    
C3    C109  S    
C80   C91   S    
C10   C104  S    
C41   C44   A    
C54   C111  S    
H39   O57   S    
C2    C14   S    
C43   C46   A    
C10   O63   S    
C63   H2    S    
C44   C94   S    
C62   H60   S    
C61   C65   A    
C9    O60   D    
C48   C52   A    
C46   C96   S    
C54   O28   A    
C12   H44   S    
C23   C36   S    
C5    O51   D    
Cr10  O66   S    
C97   O36   A    
C73   C77   A    
Cr3   O33   S    
C14   H48   S    
C103  C107  S    
C45   C50   A    
C36   O20   A    
C96   O67   A    
H40   O59   S    
C75   C79   A    
Cr12  O31   S    
C19   H15   S    
Cr9   O24   S    
Cr11  O26   S    
Cr11  O67   S    
