data_mof_unit_38271.cif
_audit_creation_date              2012-12-11T15:22:34-0500
_audit_creation_method            fapswitch 2.2
_symmetry_space_group_name_H-M    P1
_symmetry_Int_Tables_number       1
_space_group_crystal_system       triclinic
_cell_length_a                    22.869432
_cell_length_b                    7.360746
_cell_length_c                    20.663182
_cell_angle_alpha                 89.999988
_cell_angle_beta                  93.351853
_cell_angle_gamma                 90.0
_cell_volume                      3472.40867356

loop_
_atom_site_label
_atom_site_type_symbol
_atom_type_description
_atom_site_fract_x
_atom_site_fract_y
_atom_site_fract_z
_atom_type_partial_charge
O1    O     O_R   0.438030 0.494310 0.439340 -0.537284
O2    O     O_R   0.561970 0.994310 0.560660 -0.537284
O3    O     O_R   0.556900 0.822900 0.435960 -0.522634
O4    O     O_R   0.443100 0.322900 0.564040 -0.522633
C1    C     C_R   0.575580 0.655755 0.421379 0.696420
C2    C     C_R   0.424420 0.155755 0.578621 0.696420
O5    O     O_R   0.438170 0.823950 0.431660 -0.542121
O6    O     O_R   0.561830 0.323950 0.568340 -0.542121
O7    O     O_R   0.442390 0.995390 0.556340 -0.529722
O8    O     O_R   0.557610 0.495390 0.443660 -0.529722
C3    C     C_R   0.418637 0.655532 0.415934 0.696028
C4    C     C_R   0.581363 0.155532 0.584065 0.696027
O9    O     O_3   0.501520 0.661170 0.540910 -0.378340
O10   O     O_3   0.498480 0.161170 0.459090 -0.378340
V1    V     V_3+5 0.499720 0.935580 0.492410 1.497659
V2    V     V_3+5 0.500280 0.435580 0.507590 1.497659
C5    C     C_R   0.826852 0.947988 0.860815 -0.102383
C6    C     C_R   0.173148 0.447988 0.139185 -0.102383
C7    C     C_R   0.869893 0.083773 0.865370 -0.097739
C8    C     C_R   0.130107 0.583773 0.134630 -0.097739
C9    C     C_R   0.865763 0.231650 0.822253 -0.114625
C10   C     C_R   0.134237 0.731650 0.177747 -0.114625
C11   C     C_R   0.818329 0.248900 0.775652 -0.029630
C12   C     C_R   0.181671 0.748900 0.224347 -0.029629
C13   C     C_R   0.775163 0.110364 0.771898 0.010257
C14   C     C_R   0.224837 0.610364 0.228102 0.010256
C15   C     C_R   0.780174 0.958474 0.813817 0.160119
C16   C     C_R   0.219826 0.458473 0.186183 0.160119
C17   C     C_R   0.812646 0.399168 0.732447 0.412594
C18   C     C_R   0.187354 0.899168 0.267553 0.412592
C19   C     C_R   0.763399 0.411499 0.688700 -0.263982
C20   C     C_R   0.236601 0.911499 0.311300 -0.263982
C21   C     C_R   0.720744 0.274814 0.684928 0.030228
C22   C     C_R   0.279256 0.774814 0.315072 0.030228
C23   C     C_R   0.727075 0.122113 0.725812 0.067050
C24   C     C_R   0.272925 0.622113 0.274188 0.067050
C25   C     C_R   0.685385 0.980455 0.720435 0.117258
C26   C     C_R   0.314615 0.480455 0.279565 0.117258
C27   C     C_R   0.691760 0.828900 0.761379 -0.186524
C28   C     C_R   0.308240 0.328900 0.238621 -0.186524
C29   C     C_R   0.738451 0.818698 0.807972 -0.137361
C30   C     C_R   0.261549 0.318697 0.192028 -0.137363
C31   C     C_R   0.672379 0.287008 0.639840 -0.149060
C32   C     C_R   0.327621 0.787008 0.360160 -0.149059
C33   C     C_R   0.630980 0.145691 0.633700 -0.076863
C34   C     C_R   0.369020 0.645691 0.366300 -0.076864
C35   C     C_R   0.638107 0.992286 0.674075 -0.203274
C36   C     C_R   0.361893 0.492286 0.325925 -0.203274
H1    H     H_    0.829714 0.833659 0.893949 0.121861
H2    H     H_    0.170286 0.333659 0.106051 0.121861
H3    H     H_    0.900336 0.331434 0.825572 0.204565
H4    H     H_    0.099664 0.831435 0.174427 0.204565
H5    H     H_    0.758698 0.526785 0.656265 0.172711
H6    H     H_    0.241302 0.026786 0.343735 0.172711
H7    H     H_    0.667797 0.404527 0.608309 0.140423
H8    H     H_    0.332203 0.904527 0.391690 0.140423
H9    H     H_    0.606418 0.882721 0.669956 0.131266
H10   H     H_    0.393582 0.382721 0.330045 0.131265
H11   H     H_    0.660412 0.718461 0.757609 0.128772
H12   H     H_    0.339588 0.218461 0.242391 0.128772
H13   H     H_    0.742174 0.700521 0.839222 0.119239
H14   H     H_    0.257826 0.200521 0.160778 0.119240
C37   C     C_3   0.253370 0.243762 0.815155 -0.359693
C38   C     C_3   0.746630 0.743762 0.184845 -0.359693
C39   C     C_3   0.237117 0.921093 0.782008 -0.246917
C40   C     C_3   0.762882 0.421093 0.217992 -0.246917
C41   C     C_3   0.289797 0.940892 0.737446 -0.265721
C42   C     C_3   0.710203 0.440892 0.262554 -0.265720
H15   H     H_    0.345115 0.221018 0.792357 0.090471
H16   H     H_    0.654885 0.721017 0.207643 0.090471
H17   H     H_    0.272909 0.198553 0.863083 0.130951
H18   H     H_    0.727091 0.698553 0.136917 0.130951
H19   H     H_    0.204625 0.822374 0.761067 0.242303
H20   H     H_    0.795375 0.322374 0.238933 0.242303
H21   H     H_    0.253231 0.867965 0.830193 0.180629
H22   H     H_    0.746769 0.367965 0.169807 0.180629
H23   H     H_    0.331651 0.915061 0.766127 0.192311
H24   H     H_    0.668349 0.415061 0.233873 0.192311
H25   H     H_    0.287880 0.843428 0.697377 0.272458
H26   H     H_    0.712119 0.343428 0.302623 0.272457
C43   C     C_1   0.378509 0.147609 0.624062 -0.041944
C44   C     C_1   0.621491 0.647609 0.375938 -0.041944
C45   C     C_3   0.206295 0.106052 0.790322 0.044603
C46   C     C_3   0.793705 0.606052 0.209678 0.044602
C47   C     C_3   0.302919 0.260226 0.766422 0.327409
C48   C     C_3   0.697081 0.760226 0.233578 0.327410
C49   C     C_3   0.291221 0.130235 0.707098 -0.104564
C50   C     C_3   0.708779 0.630235 0.292902 -0.104564
C51   C     C_3   0.229225 0.165826 0.672000 0.357215
C52   C     C_3   0.770774 0.665826 0.328000 0.357214
C53   C     C_3   0.181108 0.170274 0.722745 -0.319622
C54   C     C_3   0.818892 0.670274 0.277255 -0.319620
C55   C     C_1   0.339515 0.140504 0.661509 0.104098
C56   C     C_1   0.660485 0.640504 0.338491 0.104098
C57   C     C_1   0.159024 0.091974 0.836805 -0.012940
C58   C     C_1   0.840976 0.591974 0.163195 -0.012940
C59   C     C_1   0.120727 0.082888 0.875076 -0.139902
C60   C     C_1   0.879273 0.582888 0.124924 -0.139902
H27   H     H_    0.163972 0.311074 0.726579 0.181240
H28   H     H_    0.836028 0.811073 0.273421 0.181240
H29   H     H_    0.142807 0.084722 0.707017 0.218282
H30   H     H_    0.857193 0.584721 0.292983 0.218282
H31   H     H_    0.229866 0.297331 0.646888 0.131247
H32   H     H_    0.770134 0.797332 0.353112 0.131247
H33   H     H_    0.232022 0.376913 0.823600 0.213993
H34   H     H_    0.767978 0.876913 0.176400 0.213993
O11   O     O_R   0.942420 0.735670 0.056390 -0.535158
O12   O     O_R   0.057580 0.235670 0.943610 -0.535158
O13   O     O_R   0.061840 0.404850 0.068350 -0.521240
O14   O     O_R   0.938160 0.904850 0.931650 -0.521240
C61   C     C_R   0.081157 0.573432 0.084262 0.689660
C62   C     C_R   0.918843 0.073432 0.915738 0.689660
O15   O     O_R   0.943100 0.406010 0.064050 -0.531432
O16   O     O_R   0.056900 0.906010 0.935950 -0.531432
O17   O     O_R   0.938020 0.234710 0.939330 -0.543520
O18   O     O_R   0.061980 0.734710 0.060670 -0.543520
C63   C     C_R   0.924631 0.574258 0.078738 0.704833
C64   C     C_R   0.075369 0.074258 0.921262 0.704832
O19   O     O_3   0.998500 0.567790 0.959120 -0.371964
O20   O     O_3   0.001500 0.067790 0.040880 -0.371964
V3    V     V_3+5 0.000280 0.293330 0.007580 1.501424
V4    V     V_3+5 0.999720 0.793330 0.992420 1.501423
S1    S     S_3+6 0.311577 0.490872 0.744412 -0.081785
O21   O     O_2   0.325969 0.596633 0.805428 -0.350364
O22   O     O_2   0.360194 0.515364 0.699241 -0.352106
O23   O     O_3   0.247498 0.560739 0.709191 -0.536977
H35   H     H_    0.255005 0.578115 0.662853 0.375960
S2    S     S_3+6 0.688423 0.990872 0.255588 -0.081785
O24   O     O_2   0.674031 0.096633 0.194572 -0.350364
O25   O     O_2   0.639806 0.015364 0.300759 -0.352106
O26   O     O_3   0.752502 0.060739 0.290809 -0.536977
H36   H     H_    0.744994 0.078115 0.337147 0.375960
S3    S     S_3+6 0.208619 0.010455 0.606529 -0.000102
O27   O     O_2   0.260457 0.961708 0.568558 -0.346225
O28   O     O_2   0.182198 0.840054 0.632200 -0.322015
O29   O     O_3   0.158286 0.114188 0.556756 -0.469384
H37   H     H_    0.149756 0.026724 0.521005 0.388939
S4    S     S_3+6 0.791381 0.510456 0.393471 -0.000102
O30   O     O_2   0.739543 0.461710 0.431443 -0.346229
O31   O     O_2   0.817801 0.340053 0.367800 -0.322010
O32   O     O_3   0.841714 0.614188 0.443243 -0.469383
H38   H     H_    0.850240 0.526734 0.478998 0.388937
S5    S     S_3+6 0.867318 0.569296 0.728586 0.021668
O33   O     O_2   0.881956 0.646324 0.794807 -0.337983
O34   O     O_2   0.921736 0.485597 0.704019 -0.298903
O35   O     O_3   0.844677 0.739770 0.678930 -0.476626
H39   H     H_    0.851825 0.696669 0.634668 0.362482
S6    S     S_3+6 0.132682 0.069295 0.271414 0.021670
O36   O     O_2   0.118044 0.146324 0.205193 -0.337983
O37   O     O_2   0.078264 0.985596 0.295980 -0.298902
O38   O     O_3   0.155322 0.239769 0.321070 -0.476622
H40   H     H_    0.148176 0.196665 0.365333 0.362481

loop_
_geom_bond_atom_site_label_1
_geom_bond_atom_site_label_2
_ccdc_geom_bond_type
C42   H26   S    
S5    O35   S    
C40   C42   S    
O23   H35   S    
C44   C56   T    
C41   H23   S    
S6    O38   S    
C29   H13   S    
O12   V3    S    
O2    C4    A    
S2    O24   D    
C2    O7    A    
H15   C47   S    
S1    O21   D    
C27   C29   A    
C7    C62   S    
O5    C3    A    
C54   H28   S    
O18   V4    S    
O17   V3    S    
C11   C17   A    
C23   C25   A    
S6    O37   D    
O13   C61   A    
C48   C50   S    
C39   C45   S    
S5    O33   D    
C17   S5    S    
C39   H19   S    
C46   C58   S    
C33   C35   A    
C20   H6    S    
C59   C64   S    
C15   C29   A    
C38   C46   S    
O14   C62   A    
C5    C7    A    
C58   C60   T    
C39   C41   S    
O1    C3    A    
S3    O29   S    
O38   H40   S    
C19   C21   A    
C61   O18   A    
C25   C35   A    
C30   H14   S    
C26   C36   A    
C54   H30   S    
C28   C30   A    
C45   C57   S    
O6    V2    S    
C2    C43   S    
C51   H31   S    
C53   H29   S    
C38   C48   S    
C52   S4    S    
C32   C34   A    
C34   C36   A    
C47   C49   S    
C42   H24   S    
C18   S6    S    
C50   C56   S    
C51   S3    S    
C48   S2    S    
C5    C15   A    
O12   C64   A    
C6    C16   A    
S6    O36   D    
O4    C2    A    
C5    H1    S    
C4    C33   S    
S1    O23   S    
O5    V1    S    
C37   C45   S    
C20   C22   A    
O4    V2    S    
C35   H9    S    
C8    C61   S    
C43   C55   T    
C32   H8    S    
C52   C54   S    
O6    C4    A    
C27   H11   S    
C41   H25   S    
O1    V2    S    
C19   H5    S    
C36   H10   S    
O2    V1    S    
C31   C33   A    
C52   H32   S    
O16   C64   A    
S4    O31   D    
C13   C23   A    
O15   C63   A    
C14   C24   A    
C50   C52   S    
C9    C11   A    
S3    O27   D    
C42   C50   S    
C10   C12   A    
C51   C53   S    
C8    C10   A    
O26   H36   S    
H16   C48   S    
S2    O26   S    
C9    H3    S    
O3    V1    S    
O20   V3    S    
C6    H2    S    
C60   C63   S    
C10   H4    S    
O35   H39   S    
O19   V4    S    
C31   H7    S    
S5    O34   D    
C22   C32   A    
C7    C9    A    
C41   C49   S    
C12   C14   A    
C37   H17   S    
O29   H37   S    
O3    C1    A    
S4    O32   S    
S2    O25   D    
C57   C59   T    
C38   H34   S    
C13   C15   A    
C45   C53   S    
C14   C16   A    
C39   H21   S    
C24   C26   A    
O7    V1    S    
C1    O8    A    
C17   C19   A    
O8    V2    S    
O32   H38   S    
O14   V4    S    
C18   C20   A    
C1    C44   S    
O13   V3    S    
C26   C28   A    
C49   C55   S    
C16   C30   A    
C21   C23   A    
C22   C24   A    
C47   S1    S    
C6    C8    A    
C38   H18   S    
C12   C18   A    
S1    O22   D    
S4    O30   D    
C40   C46   S    
O16   V4    S    
C11   C13   A    
O15   V3    S    
C25   C27   A    
O9    V2    S    
C28   H12   S    
S3    O28   D    
C49   C51   S    
O10   V1    S    
C3    C34   S    
C46   C54   S    
O11   V4    S    
C53   H27   S    
C21   C31   A    
O11   C63   A    
C62   O17   A    
C37   C47   S    
C40   H22   S    
C37   H33   S    
C40   H20   S    
