data_mof_unit_27789.cif
_audit_creation_date              2012-12-11T20:26:08-0500
_audit_creation_method            fapswitch 2.2
_symmetry_space_group_name_H-M    P1
_symmetry_Int_Tables_number       1
_space_group_crystal_system       triclinic
_cell_length_a                    8.217541
_cell_length_b                    17.360458
_cell_length_c                    18.750676
_cell_angle_alpha                 103.165451
_cell_angle_beta                  91.30395
_cell_angle_gamma                 98.373104
_cell_volume                      2572.55927749

loop_
_atom_site_label
_atom_site_type_symbol
_atom_type_description
_atom_site_fract_x
_atom_site_fract_y
_atom_site_fract_z
_atom_type_partial_charge
Ba1   Ba    Ba6+2 0.853800 0.535410 0.467450 1.627330
Ba2   Ba    Ba6+2 0.336030 0.464660 0.532560 1.630089
C1    C     C_3   0.694737 0.823366 0.313812 -0.005815
C2    C     C_3   0.635058 0.737996 0.321534 0.294988
C3    C     C_3   0.439245 0.283387 0.294331 0.529899
C4    C     C_3   0.539871 0.287200 0.226234 -0.046246
C5    C     C_3   0.049822 0.310581 0.727163 0.422496
C6    C     C_3   0.058980 0.293190 0.803552 -0.022667
C7    C     C_3   0.523607 0.261761 0.682537 0.377666
C8    C     C_3   0.491047 0.182878 0.705912 -0.356538
C9    C     C_R   0.995546 0.460517 0.045290 0.005186
C10   C     C_R   0.903413 0.417223 0.090014 -0.093138
C11   C     C_R   0.768095 0.433594 0.949010 -0.106017
C12   C     C_3   0.127704 0.695190 0.287743 0.341061
C13   C     C_R   0.933113 0.464230 0.974641 0.022310
C14   C     C_R   0.711148 0.433229 0.878610 -0.099185
C15   C     C_R   0.815367 0.463572 0.830108 -0.035302
C16   C     C_R   0.977750 0.500734 0.855830 -0.008130
C17   C     C_R   0.036688 0.501632 0.928584 0.023086
C18   C     C_R   0.761795 0.458069 0.756685 -0.012299
C19   C     C_R   0.870789 0.487116 0.709291 -0.298080
C20   C     C_R   0.026910 0.529553 0.734512 0.051633
C21   C     C_R   0.080187 0.537978 0.809228 -0.045604
C22   C     C_R   0.157412 0.498340 0.071261 0.016743
C23   C     C_3   0.140086 0.716803 0.213723 -0.391916
C24   C     C_R   0.216585 0.497979 0.143689 0.011272
C25   C     C_R   0.114049 0.459968 0.189904 -0.031294
C26   C     C_R   0.961491 0.416516 0.160082 -0.038419
C27   C     C_R   0.231895 0.582826 0.839221 -0.026059
C28   C     C_R   0.290606 0.583045 0.909538 -0.099487
C29   C     C_R   0.198491 0.539927 0.954615 0.004685
C30   C     C_R   0.260642 0.536424 0.025466 0.021333
C31   C     C_R   0.424984 0.567819 0.051542 -0.113684
C32   C     C_R   0.378669 0.535141 0.169578 -0.026178
C33   C     C_R   0.482087 0.567222 0.121711 -0.108508
C34   C     C_3   0.262323 0.716078 0.646183 0.313263
C35   C     C_R   0.433264 0.538490 0.242397 -0.010069
C36   C     C_R   0.326718 0.505551 0.288693 -0.268721
C37   C     C_R   0.168133 0.465914 0.263999 0.038087
C38   C     C_2   0.434641 0.724252 0.489279 -0.272901
C39   C     C_3   0.304412 0.778421 0.499106 -0.012197
C40   C     C_2   0.379425 0.863971 0.502445 -0.104934
C41   C     C_2   0.543051 0.887907 0.520127 -0.003504
C42   C     C_2   0.646854 0.827543 0.532122 -0.139689
C43   C     C_1   0.578891 0.752105 0.524915 0.072652
C44   C     C_R   0.795075 0.142192 0.546571 -0.130235
C45   C     C_3   0.329785 0.802879 0.682959 -0.393818
C46   C     C_R   0.858782 0.222895 0.553894 0.018409
C47   C     C_R   0.611455 0.242748 0.492528 0.053316
C48   C     C_R   0.546709 0.162188 0.485107 -0.121504
C49   C     C_R   0.636317 0.111234 0.512781 0.008205
C50   C     C_2   0.621873 0.972619 0.532314 -0.081404
C51   C     C_2   0.562505 0.025702 0.500602 -0.073418
C52   C     C_R   0.764224 0.273535 0.529342 -0.279143
C53   C     C_3   0.939659 0.290945 0.371176 0.287697
C54   C     C_3   0.873014 0.201492 0.346911 -0.392438
C55   C     C_3   0.727754 0.650262 0.692933 0.311289
C56   C     C_3   0.737572 0.676012 0.776301 -0.397968
H1    H     H_    0.680521 0.734996 0.376829 0.055703
H2    H     H_    0.411735 0.805344 0.731634 0.133736
H3    H     H_    0.402357 0.832357 0.644978 0.065344
H4    H     H_    0.841136 0.323460 0.395588 0.041214
H5    H     H_    0.041972 0.300121 0.413188 0.071438
H6    H     H_    0.784319 0.189500 0.298731 0.151184
H7    H     H_    0.811097 0.179787 0.391774 0.075096
H8    H     H_    0.972946 0.165715 0.331649 0.093856
H9    H     H_    0.847444 0.634055 0.674405 0.014851
H10   H     H_    0.629612 0.597523 0.675643 0.068611
H11   H     H_    0.828925 0.831347 0.304872 0.116413
H12   H     H_    0.762295 0.625962 0.800449 0.062289
H13   H     H_    0.498136 0.725864 0.317629 -0.017672
H14   H     H_    0.677644 0.865902 0.366194 0.049153
H15   H     H_    0.407343 0.343743 0.318810 -0.013892
H16   H     H_    0.532017 0.226057 0.190136 0.086600
H17   H     H_    0.672292 0.307213 0.243868 0.092812
H18   H     H_    0.270047 0.738637 0.205061 0.108650
H19   H     H_    0.112114 0.372386 0.729375 0.050721
H20   H     H_    0.917750 0.306492 0.711168 -0.150496
H21   H     H_    0.964128 0.321506 0.836959 0.031146
H22   H     H_    0.030630 0.227398 0.798152 0.089156
H23   H     H_    0.656305 0.274048 0.673198 -0.063937
H24   H     H_    0.450507 0.255768 0.630610 0.090277
H25   H     H_    0.525899 0.134019 0.662480 0.067378
H26   H     H_    0.358337 0.168262 0.715288 0.153110
H27   H     H_    0.998683 0.667945 0.291749 0.121420
H28   H     H_    0.565061 0.187255 0.757388 0.102499
H29   H     H_    0.583834 0.408330 0.862957 0.116661
H30   H     H_    0.884424 0.381121 0.190313 0.087205
H31   H     H_    0.309110 0.617929 0.808685 0.099708
H32   H     H_    0.609366 0.592343 0.137566 0.111547
H33   H     H_    0.369255 0.509513 0.344633 0.079181
H34   H     H_    0.677693 0.410390 0.982585 0.062945
H35   H     H_    0.786190 0.381430 0.071536 0.059081
H36   H     H_    0.408733 0.619148 0.927427 0.059712
H37   H     H_    0.211056 0.650898 0.290155 -0.019297
H38   H     H_    0.514730 0.592362 0.018460 0.071559
H39   H     H_    0.453304 0.005875 0.463605 0.077137
H40   H     H_    0.776974 0.846264 0.548128 0.095631
H41   H     H_    0.872664 0.104487 0.564790 0.063836
H42   H     H_    0.732955 0.990164 0.567967 0.069637
H43   H     H_    0.297370 0.906489 0.498096 0.068068
H44   H     H_    0.429639 0.138430 0.454625 0.086074
H45   H     H_    0.407216 0.662650 0.457770 0.068356
H46   H     H_    0.815133 0.335450 0.532926 0.066219
H47   H     H_    0.095085 0.662990 0.169332 0.089857
H48   H     H_    0.063663 0.763920 0.210990 0.125899
H49   H     H_    0.365966 0.685160 0.625117 0.024291
H50   H     H_    0.171754 0.713698 0.600727 0.032464
O1    O     O_2   0.871520 0.445720 0.321500 -0.463899
O2    O     O_3   0.692897 0.714359 0.664630 -0.637899
O3    O     O_3   0.173468 0.764189 0.344417 -0.618435
O4    O     O_2   0.318180 0.554310 0.678550 -0.472517
O5    O     O_3   0.068680 0.548140 0.588860 -0.488920
O6    O     O_3   0.527520 0.406960 0.624950 -0.482411
O7    O     O_3   0.182998 0.681416 0.698483 -0.644107
O8    O     O_3   0.608500 0.402060 0.457050 -0.470377
O9    O     O_3   0.104610 0.363860 0.586060 -0.481067
O10   O     O_2   0.195237 0.221652 0.537606 -0.500695
O11   O     O_3   0.124013 0.254848 0.676835 -0.597630
O12   O     O_3   0.121030 0.451930 0.411150 -0.483466
O13   O     O_3   0.581210 0.598010 0.542960 -0.490895
O14   O     O_2   0.335820 0.303580 0.452320 -0.478048
O15   O     O_3   0.539000 0.257053 0.342863 -0.677595
O16   O     O_2   0.427169 0.469769 0.755501 -0.495745
O17   O     O_3   0.476564 0.322465 0.737569 -0.577421
O18   O     O_3   0.662190 0.593100 0.375060 -0.475627
O19   O     O_2   0.775431 0.538614 0.245464 -0.497486
O20   O     O_3   0.994719 0.318213 0.309861 -0.652961
O21   O     O_3   0.700476 0.682792 0.267127 -0.625196
O22   O     O_2   0.853880 0.696450 0.547730 -0.472048
O23   O     O_3   0.085100 0.636210 0.413950 -0.489243
O24   O     O_2   0.972258 0.773987 0.451290 -0.500414
P1    P     P_3+3 0.038810 0.422920 0.331160 0.972630
P2    P     P_3+3 0.678260 0.686080 0.568600 0.977021
P3    P     P_3+3 0.132137 0.739762 0.428731 0.946785
P4    P     P_3+3 0.150900 0.577150 0.668860 0.974839
P5    P     P_3+3 0.071817 0.263302 0.588086 0.952161
P6    P     P_3+3 0.642083 0.586527 0.281362 0.921324
P7    P     P_3+3 0.521544 0.300699 0.436040 0.942201
P8    P     P_3+3 0.549364 0.415360 0.719118 0.944185
H51   H     H_    0.226683 0.836290 0.700763 0.113343
H52   H     H_    0.838380 0.727288 0.795399 0.125010
H53   H     H_    0.619006 0.694157 0.795688 0.113738
N1    N     N_2   0.290434 0.224543 0.275532 -0.423871
H54   H     H_    0.225343 0.218279 0.320478 0.199792
C57   C     C_3   0.189728 0.220466 0.209871 -0.231101
H55   H     H_    0.065829 0.186187 0.212369 0.117595
H56   H     H_    0.245447 0.187610 0.161150 0.100418
H57   H     H_    0.175549 0.281268 0.203706 0.129343
N2    N     N_2   0.485804 0.343113 0.187278 -0.457703
H58   H     H_    0.549343 0.400191 0.205651 0.207204
C58   C     C_3   0.468622 0.317225 0.108039 -0.273784
H59   H     H_    0.459633 0.369369 0.083891 0.114188
H60   H     H_    0.354458 0.273598 0.090748 0.113011
H61   H     H_    0.575372 0.288736 0.086276 0.101415
N3    N     N_2   0.603244 0.843612 0.255373 -0.426157
H62   H     H_    0.480635 0.846229 0.264347 0.208987
C59   C     C_3   0.635010 0.806165 0.180904 -0.189046
H63   H     H_    0.583228 0.837872 0.142679 0.092592
H64   H     H_    0.574834 0.742719 0.166476 0.121971
H65   H     H_    0.769602 0.809530 0.174025 0.115528
N4    N     N_2   0.220182 0.324456 0.840225 -0.375824
H66   H     H_    0.254731 0.384937 0.844407 0.218521
C60   C     C_3   0.246111 0.302813 0.909174 -0.228766
H67   H     H_    0.159998 0.328560 0.949507 0.096364
H68   H     H_    0.374404 0.326690 0.931551 0.100651
H69   H     H_    0.227468 0.236648 0.900982 0.110380
H70   H     H_    0.829518 0.480917 0.652778 0.070542

loop_
_geom_bond_atom_site_label_1
_geom_bond_atom_site_label_2
_ccdc_geom_bond_type
C44   H41   S    
C40   H43   S    
C53   O20   S    
C34   H50   S    
C32   C35   A    
C39   C40   S    
C8    H25   S    
C53   C54   S    
C17   C29   A    
C27   H31   S    
C23   H47   S    
C5    C6    S    
C42   C43   D    
C46   C52   A    
Ba2   O4    S    
C43   P2    S    
C27   C28   A    
C19   H70   S    
C46   P5    S    
C10   C26   A    
C21   C27   A    
C52   H46   S    
C60   H67   S    
C1    H11   S    
C22   C24   A    
O14   P7    D    
C16   C17   A    
O23   P3    S    
C36   C37   A    
C32   C33   A    
Ba2   O5    S    
C41   C50   S    
C7    O17   S    
O7    P4    S    
C47   C52   A    
C53   H4    S    
O15   P7    S    
C9    C22   A    
C15   C18   A    
C34   C45   S    
O12   P1    S    
C59   H65   S    
Ba1   O1    S    
C45   H2    S    
C42   H40   S    
C56   H53   S    
C24   C32   A    
C47   P7    S    
C8    H28   S    
O21   P6    S    
C55   O2    S    
C25   C37   A    
C14   C15   A    
O5    P4    S    
C53   H5    S    
C26   H30   S    
C6    H21   S    
C54   H6    S    
O19   P6    D    
O6    P8    S    
O13   P2    S    
O10   P5    D    
C7    C8    S    
C57   H56   S    
C7    H24   S    
C5    H19   S    
O8    P7    S    
C19   C20   A    
C34   H49   S    
C59   H64   S    
C60   H68   S    
O22   P2    D    
Ba1   O5    S    
C55   H9    S    
Ba1   P1    S    
Ba2   O9    S    
C23   H48   S    
C4    H16   S    
N4    C60   S    
Ba2   O14   S    
O17   P8    S    
C12   O3    S    
C44   C46   A    
O4    P4    D    
O1    P1    D    
C16   C21   A    
O11   P5    S    
C5    O11   S    
C4    H17   S    
Ba1   O18   S    
N1    C57   S    
Ba1   O22   S    
Ba2   O12   S    
C56   H12   S    
C3    N1    S    
C51   H39   S    
C36   H33   S    
C50   H42   S    
Ba2   P4    S    
C20   P4    S    
C49   C51   S    
Ba1   O12   S    
N3    H62   S    
C13   C17   A    
C41   C42   S    
C22   C30   A    
C35   C36   A    
C14   H29   S    
C57   H57   S    
C54   H7    S    
C56   H52   S    
C29   C30   A    
C58   H61   S    
C28   C29   A    
C15   C16   A    
C24   C25   A    
C48   C49   A    
C58   H59   S    
C57   H55   S    
C5    H20   S    
C38   C39   S    
Ba1   O8    S    
C58   H60   S    
C48   H44   S    
C9    C13   A    
C35   P6    S    
C11   C13   A    
C11   H34   S    
C59   H63   S    
N2    C58   S    
C10   H35   S    
O2    P2    S    
C40   C41   D    
C55   H10   S    
C1    C2    S    
C31   H38   S    
C12   H37   S    
C39   P3    S    
C50   C51   D    
N4    H66   S    
C37   P1    S    
Ba2   O13   S    
Ba1   Ba2   S    
C3    O15   S    
O18   P6    S    
C20   C21   A    
O16   P8    D    
C60   H69   S    
O9    P5    S    
C12   H27   S    
N1    H54   S    
Ba1   O23   S    
C45   H3    S    
C9    C10   A    
C2    O21   S    
C45   H51   S    
C23   H18   S    
C38   C43   D    
C30   C31   A    
C18   P8    S    
N3    C59   S    
C1    H14   S    
C28   H36   S    
C6    N4    S    
O20   P1    S    
C38   H45   S    
Ba2   O6    S    
O3    P3    S    
C55   C56   S    
C3    C4    S    
O24   P3    D    
C54   H8    S    
C44   C49   A    
C2    H1    S    
C8    H26   S    
C1    N3    S    
C31   C33   A    
Ba2   O8    S    
C12   C23   S    
C3    H15   S    
Ba1   O13   S    
C4    N2    S    
C33   H32   S    
C18   C19   A    
C47   C48   A    
C11   C14   A    
C25   C26   A    
C6    H22   S    
N2    H58   S    
C34   O7    S    
C2    H13   S    
Ba1   P2    S    
C7    H23   S    
