data_mof_unit_33052.cif
_audit_creation_date              2012-12-10T17:32:19-0500
_audit_creation_method            fapswitch 2.2
_symmetry_space_group_name_H-M    P1
_symmetry_Int_Tables_number       1
_space_group_crystal_system       triclinic
_cell_length_a                    12.3574
_cell_length_b                    13.238187
_cell_length_c                    15.004651
_cell_angle_alpha                 77.348903
_cell_angle_beta                  100.634923
_cell_angle_gamma                 116.72596
_cell_volume                      2128.6920596

loop_
_atom_site_label
_atom_site_type_symbol
_atom_type_description
_atom_site_fract_x
_atom_site_fract_y
_atom_site_fract_z
_atom_type_partial_charge
C1    C     C_R   0.854717 0.286725 0.510938 0.755832
C2    C     C_R   0.962910 0.573559 0.073616 0.109450
C3    C     C_R   0.046766 0.332879 0.085580 -0.223550
C4    C     C_R   0.049700 0.334945 0.992689 -0.214701
C5    C     C_R   0.022202 0.414903 0.926270 0.113015
C6    C     C_R   0.990832 0.493273 0.953171 0.059882
C7    C     C_R   0.960385 0.572496 0.886708 0.108290
C8    C     C_R   0.930912 0.650955 0.914160 -0.212757
C9    C     C_R   0.932883 0.651938 0.007190 -0.214983
C10   C     C_R   0.025745 0.418207 0.833333 -0.249935
C11   C     C_R   0.995066 0.496549 0.767518 -0.062613
C12   C     C_R   0.998547 0.498978 0.670884 0.796517
C13   C     C_R   0.960947 0.572368 0.793946 -0.246513
C14   C     C_R   0.280648 0.020393 0.378708 -0.203705
C15   C     C_R   0.227033 0.834833 0.472368 -0.037287
C16   C     C_R   0.807197 0.092949 0.596382 -0.193527
C17   C     C_R   0.722174 0.986226 0.631578 -0.157576
C18   C     C_R   0.599693 0.949979 0.599290 -0.214393
C19   C     C_R   0.560054 0.016992 0.525531 0.071855
C20   C     C_R   0.648288 0.124297 0.487272 0.081514
C21   C     C_R   0.436149 0.980627 0.487735 0.071787
C22   C     C_R   0.402368 0.053816 0.415643 0.169242
C23   C     C_R   0.144837 0.713159 0.487579 0.798610
C24   C     C_R   0.491063 0.156611 0.377252 -0.248681
C25   C     C_R   0.612434 0.188865 0.409781 -0.209585
C26   C     C_R   0.345657 0.871124 0.515337 -0.249067
C27   C     C_R   0.193211 0.911204 0.406956 -0.199426
C28   C     C_R   0.770763 0.164729 0.527302 -0.094486
C29   C     C_R   0.360794 0.355227 0.662840 -0.306153
C30   C     C_R   0.761796 0.644306 0.374515 0.003943
C31   C     C_R   0.673833 0.685740 0.352868 -0.391045
C32   C     C_R   0.575855 0.641779 0.406261 0.496175
C33   C     C_R   0.558081 0.544272 0.475222 -0.106837
C34   C     C_R   0.999472 0.498691 0.329247 0.810464
C35   C     C_R   0.655592 0.510349 0.498405 0.216180
C36   C     C_R   0.451813 0.482588 0.525485 -0.128799
C37   C     C_R   0.457314 0.407416 0.607511 0.108639
C38   C     C_R   0.556490 0.380503 0.631498 -0.245142
C39   C     C_R   0.650249 0.426319 0.575427 -0.142779
C40   C     C_R   0.335896 0.483596 0.494581 0.637189
C41   C     C_R   0.257509 0.375255 0.635797 -0.031173
C42   C     C_R   0.966762 0.574940 0.166714 -0.244590
C43   C     C_R   0.996527 0.496044 0.232578 -0.058701
C44   C     C_R   0.018180 0.412549 0.205825 -0.264853
C45   C     C_R   0.018357 0.412027 0.113039 0.113145
C46   C     C_R   0.990618 0.492890 0.046620 0.060263
Cu1   Cu    Cu3+1 0.098270 0.475420 0.521130 0.970127
Cu2   Cu    Cu3+1 0.901730 0.524580 0.478870 0.922974
H1    H     H_    0.947761 0.638010 0.188131 0.137812
H2    H     H_    0.467018 0.210483 0.319352 0.143044
H3    H     H_    0.254301 0.076656 0.324628 0.125604
H4    H     H_    0.366014 0.809227 0.566218 0.140791
H5    H     H_    0.900403 0.122227 0.627479 0.147214
H6    H     H_    0.538860 0.868861 0.633622 0.129513
H7    H     H_    0.750661 0.932969 0.687086 0.138844
H8    H     H_    0.677894 0.264498 0.372143 0.173680
H9    H     H_    0.184817 0.338394 0.680028 0.145411
H10   H     H_    0.559218 0.319411 0.692230 0.150304
H11   H     H_    0.365549 0.299819 0.726909 0.150493
H12   H     H_    0.034728 0.348237 0.257121 0.136502
H13   H     H_    0.839743 0.682330 0.335354 0.146364
H14   H     H_    0.684325 0.755726 0.296876 0.160317
H15   H     H_    0.717948 0.394533 0.595709 0.203346
H16   H     H_    0.068364 0.270550 0.135996 0.136648
H17   H     H_    0.073356 0.274055 0.972769 0.139007
H18   H     H_    0.050554 0.358872 0.811963 0.136673
H19   H     H_    0.937735 0.632915 0.742365 0.151014
H20   H     H_    0.907484 0.712165 0.863740 0.140716
H21   H     H_    0.911060 0.713967 0.027208 0.139698
H22   H     H_    0.101284 0.884156 0.373451 0.143059
N1    N     N_R   0.246280 0.438190 0.553160 -0.230275
N2    N     N_R   0.754320 0.561190 0.447410 -0.199760
O1    O     O_R   0.972510 0.318130 0.526570 -0.587949
O2    O     O_R   0.806530 0.359650 0.490890 -0.597699
O3    O     O_R   0.082980 0.479210 0.647590 -0.589552
O4    O     O_R   0.917000 0.520730 0.611900 -0.599646
O5    O     O_R   0.193470 0.640350 0.509110 -0.553031
O6    O     O_R   0.027490 0.681870 0.473430 -0.592243
O7    O     O_R   0.083000 0.479270 0.388100 -0.531557
O8    O     O_R   0.917020 0.520790 0.352410 -0.599133
O9    O     O_3   0.307998 0.520945 0.403851 -0.509974
C47   C     C_3   0.298712 0.442651 0.348544 0.076710
H23   H     H_    0.207275 0.369658 0.350926 0.133153
H24   H     H_    0.367001 0.406473 0.370313 0.104787
C48   C     C_3   0.317444 0.503215 0.250078 -0.727441
H25   H     H_    0.414541 0.563855 0.244763 0.245483
H26   H     H_    0.291573 0.439423 0.203681 0.184993
H27   H     H_    0.261616 0.552190 0.227801 0.267810
O10   O     O_3   0.498296 0.694624 0.390282 -0.539400
C49   C     C_3   0.559420 0.807748 0.410162 0.082792
H28   H     H_    0.659878 0.839402 0.427984 0.122970
H29   H     H_    0.521294 0.810316 0.470254 0.170814
C50   C     C_3   0.534806 0.888587 0.328672 -0.773547
H30   H     H_    0.435744 0.866107 0.316343 0.260927
H31   H     H_    0.584488 0.978082 0.342499 0.209384
H32   H     H_    0.566256 0.882324 0.266251 0.233101

loop_
_geom_bond_atom_site_label_1
_geom_bond_atom_site_label_2
_ccdc_geom_bond_type
C16   C28   A    
C21   C26   A    
C50   H30   S    
C40   N1    A    
Cu2   O4    S    
C19   C20   A    
C25   H8    S    
Cu1   O7    S    
O9    C47   S    
C7    C8    A    
C3    H16   S    
C2    C46   A    
C5    C6    A    
C1    O2    A    
C36   C37   A    
C19   C21   A    
C9    H21   S    
C30   C31   A    
C20   C25   A    
C33   C36   A    
C18   C19   A    
Cu2   O6    S    
C16   H5    S    
C34   O8    A    
C38   H10   S    
C49   H29   S    
C14   H3    S    
C8    C9    A    
C1    C28   S    
C14   C27   A    
C17   H7    S    
C41   N1    A    
C15   C23   S    
C50   H31   S    
C21   C22   A    
C31   H14   S    
Cu2   N2    S    
C10   H18   S    
C24   H2    S    
C38   C39   A    
C44   H12   S    
C48   H26   S    
Cu1   Cu2   S    
Cu2   O2    S    
C36   C40   A    
C24   C25   A    
Cu1   O1    S    
C16   C17   A    
C15   C26   A    
C20   C28   A    
C48   H25   S    
C3    C45   A    
C35   C39   A    
C43   C44   A    
C37   C38   A    
C26   H4    S    
C34   O7    A    
C15   C27   A    
C32   O10   S    
C17   C18   A    
C23   O5    A    
Cu1   N1    S    
C27   H22   S    
C35   N2    A    
C8    H20   S    
C50   H32   S    
C47   H24   S    
C12   O4    A    
C22   C24   A    
C12   O3    A    
C42   C43   A    
Cu1   O5    S    
C3    C4    A    
C44   C45   A    
C49   C50   S    
C13   H19   S    
C48   H27   S    
C6    C46   A    
C29   C41   A    
C40   O9    S    
C31   C32   A    
C34   C43   S    
C4    C5    A    
C30   N2    A    
C11   C12   S    
C6    C7    A    
C47   C48   S    
C39   H15   S    
C1    O1    A    
C32   C33   A    
Cu2   O8    S    
C41   H9    S    
C5    C10   A    
C11   C13   A    
C14   C22   A    
C49   H28   S    
C4    H17   S    
C2    C42   A    
C33   C35   A    
C23   O6    A    
C10   C11   A    
C18   H6    S    
C42   H1    S    
Cu1   O3    S    
C45   C46   A    
C7    C13   A    
C47   H23   S    
C30   H13   S    
C29   C37   A    
C29   H11   S    
O10   C49   S    
C2    C9    A    
