data_mof_unit_19410.cif
_audit_creation_date              2012-12-10T17:18:16-0500
_audit_creation_method            fapswitch 2.2
_symmetry_space_group_name_H-M    P1
_symmetry_Int_Tables_number       1
_space_group_crystal_system       triclinic
_cell_length_a                    10.189479
_cell_length_b                    10.468001
_cell_length_c                    14.960845
_cell_angle_alpha                 90.798666
_cell_angle_beta                  81.60714
_cell_angle_gamma                 94.360335
_cell_volume                      1574.10998273

loop_
_atom_site_label
_atom_site_type_symbol
_atom_type_description
_atom_site_fract_x
_atom_site_fract_y
_atom_site_fract_z
_atom_type_partial_charge
C1    C     C_R   0.553837 0.734404 0.489331 0.930683
C2    C     C_R   0.445886 0.265425 0.500854 0.939879
C3    C     C_R   0.261727 0.437181 0.976731 -0.222374
C4    C     C_R   0.738378 0.561188 0.023843 -0.230059
C5    C     C_2   0.577642 0.870275 0.469463 -0.423358
C6    C     C_2   0.420972 0.128820 0.486424 -0.421345
C7    C     C_2   0.494845 0.928983 0.423318 -0.003711
C8    C     C_2   0.500985 0.067641 0.422493 -0.007993
C9    C     C_2   0.931886 0.519497 0.499503 0.055836
C10   C     C_2   0.075162 0.488305 0.490817 0.161881
C11   C     C_R   0.500453 0.499553 0.673212 0.886850
C12   C     C_R   0.499545 0.500304 0.326898 0.902545
C13   C     C_R   0.617794 0.533620 0.174280 -0.271177
C14   C     C_R   0.381628 0.468299 0.826232 -0.263113
C15   C     C_R   0.499087 0.501071 0.231300 -0.051243
C16   C     C_R   0.500960 0.497911 0.769028 -0.069519
C17   C     C_R   0.380780 0.467752 0.197110 -0.272140
C18   C     C_R   0.620227 0.526650 0.803219 -0.266151
C19   C     C_R   0.379992 0.467641 0.104762 0.102683
C20   C     C_R   0.620734 0.527824 0.895668 0.122828
C21   C     C_R   0.499948 0.499117 0.046738 0.046508
C22   C     C_R   0.500417 0.498079 0.953733 0.061502
C23   C     C_R   0.619436 0.531675 0.081741 0.103583
C24   C     C_R   0.380513 0.467567 0.918776 0.119245
C25   C     C_R   0.261560 0.436799 0.069622 -0.231467
C26   C     C_R   0.739115 0.558869 0.930895 -0.222064
H1    H     H_    0.708853 0.559686 0.201945 0.160131
H2    H     H_    0.289956 0.444835 0.798693 0.158534
H3    H     H_    0.289712 0.442002 0.242276 0.158635
H4    H     H_    0.711974 0.550129 0.758045 0.149038
H5    H     H_    0.169113 0.412952 0.113898 0.138167
H6    H     H_    0.831787 0.581757 0.886654 0.144531
H7    H     H_    0.169353 0.413671 0.950224 0.143666
H8    H     H_    0.830515 0.585666 0.050429 0.143492
H9    H     H_    0.345729 0.075589 0.533406 0.140522
H10   H     H_    0.655019 0.925217 0.499452 0.137353
H11   H     H_    0.121751 0.620726 0.581473 0.160918
H12   H     H_    0.872558 0.367392 0.429281 0.143625
N1    N     N_2   0.842700 0.448880 0.462930 -0.204330
N2    N     N_2   0.157300 0.551120 0.537070 -0.192165
O1    O     O_R   0.431060 0.692470 0.507460 -0.596495
O2    O     O_R   0.568940 0.307530 0.492540 -0.595519
O3    O     O_R   0.651120 0.659650 0.483670 -0.627294
O4    O     O_R   0.348880 0.340350 0.516330 -0.589932
O5    O     O_R   0.389960 0.516440 0.644050 -0.618965
O6    O     O_R   0.610040 0.483560 0.355950 -0.611430
O7    O     O_R   0.610030 0.483620 0.620260 -0.629329
O8    O     O_R   0.389970 0.516380 0.379740 -0.592934
Zn1   Zn    Zn3+2 0.353060 0.521920 0.515880 0.953206
Zn2   Zn    Zn3+2 0.646940 0.478080 0.484120 0.925635
C27   C     C_R   0.589615 0.133012 0.346790 0.180012
C28   C     C_R   0.727436 0.149058 0.347735 -0.108835
C29   C     C_R   0.811416 0.202764 0.273246 -0.171821
C30   C     C_R   0.758644 0.237591 0.196723 -0.097589
C31   C     C_R   0.621810 0.219052 0.194710 -0.120511
C32   C     C_R   0.537177 0.168307 0.269858 -0.190440
H13   H     H_    0.769555 0.120337 0.406070 0.110549
H14   H     H_    0.917497 0.216361 0.274554 0.113671
H15   H     H_    0.823752 0.278403 0.138859 0.123067
H16   H     H_    0.581189 0.244606 0.135040 0.146876
H17   H     H_    0.431331 0.154054 0.267472 0.133839
C33   C     C_R   0.401763 0.860753 0.368246 0.169246
C34   C     C_R   0.266597 0.836879 0.403021 -0.088684
C35   C     C_R   0.178036 0.779753 0.348524 -0.148155
C36   C     C_R   0.223149 0.749469 0.258553 -0.111851
C37   C     C_R   0.356946 0.776055 0.223016 -0.120033
C38   C     C_R   0.446422 0.830278 0.277860 -0.192248
H18   H     H_    0.230188 0.862077 0.472169 0.114016
H19   H     H_    0.074232 0.760108 0.375727 0.122713
H20   H     H_    0.154410 0.705923 0.216261 0.123145
H21   H     H_    0.391571 0.753838 0.153080 0.147471
H22   H     H_    0.549867 0.850563 0.249586 0.137659
N3    N     N_3   0.124628 0.391662 0.428816 -0.388176
H23   H     H_    0.075932 0.303367 0.449803 0.148464
H24   H     H_    0.101539 0.412631 0.365069 0.142869
N4    N     N_3   0.897177 0.634564 0.547296 -0.490409
H25   H     H_    0.814867 0.615257 0.596401 0.232916
H26   H     H_    0.877880 0.702018 0.501156 0.204871

loop_
_geom_bond_atom_site_label_1
_geom_bond_atom_site_label_2
_ccdc_geom_bond_type
O4    Zn1   S    
C25   H5    S    
C31   C32   A    
C26   H6    S    
C17   H3    S    
N3    H23   S    
C11   O7    A    
C12   O8    A    
C7    C8    S    
C29   C30   A    
C33   C38   A    
C1    C5    S    
C19   C21   A    
N4    H26   S    
C27   C32   A    
H11   N2    S    
H12   N1    S    
C10   N3    S    
C3    H7    S    
C36   H20   S    
C5    H10   S    
C9    N1    D    
C6    H9    S    
C13   C23   A    
C10   N2    D    
C38   H22   S    
C14   C24   A    
C30   C31   A    
C1    O3    A    
C2    O4    A    
C18   H4    S    
C9    N4    S    
C9    C10   S    
C37   C38   A    
C31   H16   S    
N3    H24   S    
C3    C24   A    
C2    C6    S    
O1    Zn1   S    
O7    Zn2   S    
C30   H15   S    
C4    H8    S    
C27   C28   A    
C3    C25   A    
N4    H25   S    
C12   O6    A    
C5    C7    D    
C4    C23   A    
C6    C8    D    
C7    C33   S    
C33   C34   A    
C11   C16   S    
C37   H21   S    
C12   C15   S    
O5    Zn1   S    
C35   H19   S    
C8    C27   S    
O2    Zn2   S    
C1    O1    A    
O8    Zn1   S    
C20   C22   A    
C21   C23   A    
C22   C24   A    
C11   O5    A    
C28   C29   A    
C15   C17   A    
C34   H18   S    
C14   C16   A    
C4    C26   A    
C29   H14   S    
O3    Zn2   S    
O6    Zn2   S    
C35   C36   A    
C13   C15   A    
C20   C26   A    
C2    O2    A    
C17   C19   A    
C18   C20   A    
C19   C25   A    
C28   H13   S    
C34   C35   A    
N1    Zn2   S    
C16   C18   A    
C36   C37   A    
C32   H17   S    
C13   H1    S    
C14   H2    S    
C21   C22   A    
N2    Zn1   S    
