data_mof_unit_5341.cif
_audit_creation_date              2013-03-05T15:48:00-0500
_audit_creation_method            fapswitch 2.2
_symmetry_space_group_name_H-M    P1
_symmetry_Int_Tables_number       1
_space_group_crystal_system       triclinic
_cell_length_a                    8.435883
_cell_length_b                    19.19813
_cell_length_c                    27.078993
_cell_angle_alpha                 97.06318
_cell_angle_beta                  92.047506
_cell_angle_gamma                 85.797676
_cell_volume                      4338.96517015

loop_
_atom_site_label
_atom_site_type_symbol
_atom_site_description
_atom_site_fract_x
_atom_site_fract_y
_atom_site_fract_z
_atom_type_partial_charge
P1    P     P_3+3 0.082480 0.557670 0.610090 0.473110
O1    O     O_2   0.913240 0.537010 0.617740 -0.379683
O2    O     O_3   0.145240 0.536960 0.557560 -0.352442
O3    O     O_3   0.669960 0.410470 0.588880 -0.386665
O4    O     O_2   0.812514 0.452619 0.675202 -0.404151
O5    O     O_3   0.044905 0.649719 0.618707 -0.572194
O6    O     O_3   0.625571 0.353018 0.678117 -0.533645
C1    C     C_3   0.487795 0.248006 0.670375 -0.951013
H1    H     H_    0.600593 0.216904 0.677693 0.251759
H2    H     H_    0.426466 0.264110 0.706017 0.267867
P2    P     P_3+3 0.635220 0.340300 0.462910 0.418934
P3    P     P_3+3 0.108171 0.282959 0.561532 0.410134
O7    O     O_2   0.812980 0.329910 0.477500 -0.391129
O8    O     O_3   0.078660 0.374870 0.564770 -0.401504
O9    O     O_2   0.968077 0.248799 0.531687 -0.399945
O10   O     O_3   0.611081 0.319927 0.397634 -0.608037
O11   O     O_3   0.100477 0.256740 0.620986 -0.574463
C2    C     C_3   0.002916 0.306160 0.650332 0.520509
H3    H     H_    0.884384 0.313163 0.631806 0.147846
H4    H     H_    0.059451 0.357137 0.657436 0.115349
C3    C     C_3   0.981157 0.279451 0.700066 -0.893148
H5    H     H_    0.922778 0.228969 0.694173 0.237835
H6    H     H_    0.098490 0.271094 0.719177 0.259207
C4    C     C_3   0.214032 0.321054 0.413561 0.290044
H7    H     H_    0.329487 0.344794 0.418444 0.145366
H8    H     H_    0.150381 0.330675 0.449265 0.101297
C5    C     C_3   0.243993 0.241217 0.399708 -0.503578
H9    H     H_    0.345054 0.221782 0.422576 0.176938
H10   H     H_    0.140200 0.214427 0.409667 0.187777
Ba1   Ba    Ba6+2 0.854000 0.466860 0.523710 1.508858
C6    C     C_3   0.174655 0.684360 0.642284 0.545918
H11   H     H_    0.286925 0.657456 0.627797 0.098089
C7    C     C_3   0.177821 0.685605 0.699740 -0.561477
H12   H     H_    0.241204 0.637292 0.710415 0.188522
C8    C     C_3   0.752224 0.301654 0.371227 0.593330
C9    C     C_3   0.714924 0.305073 0.315125 -0.524702
H13   H     H_    0.639274 0.262088 0.300353 0.217552
H14   H     H_    0.827622 0.297267 0.294392 0.183975
P4    P     P_3+3 0.107220 0.442270 0.389900 0.457069
O12   O     O_2   0.276450 0.462960 0.382230 -0.341062
O13   O     O_3   0.044470 0.462980 0.442430 -0.416719
O14   O     O_3   0.519740 0.589470 0.411120 -0.386834
O15   O     O_3   0.122640 0.350581 0.376238 -0.605976
P5    P     P_3+3 0.085924 0.717816 0.439690 0.457752
O16   O     O_3   0.632420 0.583650 0.524140 -0.431580
O17   O     O_3   0.111040 0.625070 0.435230 -0.369556
O18   O     O_2   0.235278 0.748024 0.466511 -0.381699
O19   O     O_3   0.102065 0.740446 0.379564 -0.489577
Ba2   Ba    Ba6+2 0.335820 0.533080 0.476290 1.522866
P6    P     P_3+3 0.648605 0.431590 0.653315 0.425677
C10   C     C_3   0.522246 0.312709 0.646483 0.412787
H15   H     H_    0.407241 0.342997 0.640191 0.069688
H16   H     H_    0.410384 0.214485 0.645049 0.244852
O20   O     O_3   0.557280 0.416300 0.475860 -0.417271
C11   C     C_3   0.641973 0.644387 0.629867 0.382882
H17   H     H_    0.616220 0.588931 0.617519 0.133638
H18   H     H_    0.764806 0.653995 0.621673 0.156077
C12   C     C_3   0.622035 0.658488 0.685838 -1.070746
H19   H     H_    0.497095 0.654591 0.694987 0.256937
H20   H     H_    0.694631 0.618431 0.704604 0.248197
H21   H     H_    0.657753 0.711931 0.700081 0.266610
P7    P     P_3+3 0.555691 0.671372 0.542022 0.433480
O21   O     O_2   0.376710 0.670070 0.522470 -0.321578
O22   O     O_3   0.537899 0.690550 0.606424 -0.601367
H22   H     H_    0.905604 0.318507 0.724106 0.282581
C13   C     C_3   0.953704 0.735044 0.354919 0.388179
H23   H     H_    0.910987 0.682117 0.355951 0.066631
H24   H     H_    0.865668 0.776038 0.372011 0.041092
C14   C     C_3   0.969441 0.746341 0.300813 -0.923523
H25   H     H_    0.061728 0.708123 0.283170 0.315754
H26   H     H_    0.854169 0.738848 0.280449 0.207798
H27   H     H_    0.003811 0.800556 0.298466 0.243141
P8    P     P_3+3 0.535258 0.583572 0.345004 0.466821
C15   C     C_3   0.495991 0.717569 0.351082 0.535836
H28   H     H_    0.627864 0.712764 0.350687 -0.065308
O23   O     O_2   0.438100 0.521506 0.322539 -0.376626
O24   O     O_3   0.429620 0.657690 0.325734 -0.463764
H29   H     H_    0.456997 0.726079 0.390278 0.129801
H30   H     H_    0.491579 0.829266 0.345901 0.213900
C16   C     C_3   0.441168 0.781725 0.325565 -0.971013
H31   H     H_    0.309645 0.789538 0.325062 0.295266
H32   H     H_    0.482614 0.774645 0.286676 0.244924
C17   C     C_R   0.929651 0.449949 0.169366 0.525265
O25   O     O_2   0.852083 0.404510 0.182377 -0.622638
N1    N     N_R   0.980499 0.502789 0.204476 -0.159717
C18   C     C_R   0.077858 0.551536 0.190391 0.504176
C19   C     C_2   0.790075 0.553240 0.268443 0.113246
C20   C     C_3   0.752658 0.571241 0.323289 0.007285
C21   C     C_1   0.987494 0.491069 0.343501 0.294808
C22   C     C_2   0.020332 0.476781 0.295238 -0.300615
C23   C     C_2   0.923188 0.510513 0.255422 0.154047
C24   C     C_R   0.057334 0.500035 0.103196 -0.060886
C25   C     C_R   0.965399 0.448438 0.118377 -0.056599
C26   C     C_R   0.909057 0.396947 0.082174 -0.097774
C27   C     C_R   0.115354 0.551418 0.139712 -0.053243
C28   C     C_2   0.873071 0.539745 0.359103 -0.133231
H33   H     H_    0.125174 0.443066 0.284091 0.167527
H34   H     H_    0.838979 0.356217 0.092579 0.161446
C29   C     C_2   0.344615 0.490035 0.640236 -0.414036
C30   C     C_R   0.058877 0.450390 0.963335 0.040521
C31   C     C_R   0.220256 0.552295 0.985471 0.039720
C32   C     C_R   0.155506 0.501731 0.948845 0.083028
C33   C     C_R   0.994238 0.402550 0.925151 -0.202396
C34   C     C_R   0.025546 0.404172 0.875060 -0.090240
C35   C     C_R   0.122790 0.453537 0.860271 -0.060865
C36   C     C_R   0.187789 0.502534 0.897129 -0.065341
C37   C     C_R   0.285042 0.552385 0.882236 -0.046065
C38   C     C_R   0.316853 0.552360 0.831127 0.491048
N2    N     N_R   0.254315 0.503248 0.795163 -0.164572
C39   C     C_R   0.156892 0.454555 0.809370 0.538250
C40   C     C_2   0.446734 0.496363 0.728382 -0.148590
C41   C     C_3   0.488227 0.499416 0.674333 0.151216
C42   C     C_1   0.204233 0.514453 0.656637 0.236226
C43   C     C_2   0.164595 0.509351 0.703181 -0.251996
C44   C     C_2   0.292965 0.502172 0.742702 0.136548
O26   O     O_2   0.101455 0.411321 0.777808 -0.604666
C45   C     C_R   0.029262 0.448766 0.015046 0.039342
C46   C     C_R   0.091042 0.500322 0.051542 0.082144
C47   C     C_R   0.185575 0.552355 0.036970 0.044754
C48   C     C_R   0.939878 0.397013 0.031886 -0.202031
H35   H     H_    0.542638 0.492049 0.755900 0.160790
H36   H     H_    0.972718 0.366032 0.847699 0.163170
H37   H     H_    0.916946 0.363077 0.932496 0.124572
H38   H     H_    0.892076 0.354991 0.007149 0.124178
O27   O     O_2   0.129949 0.595767 0.221901 -0.587590
C49   C     C_R   0.206561 0.602723 0.124703 -0.118388
H39   H     H_    0.250894 0.643644 0.151708 0.164405
C50   C     C_R   0.318049 0.601307 0.968998 -0.207841
C51   C     C_R   0.349203 0.601289 0.918774 -0.089188
O28   O     O_2   0.399158 0.596675 0.818638 -0.600713
C52   C     C_R   0.241324 0.603181 0.074792 -0.202537
H40   H     H_    0.374364 0.640579 0.994021 0.124442
H41   H     H_    0.041809 0.518485 0.714018 0.184076
H42   H     H_    0.357229 0.463206 0.602678 0.164271
C53   C     C_R   0.394225 0.299356 0.518717 -0.552666
C54   C     C_R   0.538206 0.277418 0.496521 0.364368
C55   C     C_R   0.594011 0.205798 0.493929 -0.295897
C56   C     C_R   0.502658 0.155864 0.512183 0.019361
C57   C     C_R   0.353529 0.179465 0.532281 -0.285553
C58   C     C_R   0.299613 0.250681 0.534865 0.295296
C59   C     C_R   0.535030 0.039330 0.547936 -0.167558
C60   C     C_R   0.583513 0.967212 0.544172 -0.172484
C61   C     C_R   0.657209 0.932511 0.501132 0.161639
C62   C     C_R   0.680734 0.972440 0.462062 -0.170671
C63   C     C_R   0.631707 0.044436 0.465860 -0.174674
C64   C     C_R   0.558545 0.079185 0.508799 0.177674
C65   C     C_R   0.852487 0.828590 0.473740 -0.296602
C66   C     C_R   0.902324 0.756599 0.471385 0.201287
C67   C     C_R   0.665543 0.735781 0.514153 0.293194
C68   C     C_R   0.614844 0.807479 0.516731 -0.268926
C69   C     C_R   0.708700 0.855299 0.497052 0.046358
C70   C     C_R   0.810490 0.711845 0.493002 -0.459932
H43   H     H_    0.503163 0.825668 0.534032 0.144118
H44   H     H_    0.565124 0.938803 0.575402 0.118613
H45   H     H_    0.480298 0.064137 0.581823 0.123580
H46   H     H_    0.707003 0.188882 0.477277 0.167370
H47   H     H_    0.733953 0.947681 0.427928 0.115517
H48   H     H_    0.646945 0.072533 0.434525 0.118920
H49   H     H_    0.926707 0.863487 0.458067 0.143776
H50   H     H_    0.278402 0.142621 0.545427 0.154707
H51   H     H_    0.854676 0.658061 0.494783 0.155503
H52   H     H_    0.351276 0.354133 0.520895 0.175300
H53   H     H_    0.579187 0.294516 0.610348 0.097967
C71   C     C_3   0.281165 0.220117 0.344548 -0.158397
C72   C     C_3   0.296021 0.140224 0.331927 -0.970733
H54   H     H_    0.386163 0.115922 0.356622 0.273122
H55   H     H_    0.179810 0.118248 0.336294 0.269497
H56   H     H_    0.332377 0.126441 0.292735 0.255945
H57   H     H_    0.185185 0.241355 0.320257 0.212423
H58   H     H_    0.393770 0.242118 0.336184 0.214236
C73   C     C_3   0.167993 0.761405 0.629845 -0.413936
C74   C     C_3   0.081705 0.772183 0.580729 -0.716202
H59   H     H_    0.108127 0.823541 0.569160 0.223138
H60   H     H_    0.951374 0.772029 0.585199 0.232039
H61   H     H_    0.119355 0.729474 0.551520 0.290419
H62   H     H_    0.106686 0.798191 0.659219 0.179825
H63   H     H_    0.291095 0.778016 0.628713 0.202866
C75   C     C_3   0.012082 0.693430 0.721844 -0.193243
C76   C     C_3   0.021119 0.699061 0.778529 -0.877869
H64   H     H_    0.085416 0.745614 0.794147 0.266290
H65   H     H_    0.898993 0.704846 0.793191 0.249631
H66   H     H_    0.083085 0.650812 0.790693 0.271475
H67   H     H_    0.944073 0.740832 0.710408 0.194942
H68   H     H_    0.948773 0.646252 0.707765 0.215856
H69   H     H_    0.248726 0.729176 0.717323 0.199239
C77   C     C_3   0.825917 0.227359 0.378653 -0.367635
C78   C     C_3   0.713790 0.168278 0.367090 -0.949364
H70   H     H_    0.605984 0.179590 0.389576 0.276783
H71   H     H_    0.679751 0.159731 0.327043 0.261473
H72   H     H_    0.776867 0.118572 0.376224 0.247506
H73   H     H_    0.929032 0.214719 0.354044 0.176947
H74   H     H_    0.871343 0.226721 0.417417 0.203376
H75   H     H_    0.840982 0.339972 0.382986 0.063498
C79   C     C_3   0.627150 0.374408 0.303982 -0.227697
C80   C     C_3   0.552891 0.367404 0.251524 -0.805769
H76   H     H_    0.642796 0.345965 0.223782 0.295577
H77   H     H_    0.454627 0.331522 0.249070 0.229895
H78   H     H_    0.503268 0.419580 0.242578 0.261478
H79   H     H_    0.529316 0.389697 0.330288 0.250101
H80   H     H_    0.711720 0.416373 0.307717 0.180413
C81   C     C_3   0.698434 0.594824 0.231267 -0.362185
C82   C     C_3   0.564346 0.554494 0.204946 -0.790815
H81   H     H_    0.610206 0.502368 0.186830 0.260601
H82   H     H_    0.471785 0.547387 0.231545 0.300136
H83   H     H_    0.508864 0.584770 0.175744 0.236965
H84   H     H_    0.647327 0.645441 0.250585 0.203113
H85   H     H_    0.777911 0.609112 0.202913 0.182365
H86   H     H_    0.425042 0.640168 0.908654 0.164660
H87   H     H_    0.311068 0.645182 0.067226 0.123627
C83   C     C_3   0.824650 0.551463 0.411529 -0.316967
C84   C     C_3   0.727177 0.490355 0.420245 -0.487389
H88   H     H_    0.642671 0.473791 0.389865 0.194900
H89   H     H_    0.795739 0.441615 0.425220 0.211578
H90   H     H_    0.662279 0.508459 0.453554 0.310893
H91   H     H_    0.911960 0.560323 0.441179 0.237105
H92   H     H_    0.769521 0.605315 0.418226 0.137472

loop_
_geom_bond_atom_site_label_1
_geom_bond_atom_site_label_2
_geom_bond_distance
_ccdc_geom_bond_type
P3    C58   1.827635 S    
C13   H24   1.111065 S    
C73   C74   1.522512 S    
C20   C28   1.523745 S    
C31   C32   1.423571 A    
Ba2   O21   2.809401 S    
P7    C67   1.845180 S    
C19   C23   1.371246 D    
C5    H10   1.104938 S    
C2    C3    1.520396 S    
C81   C82   1.523826 S    
Ba1   O16   2.811098 S    
C71   H58   1.108950 S    
C8    C9    1.548730 S    
C4    C5    1.537017 S    
C37   C51   1.400393 A    
C33   H37   1.075971 S    
C50   C51   1.394329 A    
C63   C64   1.406438 A    
N1    C23   1.464857 S    
C56   C57   1.410261 A    
C67   C68   1.405235 A    
C53   C54   1.388824 A    
P4    O13   1.531523 S    
N1    C18   1.385147 Am   
C84   H88   1.101395 S    
Ba1   O20   2.949846 S    
O17   Ba2   2.791455 S    
C72   H54   1.109748 S    
C82   H82   1.107748 S    
C35   C36   1.409677 A    
C9    H13   1.107273 S    
C35   C39   1.420836 A    
C4    H8    1.111662 S    
C2    H3    1.109345 S    
C8    C77   1.546902 S    
O10   C8    1.410676 S    
C61   C62   1.408215 A    
C13   C14   1.519058 S    
C34   H36   1.083744 S    
C36   C37   1.408994 A    
C26   H34   1.083574 S    
C12   H20   1.108831 S    
Ba2   O20   2.810338 S    
C17   C25   1.420156 A    
O16   P7    1.775306 S    
C31   C50   1.417098 A    
C38   N2    1.387845 Am   
P1    O1    1.537158 D    
C77   H73   1.109199 S    
C14   H26   1.110429 S    
C24   C46   1.438002 A    
C46   C47   1.423285 A    
C24   C25   1.409693 A    
C78   H72   1.108662 S    
P7    O22   1.747035 S    
P5    C66   1.859755 S    
C26   C48   1.395615 A    
C79   H80   1.107838 S    
C65   C66   1.409271 A    
P2    Ba1   3.387729 S    
C74   H60   1.110646 S    
C1    H1    1.110673 S    
C15   O24   1.406756 S    
P3    O11   1.749599 S    
C52   H87   1.075675 S    
C47   C52   1.417506 A    
C81   H84   1.110643 S    
C6    C7    1.552403 S    
Ba1   O13   2.761605 S    
C10   H53   1.111340 S    
C22   H33   1.086006 S    
C38   O28   1.222442 D    
C70   H51   1.077952 S    
C17   N1    1.383620 Am   
P5    O18   1.545758 D    
C80   H78   1.108257 S    
C12   H21   1.109920 S    
C61   C69   1.505647 S    
O5    C6    1.414309 S    
C65   H49   1.082307 S    
C72   H55   1.110962 S    
C15   C16   1.520309 S    
C3    H5    1.110668 S    
C18   O27   1.221428 D    
C19   C81   1.516577 S    
C71   H57   1.110866 S    
P1    C42   1.836252 S    
O8    Ba1   2.790828 S    
C50   H40   1.075685 S    
O13   Ba2   2.951756 S    
C34   C35   1.400816 A    
P5    O17   1.767332 S    
C43   C44   1.506191 S    
O2    Ba2   2.761950 S    
C53   C58   1.391479 A    
C66   C70   1.390932 A    
C28   C83   1.477242 S    
C15   H28   1.109848 S    
P1    O5    1.760572 S    
C31   C47   1.434937 A    
C75   C76   1.525001 S    
O7    Ba1   2.809173 S    
C4    H7    1.102197 S    
C16   H32   1.110774 S    
C82   H81   1.108085 S    
C67   C70   1.391867 A    
P4    O12   1.537384 D    
C51   H86   1.083679 S    
C8    H75   1.099670 S    
C59   H45   1.082866 S    
P4    O15   1.749857 S    
C80   H76   1.108103 S    
C12   H19   1.101190 S    
C82   H83   1.108553 S    
C24   C27   1.409492 A    
O3    Ba1   2.758368 S    
C76   H64   1.110634 S    
C55   H46   1.080136 S    
O3    P6    1.754724 S    
P1    O2    1.531549 S    
O2    Ba1   2.950905 S    
C65   C69   1.420096 A    
C80   H77   1.111119 S    
P8    C20   1.935050 S    
P7    O21   1.582966 D    
C5    C71   1.536091 S    
P2    O10   1.770540 S    
C17   O25   1.220251 D    
P3    O9    1.547559 D    
O16   Ba2   2.949046 S    
C37   C38   1.419078 A    
C11   O22   1.394168 S    
C11   H17   1.110693 S    
C30   C32   1.423259 A    
O11   C2    1.398519 S    
C81   H85   1.108959 S    
C25   C26   1.400504 A    
C60   H44   1.082563 S    
C68   H43   1.082648 S    
C1    C10   1.519887 S    
O12   Ba2   2.777571 S    
P2    O20   1.560184 S    
C59   C64   1.408791 A    
C62   H47   1.082656 S    
P4    Ba2   3.376126 S    
Ba1   Ba2   4.617098 S    
P3    O8    1.755650 S    
C57   H50   1.082785 S    
C72   H56   1.110258 S    
C3    H6    1.110774 S    
C53   H52   1.082161 S    
C40   H35   1.085802 S    
O4    P6    1.546148 D    
C45   C48   1.417545 A    
C39   O26   1.221449 D    
C5    H9    1.105442 S    
C14   H27   1.110509 S    
C74   H59   1.110453 S    
C42   C43   1.332354 D    
C55   C56   1.417475 A    
C84   H89   1.083684 S    
C71   C72   1.526756 S    
O14   P8    1.788873 S    
C40   C41   1.526008 S    
C3    H22   1.109849 S    
C7    C75   1.530550 S    
C60   C61   1.410240 A    
C6    H11   1.105760 S    
C75   H67   1.110542 S    
O6    P6    1.750896 S    
C16   H31   1.108485 S    
C1    H16   1.109951 S    
C29   C42   1.313190 D    
C7    H69   1.113193 S    
C57   C58   1.403095 A    
C74   H61   1.104120 S    
P2    C54   1.850337 S    
C73   H62   1.112045 S    
C83   H91   1.076369 S    
O1    Ba1   2.776901 S    
C76   H66   1.109756 S    
C21   C28   1.335411 D    
C11   H18   1.100675 S    
P6    C41   1.861315 S    
C77   C78   1.525786 S    
O6    C10   1.405306 S    
C10   H15   1.112758 S    
C59   C60   1.407070 A    
C79   C80   1.526484 S    
C63   H48   1.076107 S    
P2    O7    1.542004 D    
C27   C49   1.399712 A    
C22   C23   1.511369 S    
C11   C12   1.519663 S    
C6    C73   1.553507 S    
C49   C52   1.394403 A    
C56   C64   1.505311 S    
C49   H39   1.083542 S    
C83   H92   1.098866 S    
C29   C41   1.504611 S    
C9    H14   1.112686 S    
P1    Ba1   3.375368 S    
P8    O23   1.546242 D    
C43   H41   1.082691 S    
C7    H12   1.100885 S    
C13   H23   1.106553 S    
C2    H4    1.112567 S    
C30   C33   1.417577 A    
C77   H74   1.105711 S    
C14   H25   1.108771 S    
C9    C79   1.532830 S    
C78   H71   1.107377 S    
C18   C27   1.418999 A    
N2    C44   1.466187 S    
O14   Ba2   2.757749 S    
H30   C16   1.110698 S    
C79   H79   1.108960 S    
P5    O19   1.748328 S    
C62   C63   1.405833 A    
C78   H70   1.105930 S    
C84   H90   1.079062 S    
C29   H42   1.087130 S    
C19   C20   1.521877 S    
C1    H2    1.110687 S    
C83   C84   1.526919 S    
C15   H29   1.111700 S    
C32   C36   1.438327 A    
N2    C39   1.385988 Am   
C33   C34   1.395627 A    
C4    O15   1.399412 S    
P8    O24   1.747761 S    
C68   C69   1.417983 A    
C73   H63   1.110979 S    
C40   C44   1.359995 D    
C30   C45   1.435653 A    
O19   C13   1.401730 S    
C21   C22   1.336632 D    
C45   C46   1.423444 A    
P4    C21   1.880564 S    
C75   H68   1.105601 S    
C54   C55   1.414523 A    
C48   H38   1.075930 S    
C76   H65   1.110408 S    
