data_mof_unit_35931.cif
_audit_creation_date              2012-12-10T17:03:27-0500
_audit_creation_method            fapswitch 2.2
_symmetry_space_group_name_H-M    P1
_symmetry_Int_Tables_number       1
_space_group_crystal_system       triclinic
_cell_length_a                    15.070868
_cell_length_b                    11.128858
_cell_length_c                    9.888563
_cell_angle_alpha                 109.869923
_cell_angle_beta                  97.96342
_cell_angle_gamma                 92.598066
_cell_volume                      1537.12294124

loop_
_atom_site_label
_atom_site_type_symbol
_atom_type_description
_atom_site_fract_x
_atom_site_fract_y
_atom_site_fract_z
_atom_type_partial_charge
C1    C     C_R   0.494035 0.255764 0.443129 0.861061
C2    C     C_R   0.509169 0.744734 0.556729 0.859785
C3    C     C_R   0.023410 0.285861 0.317518 -0.230048
C4    C     C_R   0.977152 0.717441 0.678283 -0.227470
C5    C     C_2   0.488785 0.119402 0.417561 -0.435254
C6    C     C_2   0.519447 0.882022 0.582679 -0.385757
C7    C     C_2   0.533344 0.070073 0.511695 0.239588
C8    C     C_2   0.523842 0.930327 0.474984 0.258748
C9    C     C_2   0.512923 0.502973 0.077727 0.318676
C10   C     C_2   0.487548 0.496843 0.922686 0.294014
C11   C     C_R   0.329526 0.501520 0.501259 0.871605
C12   C     C_R   0.670640 0.498272 0.498425 0.873293
C13   C     C_R   0.824719 0.606398 0.592202 0.151607
C14   C     C_R   0.175903 0.394118 0.408056 0.153582
C15   C     C_R   0.767206 0.498951 0.496535 -0.179077
C16   C     C_R   0.233221 0.502271 0.501874 -0.176981
C17   C     C_R   0.801877 0.392435 0.402048 0.125353
C18   C     C_R   0.198581 0.612093 0.590130 0.123279
C19   C     C_R   0.895180 0.393009 0.404539 0.087135
C20   C     C_R   0.105368 0.611239 0.589237 0.088094
C21   C     C_R   0.953365 0.501372 0.497858 -0.004154
C22   C     C_R   0.047222 0.501770 0.498397 -0.002332
C23   C     C_R   0.918091 0.609393 0.589975 0.058041
C24   C     C_R   0.082490 0.392913 0.407662 0.058898
C25   C     C_R   0.931388 0.286802 0.314190 -0.174787
C26   C     C_R   0.069159 0.718204 0.678077 -0.182622
Cu1   Cu    Cu3+1 0.515770 0.521810 0.644910 0.931552
Cu2   Cu    Cu3+1 0.484230 0.478190 0.355090 0.937713
H1    H     H_    0.889016 0.202707 0.240117 0.179092
H2    H     H_    0.111786 0.803467 0.749030 0.177293
H3    H     H_    0.047071 0.200026 0.247743 0.149292
H4    H     H_    0.953376 0.802937 0.748583 0.149340
H5    H     H_    0.524270 0.944861 0.694813 0.147029
H6    H     H_    0.445436 0.057246 0.318966 0.138994
H7    H     H_    0.596236 0.611644 0.924859 0.199905
H8    H     H_    0.404303 0.387315 0.074369 0.202181
N1    N     N_2   0.460520 0.445420 0.137370 -0.318844
N2    N     N_2   0.539480 0.554580 0.862630 -0.320165
O1    O     O_R   0.508410 0.332340 0.577400 -0.582496
O2    O     O_R   0.491590 0.667660 0.422600 -0.573535
O3    O     O_R   0.481780 0.295500 0.332650 -0.570546
O4    O     O_R   0.518220 0.704500 0.667350 -0.571498
O5    O     O_R   0.383570 0.518390 0.622380 -0.590357
O6    O     O_R   0.616430 0.481610 0.377620 -0.598174
O7    O     O_R   0.356940 0.481550 0.377630 -0.564227
O8    O     O_R   0.643060 0.518450 0.622370 -0.563719
N3    N     N_2   0.786701 0.712342 0.685628 -0.420875
H9    H     H_    0.804094 0.799597 0.676514 0.242069
C27   C     C_3   0.792228 0.717642 0.835073 -0.651182
H10   H     H_    0.862692 0.743199 0.893143 0.205716
H11   H     H_    0.767258 0.623782 0.839308 0.244557
H12   H     H_    0.750067 0.791509 0.892586 0.217031
N4    N     N_2   0.214059 0.286249 0.318134 -0.426687
H13   H     H_    0.195196 0.200101 0.328735 0.237425
C28   C     C_3   0.211251 0.277981 0.168054 -0.649303
H14   H     H_    0.141688 0.249976 0.106655 0.204622
H15   H     H_    0.255057 0.204598 0.114895 0.217529
H16   H     H_    0.235792 0.371314 0.162047 0.245283
N5    N     N_2   0.743780 0.283180 0.305644 -0.441154
H17   H     H_    0.686383 0.298519 0.246667 0.282697
C29   C     C_3   0.734768 0.174917 0.353901 -0.728915
H18   H     H_    0.666177 0.164591 0.378383 0.221915
H19   H     H_    0.784395 0.186193 0.452839 0.237759
H20   H     H_    0.745144 0.086143 0.265366 0.230472
N6    N     N_2   0.256472 0.725415 0.675914 -0.442759
H21   H     H_    0.313621 0.711228 0.736525 0.278546
C30   C     C_3   0.273612 0.811894 0.599379 -0.708096
H22   H     H_    0.310275 0.765302 0.508145 0.222298
H23   H     H_    0.315351 0.899804 0.675699 0.220993
H24   H     H_    0.209255 0.840533 0.555699 0.237699
N7    N     N_2   0.516888 0.848638 0.325799 -0.409829
H25   H     H_    0.452221 0.831480 0.268573 0.248279
C31   C     C_3   0.584565 0.875439 0.246144 -0.724581
H26   H     H_    0.576830 0.799337 0.137271 0.234892
H27   H     H_    0.653129 0.878134 0.305984 0.240526
H28   H     H_    0.576514 0.967105 0.227237 0.226100
N8    N     N_2   0.598549 0.145817 0.634401 -0.416855
H29   H     H_    0.641595 0.211859 0.617155 0.259240
C32   C     C_3   0.568547 0.191006 0.774491 -0.655940
H30   H     H_    0.580450 0.296681 0.821152 0.228064
H31   H     H_    0.608070 0.151413 0.850033 0.220189
H32   H     H_    0.495548 0.163322 0.765760 0.214942
N9    N     N_2   0.404865 0.424504 0.841768 -0.432854
H33   H     H_    0.402444 0.359839 0.738320 0.295444
C33   C     C_3   0.321374 0.474128 0.883197 -0.713892
H34   H     H_    0.281796 0.496219 0.793194 0.246981
H35   H     H_    0.333765 0.562858 0.981633 0.223041
H36   H     H_    0.280137 0.400166 0.905844 0.209695
N10   N     N_2   0.595572 0.575171 0.159373 -0.426506
H37   H     H_    0.598103 0.634559 0.265018 0.327277
C34   C     C_3   0.679894 0.529062 0.118067 -0.742783
H38   H     H_    0.720977 0.510220 0.209028 0.250311
H39   H     H_    0.719072 0.604051 0.093981 0.215869
H40   H     H_    0.669141 0.439546 0.021454 0.221640

loop_
_geom_bond_atom_site_label_1
_geom_bond_atom_site_label_2
_ccdc_geom_bond_type
C28   H14   S    
C31   H26   S    
Cu2   O3    S    
C27   H10   S    
C7    C8    S    
N3    C27   S    
N8    H29   S    
C18   N6    S    
C1    C5    S    
H8    N1    S    
C19   C21   A    
C33   H34   S    
Cu2   O2    S    
Cu1   N2    S    
C10   N9    S    
C13   C23   A    
C14   C24   A    
C29   H19   S    
C13   N3    S    
N9    H33   S    
Cu1   O1    S    
N6    C30   S    
C11   O5    A    
N10   C34   S    
C9    C10   S    
C18   C20   A    
C7    N8    S    
N4    C28   S    
N5    H17   S    
C21   C22   A    
C31   H27   S    
C3    C24   A    
C2    C6    S    
C33   H35   S    
C21   C23   A    
C25   H1    S    
Cu2   O7    S    
N5    C29   S    
C30   H22   S    
C3    C25   A    
H7    N2    S    
C12   O8    A    
C9    N10   S    
C34   H38   S    
C32   H31   S    
C4    C23   A    
C6    C8    D    
C27   H11   S    
N4    H13   S    
Cu2   O6    S    
C30   H23   S    
C29   H20   S    
Cu1   O5    S    
C34   H39   S    
C11   C16   S    
N3    H9    S    
C12   C15   S    
C27   H12   S    
C5    H6    S    
C9    N1    D    
N8    C32   S    
C3    H3    S    
C4    H4    S    
C17   N5    S    
Cu1   O8    S    
C1    O3    A    
N9    C33   S    
C20   C22   A    
C26   H2    S    
C28   H15   S    
C31   H28   S    
C14   C16   A    
C11   O7    A    
C5    C7    D    
C33   H36   S    
C15   C17   A    
C8    N7    S    
C32   H32   S    
C4    C26   A    
C6    H5    S    
C10   N2    D    
C30   H24   S    
C13   C15   A    
N7    H25   S    
C12   O6    A    
C34   H40   S    
Cu1   O4    S    
C20   C26   A    
Cu2   N1    S    
C2    O4    A    
C17   C19   A    
C22   C24   A    
C29   H18   S    
C19   C25   A    
C1    O1    A    
C32   H30   S    
C2    O2    A    
C14   N4    S    
C16   C18   A    
N6    H21   S    
C28   H16   S    
N7    C31   S    
Cu1   Cu2   S    
N10   H37   S    
