data_mof_unit_40588.cif
_audit_creation_date              2012-12-11T15:53:57-0500
_audit_creation_method            fapswitch 2.2
_symmetry_space_group_name_H-M    P1
_symmetry_Int_Tables_number       1
_space_group_crystal_system       triclinic
_cell_length_a                    10.667352
_cell_length_b                    10.818278
_cell_length_c                    16.943921
_cell_angle_alpha                 80.567923
_cell_angle_beta                  99.383021
_cell_angle_gamma                 118.731225
_cell_volume                      1683.40846109

loop_
_atom_site_label
_atom_site_type_symbol
_atom_type_description
_atom_site_fract_x
_atom_site_fract_y
_atom_site_fract_z
_atom_type_partial_charge
C1    C     C_R   0.384951 0.285141 0.631954 0.542612
C2    C     C_R   0.514919 0.711103 0.735372 -0.157543
C3    C     C_R   0.492880 0.727250 0.811406 -0.142212
C4    C     C_3   0.094470 0.497987 0.770648 -0.249044
C5    C     C_3   0.118986 0.478635 0.688814 -0.245479
C6    C     C_R   0.399227 0.618609 0.686083 0.001600
C7    C     C_1   0.822905 0.656190 0.705983 -0.053594
C8    C     C_1   0.850322 0.684484 0.773859 -0.053925
C9    C     C_1   0.365684 0.235577 0.714679 -0.038151
C10   C     C_1   0.334482 0.188436 0.782047 -0.034312
C11   C     C_1   0.318305 0.682591 0.280606 -0.088846
C12   C     C_R   0.413667 0.620833 0.601712 0.552460
C13   C     C_1   0.297154 0.706404 0.209703 -0.064270
C14   C     C_R   0.933507 0.716341 0.178980 0.003137
C15   C     C_R   0.963093 0.623704 0.236633 -0.019559
C16   C     C_R   0.929804 0.604130 0.314326 -0.037024
C17   C     C_R   0.881873 0.802677 0.287249 0.110065
C18   C     C_R   0.885149 0.804403 0.203951 0.110400
C19   C     C_3   0.918872 0.468827 0.237824 0.020278
C20   C     C_3   0.885564 0.448911 0.323907 -0.214477
C21   C     C_R   0.873783 0.683437 0.338512 0.026645
C22   C     C_R   0.336507 0.174107 0.158157 0.035495
C23   C     C_R   0.776857 0.618544 0.626642 0.537228
C24   C     C_R   0.308481 0.283692 0.167657 -0.027760
C25   C     C_R   0.322687 0.322613 0.243105 -0.024154
C26   C     C_R   0.424015 0.167729 0.298773 -0.144455
C27   C     C_R   0.406781 0.123868 0.223682 0.092496
C28   C     C_3   0.177914 0.302378 0.142307 -0.264842
C29   C     C_3   0.189165 0.336986 0.226720 -0.268913
C30   C     C_R   0.371097 0.258538 0.309611 -0.008619
C31   C     C_R   0.891334 0.701883 0.856197 0.559314
C32   C     C_R   0.316566 0.706362 0.898810 0.557868
C33   C     C_R   0.286982 0.119098 0.858727 0.555978
C34   C     C_R   0.380085 0.294919 0.388159 0.576536
C35   C     C_R   0.953221 0.718470 0.095375 0.567000
C36   C     C_R   0.284610 0.737915 0.125445 0.572347
C37   C     C_R   0.285789 0.106468 0.085264 0.553662
C38   C     C_R   0.362287 0.656786 0.361990 0.553429
C39   C     C_R   0.779857 0.625953 0.403187 0.556499
C40   C     C_R   0.354283 0.652184 0.837933 0.014628
C41   C     C_R   0.249656 0.540358 0.795384 0.010343
C42   C     C_R   0.272164 0.523328 0.720744 0.010429
Cr1   Cr    Cr6+3 0.608440 0.389080 0.519680 1.010282
Cr2   Cr    Cr6+3 0.288640 0.400090 0.490760 1.002254
Cr3   Cr    Cr6+3 0.602940 0.710800 0.489510 0.992520
Cr4   Cr    Cr6+3 0.052530 0.947560 0.964210 1.000914
Cr5   Cr    Cr6+3 0.059970 0.626800 0.992920 0.983937
Cr6   Cr    Cr6+3 0.373320 0.938440 0.995370 0.999264
H1    H     H_    0.770651 0.378416 0.332932 0.168182
H2    H     H_    0.470600 0.122678 0.349331 0.145373
H3    H     H_    0.022612 0.396970 0.804045 0.147984
O1    O     O_R   0.754020 0.497590 0.609930 -0.513509
O2    O     O_R   0.295080 0.533620 0.397890 -0.512922
O3    O     O_R   0.485280 0.746620 0.388440 -0.529088
O4    O     O_R   0.720550 0.696220 0.420010 -0.488875
O5    O     O_3   0.500010 0.499990 0.499980 -0.313214
O6    O     O_R   0.163320 0.092900 0.874450 -0.506220
O7    O     O_R   0.934650 0.822080 0.882840 -0.488845
O8    O     O_R   0.915520 0.604140 0.893670 -0.514256
O9    O     O_R   0.191760 0.638110 0.923230 -0.499453
O10   O     O_R   0.406180 0.826930 0.920660 -0.514084
O11   O     O_R   0.358620 0.062870 0.901950 -0.494562
O12   O     O_R   0.481420 0.271390 0.600630 -0.472217
O13   O     O_R   0.163910 0.085460 0.050210 -0.551797
O14   O     O_R   0.935200 0.815170 0.045770 -0.480200
O15   O     O_R   0.916120 0.596690 0.069430 -0.518997
O16   O     O_R   0.192310 0.631200 0.086170 -0.532969
O17   O     O_R   0.406770 0.819480 0.096420 -0.504938
O18   O     O_R   0.359170 0.055960 0.064880 -0.499055
O19   O     O_3   0.161940 0.837600 0.984160 -0.288834
O20   O     O_R   0.263810 0.254550 0.589590 -0.500399
O21   O     O_R   0.300820 0.531200 0.560890 -0.511783
O22   O     O_R   0.491480 0.744020 0.564270 -0.499682
O23   O     O_R   0.726290 0.693800 0.583010 -0.516123
O24   O     O_R   0.747830 0.500190 0.434090 -0.539556
O25   O     O_R   0.475680 0.273800 0.437630 -0.501172
O26   O     O_R   0.257620 0.257160 0.413750 -0.501071
H4    H     H_    0.618436 0.779247 0.712722 0.141581
N1    N     N_2   0.793444 0.389788 0.183524 -0.524031
H5    H     H_    0.815320 0.357786 0.135666 0.260942
C43   C     C_3   0.671597 0.418801 0.168005 -0.250912
H6    H     H_    0.589373 0.343262 0.127288 0.136399
H7    H     H_    0.696171 0.522630 0.134613 0.178550
H8    H     H_    0.628571 0.411912 0.224563 0.147368
H9    H     H_    0.961574 0.423472 0.367736 0.121219
N2    N     N_2   0.444328 0.016710 0.218274 -0.492400
H10   H     H_    0.429814 0.950338 0.270692 0.249082
C44   C     C_3   0.588062 0.068691 0.197352 -0.276130
H11   H     H_    0.666620 0.135332 0.243641 0.144797
H12   H     H_    0.602542 0.128916 0.137155 0.174640
H13   H     H_    0.607417 0.977798 0.195108 0.147553
H14   H     H_    0.081413 0.204195 0.128283 0.138418
H15   H     H_    0.198374 0.393361 0.095834 0.172945
H16   H     H_    0.211807 0.445605 0.228376 0.148675
H17   H     H_    0.101138 0.256365 0.262340 0.135943
H18   H     H_    0.579893 0.809291 0.844934 0.146718
H19   H     H_    0.068399 0.586309 0.768931 0.158602
H20   H     H_    0.061814 0.366309 0.675157 0.151396
H21   H     H_    0.106242 0.555340 0.640027 0.161939
N3    N     N_2   0.923755 0.930698 0.320885 -0.500535
H22   H     H_    0.013742 0.015153 0.298486 0.256324
C45   C     C_3   0.812860 0.966362 0.329778 -0.249956
H23   H     H_    0.809828 0.969866 0.394477 0.178922
H24   H     H_    0.838733 0.073395 0.299208 0.085442
H25   H     H_    0.705801 0.888048 0.304849 0.173789
N4    N     N_2   0.781999 0.833789 0.150932 -0.490452
H26   H     H_    0.682646 0.787280 0.172647 0.251137
C46   C     C_3   0.825130 0.978351 0.117825 -0.287814
H27   H     H_    0.860296 0.048697 0.166314 0.115069
H28   H     H_    0.732684 0.985128 0.080215 0.134255
H29   H     H_    0.910571 0.013586 0.077957 0.197785
H30   H     H_    0.009498 0.449395 0.232843 0.122587

loop_
_geom_bond_atom_site_label_1
_geom_bond_atom_site_label_2
_ccdc_geom_bond_type
C5    C42   S    
C16   C21   A    
C37   O18   A    
C11   C38   S    
C41   C42   A    
C14   C18   A    
C19   C20   S    
Cr6   O18   S    
C43   H8    S    
C43   H6    S    
Cr6   O10   S    
C36   O16   A    
Cr1   O12   S    
C7    C8    T    
C19   H30   S    
C15   C19   S    
C26   C27   A    
C1    O20   A    
Cr2   O20   S    
C31   O7    A    
Cr2   O26   S    
C32   O10   A    
C26   H2    S    
C34   O26   A    
C6    C12   S    
C29   H16   S    
N2    C44   S    
Cr1   O1    S    
N4    H26   S    
C35   O14   A    
C15   C16   A    
C25   C30   A    
C46   H27   S    
C45   H25   S    
Cr3   O22   S    
C31   O8    A    
Cr5   O9    S    
Cr2   O2    S    
C39   O4    A    
C5    H21   S    
Cr3   O5    S    
C33   O11   A    
C38   O3    A    
C3    H18   S    
C39   O24   A    
C9    C10   T    
Cr5   O15   S    
C12   O21   A    
C12   O22   A    
Cr4   O7    S    
Cr1   O24   S    
C5    H20   S    
C2    C6    A    
C1    O12   A    
Cr5   O16   S    
C43   H7    S    
C25   C29   S    
C30   C34   S    
C4    H3    S    
C1    C9    S    
C24   C25   A    
Cr4   O14   S    
C14   C35   S    
C29   H17   S    
N2    H10   S    
C35   O15   A    
C22   C37   S    
C17   C21   A    
Cr4   O13   S    
Cr3   O23   S    
C27   N2    S    
C19   N1    S    
C18   N4    S    
Cr5   O19   S    
C20   H1    S    
C2    H4    S    
Cr2   O5    S    
Cr6   O11   S    
C21   C39   S    
C44   H13   S    
C16   C20   S    
C20   H9    S    
N3    C45   S    
C17   C18   A    
C28   H14   S    
Cr6   O17   S    
C45   H24   S    
C13   C36   S    
C40   C41   A    
C44   H12   S    
Cr3   O3    S    
C26   C30   A    
C22   C27   A    
Cr4   O6    S    
C6    C42   A    
C22   C24   A    
C32   O9    A    
C23   O23   A    
C37   O13   A    
N1    C43   S    
Cr1   O25   S    
C28   C29   S    
C33   O6    A    
C8    C31   S    
C24   C28   S    
Cr6   O19   S    
C4    C5    S    
C3    C40   A    
C36   O17   A    
C46   H29   S    
C2    C3    A    
C11   C13   T    
C23   O1    A    
C38   O2    A    
N4    C46   S    
C7    C23   S    
N3    H22   S    
C46   H28   S    
Cr2   O21   S    
C10   C33   S    
C32   C40   S    
C45   H23   S    
C17   N3    S    
Cr4   O19   S    
Cr5   O8    S    
N1    H5    S    
Cr1   O5    S    
C44   H11   S    
Cr3   O4    S    
C4    C41   S    
C14   C15   A    
C28   H15   S    
C4    H19   S    
C34   O25   A    
