data_mof_unit_56736.cif
_audit_creation_date              2012-12-11T14:14:10-0500
_audit_creation_method            fapswitch 2.2
_symmetry_space_group_name_H-M    P1
_symmetry_Int_Tables_number       1
_space_group_crystal_system       triclinic
_cell_length_a                    17.148366
_cell_length_b                    7.247294
_cell_length_c                    16.926247
_cell_angle_alpha                 89.184119
_cell_angle_beta                  99.224324
_cell_angle_gamma                 90.467472
_cell_volume                      2076.13109208

loop_
_atom_site_label
_atom_site_type_symbol
_atom_type_description
_atom_site_fract_x
_atom_site_fract_y
_atom_site_fract_z
_atom_type_partial_charge
O1    O     O_R   0.414560 0.494370 0.416770 -0.543232
O2    O     O_R   0.585440 0.994370 0.583230 -0.555199
O3    O     O_R   0.578370 0.819590 0.429320 -0.547767
O4    O     O_R   0.421630 0.319590 0.570680 -0.540835
C1    C     C_R   0.603540 0.656988 0.412718 0.708063
C2    C     C_R   0.396777 0.153735 0.587541 0.754548
O5    O     O_R   0.414740 0.823790 0.407360 -0.514055
O6    O     O_R   0.585260 0.323790 0.592640 -0.522229
O7    O     O_R   0.420650 0.998510 0.561120 -0.530766
O8    O     O_R   0.579350 0.498510 0.438880 -0.510728
C3    C     C_R   0.389600 0.656120 0.384048 0.744945
C4    C     C_R   0.612569 0.155896 0.614217 0.799518
O9    O     O_3   0.502130 0.662240 0.550470 -0.392914
O10   O     O_3   0.497870 0.162240 0.449530 -0.364908
V1    V     V_3+5 0.499600 0.935390 0.490640 1.489347
V2    V     V_3+5 0.500400 0.435390 0.509360 1.497198
C5    C     C_2   0.796712 0.278829 0.773779 -0.192184
C6    C     C_2   0.209123 0.775487 0.218385 -0.204689
C7    C     C_2   0.830725 0.118308 0.806692 0.202768
C8    C     C_2   0.174563 0.613916 0.187729 0.191111
C9    C     C_2   0.731792 0.285497 0.701723 0.416873
C10   C     C_2   0.283109 0.791071 0.280333 0.410722
C11   C     C_2   0.677317 0.148037 0.684214 -0.352743
C12   C     C_2   0.326387 0.644867 0.313664 -0.368563
H1    H     H_    0.677872 0.028247 0.723328 0.154796
H2    H     H_    0.316643 0.507900 0.290728 0.173233
C13   C     C_R   0.335854 0.137375 0.640647 -0.127285
C14   C     C_R   0.665342 0.656423 0.360425 -0.123782
C15   C     C_R   0.168709 0.126455 0.865780 -0.238955
C16   C     C_R   0.831925 0.608610 0.135654 -0.245580
C17   C     C_R   0.309222 0.159015 0.857743 -0.111176
C18   C     C_R   0.715834 0.451012 0.171349 -0.091622
C19   C     C_R   0.246609 0.161716 0.903026 0.303802
C20   C     C_R   0.767709 0.486612 0.116286 0.325272
C21   C     C_R   0.152401 0.097046 0.782791 0.355985
C22   C     C_R   0.841094 0.704250 0.208357 0.392365
C23   C     C_R   0.214892 0.092780 0.736416 -0.017257
C24   C     C_R   0.780672 0.696454 0.257503 -0.035881
C25   C     C_R   0.292285 0.148022 0.772496 -0.077606
C26   C     C_R   0.717050 0.567214 0.238874 -0.087219
C27   C     C_R   0.350487 0.187416 0.722249 -0.002059
C28   C     C_R   0.656173 0.559229 0.287780 0.001938
C29   C     C_R   0.263255 0.058414 0.609141 -0.236772
C30   C     C_R   0.729074 0.777941 0.378804 -0.205068
C31   C     C_R   0.202603 0.036636 0.654942 0.015944
C32   C     C_R   0.783660 0.807690 0.326738 0.012483
H3    H     H_    0.253856 0.012903 0.547516 0.147666
H4    H     H_    0.733023 0.860738 0.432241 0.148621
O11   O     O_R   0.920750 0.773600 0.061260 -0.517361
O12   O     O_R   0.079250 0.273600 0.938740 -0.551962
O13   O     O_R   0.085340 0.439850 0.092570 -0.518089
O14   O     O_R   0.914660 0.939850 0.907430 -0.518907
C33   C     C_R   0.110361 0.608598 0.116514 0.650201
C34   C     C_R   0.890453 0.109773 0.882464 0.690380
O15   O     O_R   0.921720 0.444130 0.070790 -0.524973
O16   O     O_R   0.078280 0.944130 0.929210 -0.538501
O17   O     O_R   0.914480 0.269530 0.916840 -0.543434
O18   O     O_R   0.085520 0.769530 0.083160 -0.545852
C35   C     C_R   0.895778 0.610478 0.085673 0.795867
C36   C     C_R   0.104166 0.113773 0.914530 0.810928
O19   O     O_3   0.997840 0.601520 0.949550 -0.394309
O20   O     O_3   0.002160 0.101520 0.050450 -0.370003
V3    V     V_3+5 0.000400 0.328340 0.009360 1.539114
V4    V     V_3+5 0.999600 0.828340 0.990640 1.539176
C37   C     C_2   0.832633 0.458833 0.799150 0.792804
O21   O     O_2   0.798250 0.564747 0.837045 -0.566733
O22   O     O_R   0.906577 0.505390 0.779885 -0.669392
H5    H     H_    0.926347 0.629496 0.801669 0.313452
C38   C     C_2   0.167087 0.952479 0.198374 0.841194
O23   O     O_2   0.192927 0.067678 0.155755 -0.522224
O24   O     O_R   0.095620 0.981974 0.225755 -0.663299
H6    H     H_    0.069468 0.101419 0.204606 0.310954
O25   O     O_3   0.074237 0.080980 0.747263 -0.560995
C39   C     C_3   0.047364 0.257085 0.718975 -0.221482
H7    H     H_    0.080489 0.310236 0.671911 0.158299
H8    H     H_    0.051430 0.357422 0.768662 0.165560
H9    H     H_    0.984342 0.245782 0.691556 0.178096
O26   O     O_3   0.912270 0.793231 0.233439 -0.527575
C40   C     C_3   0.962275 0.669807 0.282729 -0.201946
H10   H     H_    0.973175 0.543515 0.249686 0.102976
H11   H     H_    0.937662 0.631307 0.337698 0.134769
H12   H     H_    0.020030 0.738323 0.302128 0.190803
O27   O     O_3   0.813583 0.953601 0.767067 -0.554458
C41   C     C_3   0.863777 0.938542 0.708944 -0.216073
H13   H     H_    0.926970 0.937085 0.737162 0.176817
H14   H     H_    0.853209 0.051040 0.663141 0.149666
H15   H     H_    0.851282 0.806373 0.677111 0.184760
O28   O     O_3   0.198921 0.444276 0.220516 -0.541125
C42   C     C_3   0.159077 0.407602 0.285893 -0.181798
H16   H     H_    0.094632 0.391131 0.265558 0.115346
H17   H     H_    0.170050 0.516895 0.331981 0.118172
H18   H     H_    0.181557 0.276191 0.315000 0.197705
O29   O     O_3   0.732043 0.432654 0.648074 -0.557842
C43   C     C_3   0.689163 0.582862 0.671692 -0.133993
H19   H     H_    0.729820 0.684932 0.704015 0.186811
H20   H     H_    0.643519 0.543040 0.709031 0.116973
H21   H     H_    0.658745 0.653805 0.617027 0.160089
O30   O     O_3   0.304082 0.967279 0.307360 -0.550732
C44   C     C_3   0.357324 0.044112 0.259989 -0.097863
H22   H     H_    0.362401 0.194074 0.271624 0.145224
H23   H     H_    0.337376 0.027188 0.194642 0.162860
H24   H     H_    0.416993 0.982789 0.276060 0.129312
C45   C     C_2   0.423068 0.295212 0.752191 0.760813
O31   O     O_2   0.418032 0.438378 0.788395 -0.543132
O32   O     O_R   0.496893 0.232820 0.739496 -0.669101
H25   H     H_    0.541583 0.317480 0.763434 0.282805
C46   C     C_2   0.577376 0.479765 0.256821 0.725945
O33   O     O_2   0.539202 0.542458 0.195186 -0.552619
O34   O     O_R   0.547696 0.331815 0.296828 -0.633976
H26   H     H_    0.494394 0.288419 0.268488 0.280144
C47   C     C_2   0.391127 0.130388 0.901008 0.876936
O35   O     O_2   0.416322 0.218358 0.960888 -0.517590
O36   O     O_R   0.438988 0.997988 0.873608 -0.648814
H27   H     H_    0.493250 0.990183 0.907574 0.316691
C48   C     C_2   0.669612 0.275664 0.162824 0.889102
O37   O     O_2   0.630062 0.235087 0.098677 -0.524857
O38   O     O_R   0.672983 0.154948 0.228462 -0.650835
H28   H     H_    0.639984 0.039309 0.215537 0.302481
C49   C     C_2   0.130692 0.937565 0.616541 0.817839
O39   O     O_2   0.102856 0.811382 0.652126 -0.537815
O40   O     O_R   0.097220 0.982573 0.537855 -0.673720
H29   H     H_    0.049142 0.904020 0.517682 0.304506
C50   C     C_2   0.838536 0.966305 0.345105 0.853947
O41   O     O_2   0.847647 0.078628 0.292679 -0.519976
O42   O     O_R   0.876666 0.992295 0.423604 -0.680193
H30   H     H_    0.911657 0.106337 0.429034 0.297431
O43   O     O_3   0.262469 0.176432 0.985564 -0.537467
C51   C     C_3   0.264541 0.365307 0.005468 -0.058239
H31   H     H_    0.206009 0.430984 0.987970 0.105223
H32   H     H_    0.309249 0.443862 0.977531 0.153059
H33   H     H_    0.280813 0.376981 0.071351 0.180821
O44   O     O_3   0.761259 0.384054 0.047189 -0.540540
C52   C     C_3   0.714122 0.483733 0.985330 -0.105421
H34   H     H_    0.743168 0.615956 0.972115 0.140516
H35   H     H_    0.654346 0.511653 0.000001 0.164009
H36   H     H_    0.705955 0.399337 0.930431 0.168510

loop_
_geom_bond_atom_site_label_1
_geom_bond_atom_site_label_2
_ccdc_geom_bond_type
O29   C43   S    
C10   O30   S    
O15   C35   A    
O25   C39   S    
C47   O35   D    
O1    C3    A    
C41   H15   S    
O2    C4    A    
C51   H31   S    
C2    O7    A    
C50   O41   D    
C25   C27   A    
O5    C3    A    
C4    C11   S    
C39   H8    S    
C21   C23   A    
C12   H2    S    
C50   O42   S    
C48   O37   D    
C15   C19   A    
C3    C12   S    
C19   O43   S    
C14   C28   A    
C38   O24   S    
C47   O36   S    
O27   C41   S    
C30   C32   A    
O44   C52   S    
C48   O38   S    
C39   H9    S    
O15   V3    S    
C52   H36   S    
C46   O33   D    
C17   C19   A    
C42   H17   S    
C28   C46   S    
C31   C49   S    
C6    C38   S    
O5    V1    S    
C20   O44   S    
O6    V2    S    
O11   V4    S    
O12   V3    S    
C46   O34   S    
C43   H19   S    
C7    O27   S    
O14   C34   A    
O17   V3    S    
C49   O40   S    
O18   V4    S    
C39   H7    S    
C16   C20   A    
O22   H5    S    
O13   V3    S    
C41   H13   S    
O4    C2    A    
O14   V4    S    
C40   H11   S    
O26   C40   S    
C43   H21   S    
C37   O22   S    
C14   C30   A    
C5    C9    S    
C27   C45   S    
O13   C33   A    
C18   C20   A    
O4    V2    S    
O19   V4    S    
O20   V3    S    
C1    C14   S    
C13   C27   A    
C2    C13   S    
C15   C36   S    
O6    C4    A    
C16   C35   S    
C44   H24   S    
O16   V4    S    
C49   O39   D    
C45   O32   S    
O1    V2    S    
C42   H18   S    
C43   H20   S    
O2    V1    S    
C29   C31   A    
O40   H29   S    
C7    C34   S    
C44   H23   S    
O30   C44   S    
C9    C11   D    
C52   H34   S    
C10   C12   D    
C32   C50   S    
C23   C31   A    
O43   C51   S    
C51   H33   S    
O3    V1    S    
O36   H27   S    
C21   O25   S    
C6    C10   S    
C41   H14   S    
C8    C33   S    
O3    C1    A    
C51   H32   S    
C40   H12   S    
C33   O18   A    
O32   H25   S    
C15   C21   A    
C5    C37   S    
O11   C35   A    
C44   H22   S    
C16   C22   A    
O12   C36   A    
C22   C24   A    
O7    V1    S    
O24   H6    S    
C23   C25   A    
O8    V2    S    
O34   H26   S    
C24   C26   A    
O42   H30   S    
C9    O29   S    
C8    O28   S    
C26   C28   A    
C5    C7    D    
C17   C25   A    
C6    C8    D    
C18   C26   A    
C18   C48   S    
C38   O23   D    
C24   C32   A    
C40   H10   S    
C13   C29   A    
C1    O8    A    
C11   H1    S    
O16   C36   A    
O28   C42   S    
C37   O21   D    
O9    V2    S    
C45   O31   D    
C52   H35   S    
C17   C47   S    
O10   V1    S    
C22   O26   S    
C42   H16   S    
O38   H28   S    
C29   H3    S    
C30   H4    S    
C34   O17   A    
