data_mof_unit_63019.cif
_audit_creation_date              2012-10-26T18:12:48-0400
_audit_creation_method            fapswitch 2.2
_symmetry_space_group_name_H-M    P1
_symmetry_Int_Tables_number       1
_space_group_crystal_system       triclinic
_cell_length_a                    29.408934
_cell_length_b                    29.408941
_cell_length_c                    47.274485
_cell_angle_alpha                 90.000041
_cell_angle_beta                  90.000049
_cell_angle_gamma                 90.064666
_cell_volume                      40886.9955133

loop_
_atom_site_label
_atom_site_type_symbol
_atom_type_description
_atom_site_fract_x
_atom_site_fract_y
_atom_site_fract_z
_atom_type_partial_charge
C1    C     C_R   0.085522 0.500022 0.000000 0.553663
C2    C     C_R   0.500000 0.000000 0.086231 -0.058117
C3    C     C_R   0.970534 0.471996 0.809556 0.455792
C4    C     C_R   0.528007 0.029463 0.190444 0.455788
C5    C     C_R   0.029462 0.528008 0.190444 0.455783
C6    C     C_R   0.471994 0.970537 0.190444 0.455788
C7    C     C_R   0.970538 0.471992 0.190444 0.455784
C8    C     C_R   0.970974 0.470364 0.279853 0.026532
C9    C     C_R   0.470360 0.970979 0.279853 0.026531
C10   C     C_R   0.029026 0.529636 0.279853 0.026532
C11   C     C_R   0.529641 0.029021 0.279853 0.026531
C12   C     C_R   0.970975 0.470363 0.720147 0.026537
C13   C     C_R   0.000000 0.500000 0.913769 -0.058096
C14   C     C_R   0.470392 0.028988 0.720147 0.026553
C15   C     C_R   0.029025 0.529636 0.720147 0.026537
C16   C     C_R   0.529607 0.971012 0.720147 0.026552
C17   C     C_R   0.471012 0.029608 0.779853 0.026553
C18   C     C_R   0.970358 0.470981 0.779853 0.026538
C19   C     C_R   0.528987 0.970392 0.779853 0.026553
C20   C     C_R   0.029642 0.529019 0.779853 0.026538
C21   C     C_R   0.470978 0.970361 0.220147 0.026530
C22   C     C_R   0.970360 0.470979 0.220147 0.026532
C23   C     C_R   0.529023 0.029639 0.220147 0.026531
C24   C     C_R   0.500000 0.000000 0.913769 -0.058143
C25   C     C_R   0.029640 0.529022 0.220147 0.026532
C26   C     C_R   1.000000 0.500000 0.264945 -0.026818
C27   C     C_R   0.500000 1.000000 0.264945 -0.026822
C28   C     C_R   1.000000 0.500000 0.735055 -0.026818
C29   C     C_R   0.500000 1.000000 0.735055 -0.026813
C30   C     C_R   0.500000 0.000000 0.764945 -0.026813
C31   C     C_R   0.000000 0.500000 0.764945 -0.026817
C32   C     C_R   0.500000 1.000000 0.235055 -0.026823
C33   C     C_R   0.000000 0.500000 0.235055 -0.026817
C34   C     C_R   0.941778 0.441305 0.264764 -0.111257
C35   C     C_R   0.500000 1.000000 0.586231 -0.058144
C36   C     C_R   0.441298 0.941785 0.264764 -0.111256
C37   C     C_R   0.058222 0.558695 0.264764 -0.111257
C38   C     C_R   0.558703 0.058215 0.264764 -0.111257
C39   C     C_R   0.941778 0.441305 0.735236 -0.111257
C40   C     C_R   0.441365 0.058150 0.735236 -0.111260
C41   C     C_R   0.058222 0.558694 0.735236 -0.111257
C42   C     C_R   0.558635 0.941850 0.735236 -0.111261
C43   C     C_R   0.441851 0.058636 0.764764 -0.111261
C44   C     C_R   0.941293 0.441790 0.764764 -0.111257
C45   C     C_R   0.558149 0.941364 0.764764 -0.111260
C46   C     C_R   1.000000 0.500000 0.586231 -0.058096
C47   C     C_R   0.058707 0.558210 0.764764 -0.111257
C48   C     C_R   0.441783 0.941300 0.235236 -0.111256
C49   C     C_R   0.941296 0.441787 0.235236 -0.111257
C50   C     C_R   0.558217 0.058700 0.235236 -0.111256
C51   C     C_R   0.058704 0.558213 0.235236 -0.111258
C52   C     C_R   0.014984 0.461324 0.130899 0.255564
C53   C     C_R   0.461313 0.014955 0.130898 0.255563
C54   C     C_R   0.985016 0.538676 0.130899 0.255564
C55   C     C_R   0.538687 0.985045 0.130898 0.255564
C56   C     C_R   0.014955 0.461312 0.869102 0.255565
C57   C     C_R   0.500000 1.000000 0.413769 -0.058117
C58   C     C_R   0.461291 0.985013 0.869102 0.255550
C59   C     C_R   0.985045 0.538687 0.869102 0.255564
C60   C     C_R   0.538709 0.014987 0.869102 0.255551
C61   C     C_R   0.514987 0.038709 0.630897 0.255551
C62   C     C_R   0.961314 0.514960 0.630898 0.255564
C63   C     C_R   0.485013 0.961291 0.630897 0.255551
C64   C     C_R   0.038685 0.485040 0.630898 0.255565
C65   C     C_R   0.514955 0.961312 0.369102 0.255565
C66   C     C_R   0.038675 0.485013 0.369101 0.255564
C67   C     C_R   0.485045 0.038687 0.369102 0.255563
C68   C     C_R   1.000000 0.500000 0.413768 -0.058097
C69   C     C_R   0.961325 0.514987 0.369101 0.255565
C70   C     C_R   0.014371 0.461428 0.101158 -0.154825
C71   C     C_R   0.461417 0.014339 0.101157 -0.154839
C72   C     C_R   0.985629 0.538572 0.101158 -0.154825
C73   C     C_R   0.538583 0.985661 0.101157 -0.154839
C74   C     C_R   0.014340 0.461416 0.898843 -0.154828
C75   C     C_R   0.461396 0.985629 0.898844 -0.154861
C76   C     C_R   0.985660 0.538583 0.898843 -0.154828
C77   C     C_R   0.538604 0.014371 0.898844 -0.154861
C78   C     C_R   0.514370 0.038604 0.601156 -0.154861
C79   C     C_R   0.000000 0.500000 0.145736 0.317538
C80   C     C_R   0.961419 0.514344 0.601156 -0.154829
C81   C     C_R   0.485629 0.961396 0.601156 -0.154861
C82   C     C_R   0.038581 0.485655 0.601156 -0.154829
C83   C     C_R   0.514339 0.961417 0.398843 -0.154839
C84   C     C_R   0.038570 0.485625 0.398842 -0.154825
C85   C     C_R   0.485661 0.038583 0.398843 -0.154839
C86   C     C_R   0.961430 0.514375 0.398842 -0.154825
C87   C     C_R   0.500000 1.000000 0.145735 0.317501
C88   C     C_R   1.000000 0.500000 0.854264 0.317501
C89   C     C_R   0.500022 0.085522 0.000000 0.553669
C90   C     C_R   0.500000 0.000000 0.854265 0.317485
C91   C     C_R   0.500000 0.000000 0.645735 0.317483
C92   C     C_R   1.000000 0.500000 0.645736 0.317501
C93   C     C_R   0.500000 1.000000 0.354264 0.317503
C94   C     C_R   1.000000 0.500000 0.354264 0.317537
C95   C     C_1   0.136632 0.500058 0.000000 -0.030034
C96   C     C_1   0.500060 0.136632 0.000000 -0.030035
C97   C     C_1   0.863367 0.499941 0.000000 -0.030033
C98   C     C_1   0.499940 0.863367 0.000000 -0.030034
C99   C     C_1   0.636632 0.000060 0.500000 -0.030034
C100  C     C_R   0.914478 0.499978 0.000000 0.553663
C101  C     C_1   0.000059 0.636632 0.500000 -0.030034
C102  C     C_1   0.363368 0.999940 0.500000 -0.030034
C103  C     C_1   0.999941 0.363368 0.500000 -0.030034
C104  C     C_1   0.178999 0.500063 0.000000 -0.022341
C105  C     C_1   0.500066 0.178999 0.000000 -0.022340
C106  C     C_1   0.821001 0.499936 0.000000 -0.022341
C107  C     C_1   0.499934 0.821001 0.000000 -0.022340
C108  C     C_1   0.678998 0.000066 0.500000 -0.022340
C109  C     C_1   0.000064 0.678999 0.500000 -0.022341
C110  C     C_1   0.321001 0.999934 0.500000 -0.022340
C111  C     C_R   0.499978 0.914478 0.000000 0.553669
C112  C     C_1   0.999936 0.321001 0.500000 -0.022341
C113  C     C_1   0.229226 0.500055 1.000000 0.015372
C114  C     C_1   0.500058 0.229226 0.000000 0.015374
C115  C     C_1   0.770774 0.499945 0.000000 0.015372
C116  C     C_1   0.499942 0.770774 0.000000 0.015374
C117  C     C_1   0.729226 0.000058 0.500000 0.015374
C118  C     C_1   0.000055 0.729226 0.500000 0.015372
C119  C     C_1   0.270774 0.999942 0.500000 0.015374
C120  C     C_1   0.999945 0.270774 0.500000 0.015372
C121  C     C_1   0.271592 0.500044 1.000000 0.014644
C122  C     C_R   0.585522 0.000022 0.500000 0.553669
C123  C     C_1   0.500046 0.271592 0.000000 0.014645
C124  C     C_1   0.728407 0.499956 0.000000 0.014644
C125  C     C_1   0.499954 0.728407 0.000000 0.014645
C126  C     C_1   0.771592 0.000046 0.500000 0.014645
C127  C     C_1   0.000044 0.771592 0.500000 0.014644
C128  C     C_1   0.228408 0.999954 0.500000 0.014645
C129  C     C_1   0.999956 0.228408 0.500000 0.014644
C130  C     C_1   0.321820 0.500027 1.000000 -0.022037
C131  C     C_1   0.500029 0.321820 0.000000 -0.022036
C132  C     C_1   0.678180 0.499973 0.000000 -0.022037
C133  C     C_R   0.000022 0.585522 0.500000 0.553662
C134  C     C_1   0.499971 0.678180 0.000000 -0.022036
C135  C     C_1   0.821820 0.000029 0.500000 -0.022036
C136  C     C_1   0.000027 0.821820 0.500000 -0.022037
C137  C     C_1   0.178180 0.999971 0.500000 -0.022036
C138  C     C_1   0.999973 0.178179 0.500000 -0.022037
C139  C     C_1   0.364187 0.500014 1.000000 -0.026184
C140  C     C_1   0.500015 0.364187 0.000000 -0.026184
C141  C     C_1   0.635813 0.499986 0.000000 -0.026184
C142  C     C_1   0.499985 0.635813 0.000000 -0.026183
C143  C     C_1   0.864187 0.000015 0.500000 -0.026184
C144  C     C_R   0.414478 0.999977 0.500000 0.553669
C145  C     C_1   0.000014 0.864187 0.500000 -0.026184
C146  C     C_1   0.135813 0.999985 0.500000 -0.026183
C147  C     C_1   0.999986 0.135813 0.500000 -0.026184
C148  C     C_R   0.000000 0.500000 0.055089 0.572754
C149  C     C_R   0.500000 0.000000 0.055089 0.572740
C150  C     C_R   1.000000 0.500000 0.944911 0.572740
C151  C     C_R   0.500000 0.000000 0.944911 0.572730
C152  C     C_R   0.500000 0.000000 0.555089 0.572729
C153  C     C_R   1.000000 0.500000 0.555089 0.572740
C154  C     C_R   0.500000 1.000000 0.444911 0.572741
C155  C     C_R   0.999978 0.414478 0.500000 0.553662
C156  C     C_R   1.000000 0.500000 0.444910 0.572754
C157  C     C_R   0.500000 0.415299 0.000000 0.540605
C158  C     C_R   0.584701 0.500000 0.000000 0.540605
C159  C     C_R   0.499999 0.584701 0.000000 0.540606
C160  C     C_R   0.415299 0.500000 1.000000 0.540605
C161  C     C_R   0.000000 0.915299 0.500000 0.540605
C162  C     C_R   0.084701 0.999999 0.500000 0.540606
C163  C     C_R   1.000000 0.084701 0.500000 0.540605
C164  C     C_R   0.915299 0.000001 0.500000 0.540605
C165  C     C_R   0.028012 0.529458 0.309556 0.455783
C166  C     C_R   0.000000 0.500000 0.086232 -0.058098
C167  C     C_R   0.529464 0.028005 0.309556 0.455788
C168  C     C_R   0.971988 0.470543 0.309556 0.455783
C169  C     C_R   0.470536 0.971994 0.309556 0.455788
C170  C     C_R   0.028009 0.529460 0.690444 0.455792
C171  C     C_R   0.529433 0.972029 0.690444 0.455804
C172  C     C_R   0.971991 0.470539 0.690444 0.455794
C173  C     C_R   0.470567 0.027971 0.690444 0.455804
C174  C     C_R   0.527971 0.970566 0.809556 0.455805
C175  C     C_R   0.029466 0.528003 0.809556 0.455793
C176  C     C_R   0.472029 0.029434 0.809556 0.455805
Cu1   Cu    Cu3+1 0.000000 0.542440 0.000000 0.971870
Cu2   Cu    Cu3+1 0.500000 0.500000 0.971830 0.981300
Cu3   Cu    Cu3+1 1.000000 0.000000 0.528170 0.981299
Cu4   Cu    Cu3+1 1.000000 0.000000 0.471830 0.981297
Cu5   Cu    Cu3+1 0.457560 0.000000 0.000000 0.971843
Cu6   Cu    Cu3+1 0.000000 0.457560 0.000000 0.971870
Cu7   Cu    Cu3+1 0.542440 0.000000 0.000000 0.971843
Cu8   Cu    Cu3+1 0.500000 0.042440 0.500000 0.971843
Cu9   Cu    Cu3+1 0.957560 0.500000 0.500000 0.971871
Cu10  Cu    Cu3+1 0.500000 0.957560 0.500000 0.971843
Cu11  Cu    Cu3+1 0.042440 0.500000 0.500000 0.971871
Cu12  Cu    Cu3+1 0.500000 0.500000 0.028170 0.981297
H1    H     H_    0.919062 0.418242 0.275708 0.173079
H2    H     H_    0.918225 0.419078 0.775708 0.173059
H3    H     H_    0.580836 0.918323 0.775708 0.173024
H4    H     H_    0.081775 0.580921 0.775708 0.173059
H5    H     H_    0.419069 0.918235 0.224292 0.173073
H6    H     H_    0.918229 0.419075 0.224292 0.173079
H7    H     H_    0.580932 0.081765 0.224292 0.173073
H8    H     H_    0.081771 0.580926 0.224292 0.173079
H9    H     H_    0.025788 0.431676 0.089669 0.129670
H10   H     H_    0.431656 0.025732 0.089667 0.129695
H11   H     H_    0.974212 0.568324 0.089669 0.129670
H12   H     H_    0.418231 0.919072 0.275708 0.173073
H13   H     H_    0.568344 0.974268 0.089667 0.129695
H14   H     H_    0.025733 0.431656 0.910332 0.129655
H15   H     H_    0.431619 0.974212 0.910333 0.129736
H16   H     H_    0.974267 0.568344 0.910332 0.129656
H17   H     H_    0.568380 0.025788 0.910333 0.129736
H18   H     H_    0.525788 0.068381 0.589667 0.129735
H19   H     H_    0.931659 0.525741 0.589667 0.129654
H20   H     H_    0.474212 0.931619 0.589667 0.129736
H21   H     H_    0.068340 0.474259 0.589667 0.129654
H22   H     H_    0.525732 0.931656 0.410332 0.129695
H23   H     H_    0.080938 0.581758 0.275708 0.173079
H24   H     H_    0.068321 0.474206 0.410331 0.129668
H25   H     H_    0.474268 0.068344 0.410332 0.129695
H26   H     H_    0.931679 0.525794 0.410331 0.129668
H27   H     H_    0.039594 0.400026 0.132538 0.328608
H28   H     H_    0.399997 0.039523 0.132536 0.328632
H29   H     H_    0.960406 0.599974 0.132538 0.328608
H30   H     H_    0.600003 0.960478 0.132536 0.328633
H31   H     H_    0.039523 0.399997 0.867464 0.328639
H32   H     H_    0.399941 0.960392 0.867464 0.328693
H33   H     H_    0.960477 0.600003 0.867463 0.328639
H34   H     H_    0.581769 0.080928 0.275708 0.173073
H35   H     H_    0.600059 0.039608 0.867464 0.328693
H36   H     H_    0.539607 0.100059 0.632535 0.328692
H37   H     H_    0.900002 0.539535 0.632536 0.328640
H38   H     H_    0.460392 0.899941 0.632535 0.328693
H39   H     H_    0.099998 0.460464 0.632536 0.328639
H40   H     H_    0.539522 0.899997 0.367464 0.328632
H41   H     H_    0.099971 0.460396 0.367462 0.328609
H42   H     H_    0.460478 0.100003 0.367464 0.328632
H43   H     H_    0.900029 0.539604 0.367462 0.328609
H44   H     H_    0.919062 0.418242 0.724292 0.173059
H45   H     H_    0.418324 0.080837 0.724292 0.173024
H46   H     H_    0.080938 0.581758 0.724292 0.173059
H47   H     H_    0.581676 0.919163 0.724292 0.173024
H48   H     H_    0.419164 0.081677 0.775708 0.173024
N1    N     N_R   1.000000 0.500000 0.323789 -0.345128
N2    N     N_R   0.500000 1.000000 0.323789 -0.345141
N3    N     N_R   1.000000 0.500000 0.676211 -0.345136
N4    N     N_R   0.500000 0.000000 0.676210 -0.345131
N5    N     N_R   0.500000 1.000000 0.823789 -0.345131
N6    N     N_R   0.000000 0.500000 0.823789 -0.345135
N7    N     N_R   0.500000 1.000000 0.176211 -0.345142
N8    N     N_R   1.000000 0.500000 0.176211 -0.345126
O1    O     O_R   0.061940 0.535840 0.000010 -0.481368
O2    O     O_R   0.964160 0.561940 0.500010 -0.487968
O3    O     O_R   0.438060 0.964160 0.500010 -0.484569
O4    O     O_R   0.035840 0.438060 0.500010 -0.487968
O5    O     O_R   0.561940 0.964160 0.499990 -0.484768
O6    O     O_R   0.964160 0.438060 0.499990 -0.481368
O7    O     O_R   0.438060 0.035840 0.499990 -0.484768
O8    O     O_R   0.035840 0.561940 0.499990 -0.481368
O9    O     O_R   0.499970 0.438000 0.023810 -0.481419
O10   O     O_R   0.562000 0.499970 0.023810 -0.481420
O11   O     O_R   0.500030 0.562000 0.023810 -0.481420
O12   O     O_R   0.464160 0.061940 0.000010 -0.484768
O13   O     O_R   0.438000 0.500030 0.023810 -0.481419
O14   O     O_R   0.499970 0.562000 0.976190 -0.481419
O15   O     O_R   0.562000 0.500030 0.976190 -0.481419
O16   O     O_R   0.500030 0.438000 0.976190 -0.481418
O17   O     O_R   0.438000 0.499970 0.976190 -0.481419
O18   O     O_R   0.999970 0.938000 0.523810 -0.481419
O19   O     O_R   0.062000 0.999970 0.523810 -0.481419
O20   O     O_R   0.000030 0.062000 0.523810 -0.481419
O21   O     O_R   0.938000 0.000030 0.523810 -0.481418
O22   O     O_R   0.999970 0.062000 0.476190 -0.481419
O23   O     O_R   0.938060 0.464160 0.000010 -0.481368
O24   O     O_R   0.062000 0.000030 0.476190 -0.481419
O25   O     O_R   0.000030 0.938000 0.476190 -0.481418
O26   O     O_R   0.938000 0.999970 0.476190 -0.481419
O27   O     O_R   0.999950 0.535840 0.041070 -0.497057
O28   O     O_R   0.464160 0.999950 0.041070 -0.497045
O29   O     O_R   0.000050 0.464160 0.041070 -0.497057
O30   O     O_R   0.535840 0.000050 0.041070 -0.497045
O31   O     O_R   0.999950 0.464160 0.958930 -0.497042
O32   O     O_R   0.464160 0.000050 0.958930 -0.497043
O33   O     O_R   0.000050 0.535840 0.958930 -0.497042
O34   O     O_R   0.535840 0.938060 0.000010 -0.484768
O35   O     O_R   0.535840 0.999950 0.958930 -0.497043
O36   O     O_R   0.499950 0.035840 0.541070 -0.497044
O37   O     O_R   0.964160 0.499950 0.541070 -0.497042
O38   O     O_R   0.500050 0.964160 0.541070 -0.497044
O39   O     O_R   0.035840 0.500050 0.541070 -0.497043
O40   O     O_R   0.499950 0.964160 0.458930 -0.497044
O41   O     O_R   0.964160 0.500050 0.458930 -0.497056
O42   O     O_R   0.500050 0.035840 0.458930 -0.497044
O43   O     O_R   0.035840 0.499950 0.458930 -0.497055
O44   O     O_2   0.054632 0.558626 0.324115 -0.459875
O45   O     O_R   0.061940 0.464160 0.999990 -0.487967
O46   O     O_2   0.558641 0.054617 0.324115 -0.459875
O47   O     O_2   0.945368 0.441375 0.324115 -0.459876
O48   O     O_2   0.441360 0.945383 0.324115 -0.459875
O49   O     O_2   0.054625 0.558632 0.675885 -0.459898
O50   O     O_2   0.558581 0.945452 0.675885 -0.459955
O51   O     O_2   0.945375 0.441367 0.675885 -0.459898
O52   O     O_2   0.441419 0.054548 0.675885 -0.459955
O53   O     O_2   0.554548 0.941418 0.824115 -0.459956
O54   O     O_2   0.058644 0.554613 0.824115 -0.459901
O55   O     O_2   0.445452 0.058582 0.824115 -0.459956
O56   O     O_R   0.464160 0.938060 0.999990 -0.484569
O57   O     O_2   0.941356 0.445386 0.824115 -0.459901
O58   O     O_2   0.554619 0.058639 0.175885 -0.459874
O59   O     O_2   0.058633 0.554624 0.175884 -0.459878
O60   O     O_2   0.445381 0.941361 0.175885 -0.459873
O61   O     O_2   0.941367 0.445376 0.175884 -0.459878
O62   O     O_3   0.030349 0.424188 0.145985 -0.653380
O63   O     O_3   0.424166 0.030296 0.145984 -0.653350
O64   O     O_3   0.969650 0.575812 0.145985 -0.653380
O65   O     O_3   0.575835 0.969704 0.145984 -0.653351
O66   O     O_3   0.030297 0.424165 0.854016 -0.653337
O67   O     O_R   0.938060 0.535840 0.999990 -0.487967
O68   O     O_3   0.424123 0.969639 0.854017 -0.653297
O69   O     O_3   0.969704 0.575834 0.854016 -0.653337
O70   O     O_3   0.575877 0.030361 0.854017 -0.653297
O71   O     O_3   0.530361 0.075877 0.645983 -0.653295
O72   O     O_3   0.924170 0.530306 0.645984 -0.653335
O73   O     O_3   0.469639 0.924123 0.645983 -0.653296
O74   O     O_3   0.075830 0.469693 0.645984 -0.653335
O75   O     O_3   0.530296 0.924166 0.354016 -0.653352
O76   O     O_3   0.075809 0.469644 0.354015 -0.653379
O77   O     O_3   0.469704 0.075834 0.354016 -0.653352
O78   O     O_R   0.535840 0.061940 0.999990 -0.484569
O79   O     O_3   0.924191 0.530357 0.354015 -0.653379
O80   O     O_R   0.561940 0.035840 0.500010 -0.484569

loop_
_geom_bond_atom_site_label_1
_geom_bond_atom_site_label_2
_ccdc_geom_bond_type
C92   N3    S    
C153  O39   A    
C8    C26   A    
C9    C169  A    
C170  N3    A    
H41   O76   S    
C173  N4    A    
C12   C172  A    
C165  O44   S    
C59   O69   S    
C43   H48   S    
C157  O16   A    
C158  O15   A    
C37   H23   S    
C131  C140  T    
C8    C168  A    
C174  N5    A    
C44   H2    S    
Cu3   O19   S    
C45   H3    S    
C167  N2    A    
Cu12  O13   S    
C57   C83   A    
C151  O32   A    
C4    N7    A    
Cu4   O25   S    
C133  O2    A    
Cu5   O28   S    
Cu2   Cu12  S    
C119  C128  T    
C11   C167  A    
C17   C30   A    
C109  C118  S    
Cu5   Cu7   S    
C173  O52   S    
C67   C85   A    
C137  C146  T    
C127  C136  S    
C58   O68   S    
H31   O66   S    
C112  C120  S    
C4    C23   A    
Cu11  O39   S    
C60   O70   S    
C6    C21   A    
C73   H13   S    
C103  C112  T    
C42   C45   A    
C17   C43   A    
C24   C151  S    
C77   H17   S    
C138  C147  T    
C50   H7    S    
C11   C27   A    
C1    O45   A    
C133  O8    A    
C22   C49   A    
C5    C25   A    
C101  C133  S    
C169  N2    A    
H40   O75   S    
C35   C152  S    
C2    C71   A    
C53   C71   A    
H28   O63   S    
C54   C79   A    
C46   C153  S    
C72   C166  A    
C40   H45   S    
Cu4   O22   S    
Cu7   O35   S    
C60   C90   A    
C7    C22   A    
C57   C154  S    
C35   C78   A    
C106  C115  S    
C149  O30   A    
C89   C96   S    
Cu12  O10   S    
C19   C174  A    
C1    O1    A    
H43   O79   S    
C160  O13   A    
C57   C85   A    
C20   C47   A    
C20   C175  A    
C24   C77   A    
C111  O56   A    
C49   H6    S    
C63   C91   A    
C18   C31   A    
C19   C30   A    
Cu1   Cu6   S    
C172  O51   S    
C48   H5    S    
C176  O55   S    
H30   O65   S    
C121  C130  S    
C158  O10   A    
C167  O46   S    
C99   C108  T    
C145  C161  S    
C62   C80   A    
C14   C173  A    
C85   H25   S    
Cu9   Cu11  S    
H42   O77   S    
C124  C132  S    
C47   H4    S    
Cu10  O5    S    
C26   C33   A    
C46   C82   A    
H39   O74   S    
C52   C79   A    
Cu2   O14   S    
C93   N2    S    
C135  C143  T    
H36   O71   S    
C102  C144  S    
C156  O41   A    
Cu4   O24   S    
C152  O38   A    
C40   C43   A    
C120  C129  T    
Cu8   O7    S    
C75   H15   S    
C4    O58   S    
C15   C170  A    
C154  O40   A    
C7    N8    A    
C64   O74   S    
C86   H26   S    
C29   C30   A    
Cu5   O12   S    
C42   H47   S    
C94   N1    S    
Cu6   O23   S    
C1    C95   S    
C41   C47   A    
C53   C87   A    
C8    C34   A    
C5    O59   S    
C2    C73   A    
C6    O60   S    
C114  C123  T    
C144  O7    A    
C116  C125  T    
C163  O22   A    
C118  C127  T    
C14   C29   A    
C97   C100  S    
C71   H10   S    
C117  C126  T    
C171  O50   S    
C132  C141  T    
C34   C49   A    
Cu1   O67   S    
C108  C117  S    
C149  O28   A    
C110  C119  S    
C19   C45   A    
C39   C44   A    
Cu8   O36   S    
C56   O66   S    
C21   C48   A    
C150  O33   A    
C39   H44   S    
C147  C163  S    
C72   H11   S    
C46   C80   A    
C16   C171  A    
H38   O73   S    
C162  O24   A    
C154  O42   A    
Cu6   O45   S    
C55   C87   A    
C107  C116  S    
Cu2   O15   S    
C104  C113  S    
C55   C73   A    
C69   O79   S    
Cu7   O78   S    
C113  C121  T    
C7    O61   S    
C144  O3    A    
C67   C93   A    
Cu9   O37   S    
C59   C76   A    
C156  O43   A    
Cu4   O26   S    
C25   C33   A    
Cu9   O2    S    
C125  C134  S    
C175  N6    A    
C96   C105  T    
C148  C166  S    
C159  O11   A    
C142  C159  S    
C146  C162  S    
C12   C28   A    
C89   O78   A    
C53   O63   S    
C13   C150  S    
C88   N6    S    
C171  N4    A    
C101  C109  T    
H29   O64   S    
C67   O77   S    
Cu1   O1    S    
C89   O12   A    
C91   N4    S    
C170  O49   S    
Cu8   O80   S    
C148  O27   A    
C130  C139  T    
Cu1   O27   S    
C34   H1    S    
C56   C74   A    
C68   C84   A    
C150  O31   A    
C15   C41   A    
C69   C94   A    
H32   O68   S    
C23   C50   A    
C74   H14   S    
C161  O25   A    
C98   C107  T    
C3    N6    A    
C11   C38   A    
C78   H18   S    
C134  C142  T    
Cu3   O20   S    
C79   N8    S    
C58   C90   A    
Cu10  O40   S    
C81   H20   S    
C97   C106  T    
C103  C155  S    
C139  C160  S    
C169  O48   S    
C64   C92   A    
C143  C164  S    
C9    C27   A    
C164  O26   A    
Cu8   O42   S    
C115  C124  T    
C123  C131  S    
C27   C32   A    
C63   O73   S    
C28   C31   A    
C36   H12   S    
Cu7   O30   S    
C84   H24   S    
C24   C75   A    
C165  N1    A    
C23   C32   A    
C38   H34   S    
C12   C39   A    
C55   O65   S    
C70   H9    S    
H27   O62   S    
C15   C28   A    
C102  C110  T    
Cu8   Cu10  S    
C5    N8    A    
C83   H22   S    
C56   C88   A    
Cu3   Cu4   S    
C141  C158  S    
C61   O71   S    
C13   C74   A    
C168  O47   S    
C148  O29   A    
C65   O75   S    
C122  O80   A    
C66   O76   S    
H37   O72   S    
C68   C86   A    
C35   C81   A    
C155  O4    A    
C63   C81   A    
C10   C37   A    
Cu12  O9    S    
C54   O64   S    
C18   C44   A    
C51   H8    S    
C70   C166  A    
C37   C51   A    
Cu3   O18   S    
C65   C83   A    
C41   H46   S    
C175  O54   S    
C3    C18   A    
Cu11  O8    S    
Cu9   O41   S    
C59   C88   A    
C151  O35   A    
Cu10  O38   S    
Cu9   O6    S    
Cu11  O43   S    
C161  O18   A    
C129  C138  S    
C62   C92   A    
C36   C48   A    
C152  O36   A    
C136  C145  T    
C17   C176  A    
Cu1   O33   S    
C66   C94   A    
C10   C26   A    
C2    C149  S    
Cu10  O3    S    
C155  O6    A    
C58   C75   A    
C21   C32   A    
C60   C77   A    
C153  O37   A    
C111  O34   A    
C105  C114  S    
C100  O67   A    
C16   C29   A    
C66   C84   A    
H35   O70   S    
C128  C137  S    
C25   C51   A    
Cu11  O4    S    
C157  O9    A    
C140  C157  S    
C9    C36   A    
C87   N7    S    
C13   C76   A    
C61   C78   A    
C64   C82   A    
Cu2   O16   S    
Cu3   O21   S    
C159  O14   A    
C99   C122  S    
C160  O17   A    
C52   O62   S    
C6    N7    A    
Cu6   O29   S    
C16   C42   A    
C95   C104  T    
Cu7   O34   S    
C22   C33   A    
C98   C111  S    
Cu5   O56   S    
Cu12  O11   S    
C68   C156  S    
Cu2   O17   S    
C126  C135  S    
C76   H16   S    
C168  N1    A    
C38   C50   A    
C100  O23   A    
C164  O21   A    
C174  O53   S    
C122  O5    A    
C162  O19   A    
C10   C165  A    
C65   C93   A    
C82   H21   S    
C52   C70   A    
C14   C40   A    
C172  N3    A    
C80   H19   S    
C54   C72   A    
C62   O72   S    
C90   N5    S    
Cu6   O31   S    
C163  O20   A    
C3    O57   S    
Cu5   O32   S    
C69   C86   A    
C61   C91   A    
C176  N5    A    
C20   C31   A    
H33   O69   S    
