data_mof_unit_18579.cif
_audit_creation_date              2012-12-10T18:32:55-0500
_audit_creation_method            fapswitch 2.2
_symmetry_space_group_name_H-M    P1
_symmetry_Int_Tables_number       1
_space_group_crystal_system       triclinic
_cell_length_a                    14.960295
_cell_length_b                    15.357284
_cell_length_c                    15.722642
_cell_angle_alpha                 89.705429
_cell_angle_beta                  103.760709
_cell_angle_gamma                 81.731688
_cell_volume                      3469.20775206

loop_
_atom_site_label
_atom_site_type_symbol
_atom_type_description
_atom_site_fract_x
_atom_site_fract_y
_atom_site_fract_z
_atom_type_partial_charge
C1    C     C_R   0.441077 0.662891 0.487407 0.931348
C2    C     C_R   0.594079 0.243814 0.534260 -0.233830
C3    C     C_R   0.281881 0.883146 0.465067 -0.178989
C4    C     C_R   0.500506 0.500087 0.661441 0.874430
C5    C     C_R   0.310408 0.794299 0.452653 0.424917
C6    C     C_R   0.467152 0.810849 0.532151 -0.274565
C7    C     C_R   0.440683 0.900844 0.539682 0.069743
C8    C     C_R   0.345713 0.937534 0.506827 -0.060499
C9    C     C_R   0.508146 0.956451 0.571736 0.016575
C10   C     C_R   0.482114 0.047367 0.554633 0.032528
C11   C     C_R   0.386947 0.082541 0.535375 -0.214332
C12   C     C_3   0.395612 0.525980 0.025937 0.358820
C13   C     C_R   0.318305 0.028644 0.513165 0.411955
C14   C     C_R   0.600981 0.925096 0.616861 -0.312592
C15   C     C_R   0.667633 0.981982 0.638212 0.550767
C16   C     C_R   0.558517 0.337321 0.513141 0.911316
C17   C     C_R   0.644960 0.070201 0.605453 -0.133779
C18   C     C_R   0.551988 0.101059 0.558994 -0.134498
C19   C     C_R   0.712033 0.128447 0.616619 0.544611
C20   C     C_R   0.684094 0.216354 0.585508 -0.400269
C21   C     C_R   0.532202 0.182892 0.512922 0.491357
C22   C     C_R   0.851467 0.590682 0.666852 -0.299028
C23   C     C_3   0.497188 0.503569 0.082288 0.106320
C24   C     C_R   0.758937 0.581924 0.631403 -0.049322
C25   C     C_R   0.793393 0.534961 0.497570 0.418044
C26   C     C_R   0.889756 0.524002 0.537966 -0.097919
C27   C     C_R   0.917907 0.560246 0.620682 0.140049
C28   C     C_R   0.499398 0.500122 0.338560 0.916842
C29   C     C_R   0.958529 0.479807 0.498744 0.030834
C30   C     C_R   0.052711 0.491733 0.530258 0.090263
C31   C     C_R   0.077868 0.535220 0.609532 -0.175434
C32   C     C_R   0.011731 0.565762 0.655700 -0.173617
C33   C     C_R   0.936155 0.418814 0.433564 -0.219515
C34   C     C_3   0.540506 0.411172 0.058841 -0.524806
C35   C     C_R   0.002233 0.378409 0.391126 0.529614
C36   C     C_R   0.091786 0.402048 0.411480 0.054422
C37   C     C_R   0.118274 0.457826 0.482178 -0.069798
C38   C     C_R   0.156193 0.369320 0.363271 -0.264002
C39   C     C_R   0.244630 0.392915 0.384365 0.006651
C40   C     C_3   0.395575 0.520845 0.926923 0.366985
C41   C     C_R   0.209087 0.479255 0.500036 0.060626
C42   C     C_3   0.564061 0.566914 0.967257 0.377278
C43   C     C_3   0.555628 0.573768 0.063196 -0.410650
C44   C     C_1   0.497889 0.501041 0.249326 -0.097446
C45   C     C_3   0.538905 0.409613 0.960044 -0.607055
C46   C     C_3   0.498484 0.502761 0.916726 0.084124
C47   C     C_3   0.265061 0.611804 0.054887 -0.197113
C48   C     C_3   0.472465 0.176256 0.366776 -0.298810
C49   C     C_3   0.760213 0.937611 0.772129 -0.215832
C50   C     C_3   0.271879 0.579221 0.810132 -0.343074
C51   C     C_3   0.862941 0.095547 0.609301 -0.164567
C52   C     C_3   0.955801 0.244493 0.358665 -0.227954
C53   C     C_3   0.483434 0.707190 0.905226 -0.144447
C54   C     C_1   0.497363 0.502187 0.173867 0.021711
C55   C     C_1   0.500554 0.501751 0.825722 0.012170
C56   C     C_1   0.501247 0.500954 0.750528 -0.173461
C57   C     C_R   0.404253 0.757043 0.489132 -0.198295
H1    H     H_    0.362812 0.461279 0.903716 0.024231
H2    H     H_    0.233816 0.523177 0.550538 0.136321
H3    H     H_    0.294947 0.367810 0.347807 0.153747
H4    H     H_    0.871355 0.617073 0.731278 0.161951
H5    H     H_    0.708499 0.599236 0.669828 0.168517
H6    H     H_    0.635951 0.531692 0.973169 0.137264
H7    H     H_    0.148923 0.542070 0.639882 0.119016
H8    H     H_    0.867538 0.400170 0.416859 0.185240
H9    H     H_    0.138749 0.325838 0.309770 0.206904
H10   H     H_    0.524660 0.640585 0.077189 0.223245
H11   H     H_    0.626469 0.561500 0.108097 0.198160
H12   H     H_    0.356876 0.473347 0.042167 0.007674
H13   H     H_    0.496466 0.359417 0.928329 0.208566
H14   H     H_    0.610659 0.388481 0.951843 0.218309
H15   H     H_    0.501151 0.359761 0.075175 0.193636
H16   H     H_    0.265662 0.571801 0.114262 0.148385
H17   H     H_    0.219969 0.587515 0.995694 0.149184
H18   H     H_    0.234781 0.680470 0.063671 0.206970
H19   H     H_    0.203466 0.218710 0.479435 0.358672
H20   H     H_    0.494171 0.103685 0.368451 0.178175
H21   H     H_    0.526807 0.211392 0.350616 0.147599
H22   H     H_    0.408410 0.192696 0.313482 0.193256
H23   H     H_    0.613624 0.394661 0.098137 0.235057
H24   H     H_    0.736197 0.001110 0.799428 0.166013
H25   H     H_    0.833361 0.915488 0.808197 0.198097
H26   H     H_    0.718472 0.886389 0.783885 0.137296
H27   H     H_    0.233022 0.632023 0.294085 0.376531
H28   H     H_    0.219828 0.548925 0.835767 0.156840
H29   H     H_    0.299139 0.535485 0.762995 0.165640
H30   H     H_    0.235962 0.641637 0.774084 0.204965
H31   H     H_    0.867130 0.161094 0.581343 0.131590
H32   H     H_    0.842318 0.049727 0.555867 0.165212
H33   H     H_    0.933738 0.068008 0.647789 0.210782
H34   H     H_    0.732688 0.263051 0.602427 0.201416
H35   H     H_    0.885455 0.256363 0.371927 0.143263
H36   H     H_    0.008766 0.217603 0.418932 0.213912
H37   H     H_    0.954820 0.193324 0.309054 0.220877
H38   H     H_    0.857839 0.651855 0.381769 0.363782
H39   H     H_    0.441191 0.704892 0.953974 0.218872
H40   H     H_    0.442876 0.697095 0.838098 0.204429
H41   H     H_    0.500826 0.774969 0.904773 0.155871
H42   H     H_    0.210135 0.910435 0.437297 0.248140
H43   H     H_    0.538799 0.781912 0.555920 0.186409
H44   H     H_    0.365835 0.152536 0.538375 0.215244
H45   H     H_    0.623295 0.857240 0.639472 0.159066
H46   H     H_    0.033936 0.595003 0.718390 0.136435
N1    N     N_R   0.731690 0.552720 0.548990 -0.137803
N2    N     N_R   0.268300 0.447240 0.450950 -0.100904
O1    O     O_R   0.383120 0.605620 0.475300 -0.544456
O2    O     O_2   0.159766 0.081409 0.392368 -0.322744
O3    O     O_2   0.145737 0.025960 0.534016 -0.277167
O4    O     O_3   0.190768 0.181835 0.525757 -0.566739
O5    O     O_3   0.452173 0.203730 0.446366 -0.608981
O6    O     O_3   0.757481 0.947953 0.682340 -0.569807
O7    O     O_2   0.192675 0.677499 0.444416 -0.316013
O8    O     O_2   0.146509 0.798384 0.333714 -0.269458
O9    O     O_3   0.276904 0.673762 0.316841 -0.550702
O10   O     O_3   0.344796 0.598464 0.879295 -0.590289
O11   O     O_3   0.801974 0.102692 0.665782 -0.576193
O12   O     O_R   0.531890 0.639510 0.506740 -0.610195
O13   O     O_3   0.977537 0.321651 0.324143 -0.604278
O14   O     O_2   0.725681 0.488929 0.331293 -0.304090
O15   O     O_2   0.676533 0.640108 0.368795 -0.272115
O16   O     O_3   0.843507 0.599174 0.348072 -0.514858
O17   O     O_3   0.567280 0.647941 0.924316 -0.622521
O18   O     O_R   0.425580 0.483050 0.607130 -0.632400
O19   O     O_R   0.574360 0.516930 0.638570 -0.630885
O20   O     O_R   0.468110 0.360490 0.493260 -0.565914
O21   O     O_R   0.616880 0.394380 0.524700 -0.630740
O22   O     O_R   0.425640 0.483070 0.361430 -0.634396
O23   O     O_R   0.574420 0.516950 0.392870 -0.519354
O24   O     O_3   0.356380 0.611489 0.045050 -0.583045
S1    S     S_3+6 0.200156 0.078725 0.489690 -0.005559
S2    S     S_3+6 0.227543 0.735638 0.386280 0.039589
S3    S     S_3+6 0.756204 0.565474 0.383866 0.043101
Zn1   Zn    Zn3+2 0.400660 0.477370 0.479010 0.995784
Zn2   Zn    Zn3+2 0.599340 0.522630 0.520990 1.003564

loop_
_geom_bond_atom_site_label_1
_geom_bond_atom_site_label_2
_ccdc_geom_bond_type
C49   H25   S    
C48   O5    S    
C55   C56   T    
C8    C13   A    
C45   H14   S    
C18   C21   A    
O9    S2    S    
C19   C20   A    
C12   H12   S    
C21   O5    S    
C33   H8    S    
C7    C8    A    
C45   C46   S    
C40   C46   S    
C12   C23   S    
C26   C27   A    
N1    Zn2   S    
C47   O24   S    
C48   H22   S    
C36   C37   A    
C1    C57   S    
C53   O17   S    
C51   H33   S    
C30   C31   A    
C14   H45   S    
C40   O10   S    
C49   H24   S    
C29   C33   A    
C23   C43   S    
C4    O19   A    
C39   N2    A    
C50   O10   S    
C42   C46   S    
C48   H21   S    
C50   H28   S    
C34   H23   S    
O1    Zn1   S    
C35   C36   A    
C43   H11   S    
C46   C55   S    
H27   O9    S    
C13   S1    S    
C52   H37   S    
C2    C16   S    
C9    C10   A    
O3    S1    D    
C28   O22   A    
C1    O1    A    
C49   O6    S    
H38   O16   S    
C45   H13   S    
C4    C56   S    
C53   H39   S    
C6    C57   A    
O2    S1    D    
O12   Zn2   S    
O21   Zn2   S    
O14   S3    D    
C20   H34   S    
C40   H1    S    
C12   O24   S    
C2    C20   A    
C38   H9    S    
C47   H16   S    
C3    C8    A    
H19   O4    S    
C53   H40   S    
C25   C26   A    
C28   C44   S    
C30   C37   A    
C24   N1    A    
C6    H43   S    
C48   H20   S    
C12   C40   S    
C9    C14   A    
C29   C30   A    
O23   Zn2   S    
C31   C32   A    
C23   C34   S    
C2    C21   A    
C17   C18   A    
C32   H46   S    
C52   H36   S    
C11   H44   S    
C34   C45   S    
C1    O12   A    
C41   H2    S    
C41   N2    A    
C50   H30   S    
C44   C54   T    
O18   Zn1   S    
C22   C27   A    
C22   C24   A    
C52   H35   S    
C42   C43   S    
O16   S3    S    
C17   C19   A    
C34   H15   S    
C42   O17   S    
C23   C54   S    
N2    Zn1   S    
C16   O20   A    
O20   Zn1   S    
C7    C9    A    
C24   H5    S    
O8    S2    D    
C27   C32   A    
O15   S3    D    
C31   H7    S    
O22   Zn1   S    
C47   H17   S    
C3    C5    A    
C51   H31   S    
C25   N1    A    
C15   C17   A    
C6    C7    A    
C5    C57   A    
C53   H41   S    
C51   O11   S    
O19   Zn2   S    
C49   H26   S    
C36   C38   A    
C47   H18   S    
C51   H32   S    
C22   H4    S    
C11   C13   A    
C38   C39   A    
C19   O11   S    
C10   C18   A    
C39   H3    S    
C33   C35   A    
O7    S2    D    
C37   C41   A    
C10   C11   A    
C50   H29   S    
C3    H42   S    
C5    S2    S    
C4    O18   A    
C26   C29   A    
C43   H10   S    
O4    S1    S    
C14   C15   A    
C35   O13   S    
C25   S3    S    
C16   O21   A    
C42   H6    S    
C28   O23   A    
C15   O6    S    
C52   O13   S    
