data_mof_unit_38526.cif
_audit_creation_date              2012-12-10T17:54:21-0500
_audit_creation_method            fapswitch 2.2
_symmetry_space_group_name_H-M    P1
_symmetry_Int_Tables_number       1
_space_group_crystal_system       triclinic
_cell_length_a                    27.710693
_cell_length_b                    10.620174
_cell_length_c                    9.946699
_cell_angle_alpha                 89.407355
_cell_angle_beta                  90.321155
_cell_angle_gamma                 93.720139
_cell_volume                      2920.87770564

loop_
_atom_site_label
_atom_site_type_symbol
_atom_type_description
_atom_site_fract_x
_atom_site_fract_y
_atom_site_fract_z
_atom_type_partial_charge
C1    C     C_R   0.500948 0.258801 0.501705 0.862681
C2    C     C_R   0.281808 0.450160 0.644849 0.186401
C3    C     C_R   0.251812 0.474284 0.536139 0.214532
C4    C     C_R   0.100960 0.466725 0.560599 -0.075669
C5    C     C_R   0.123697 0.351412 0.554442 -0.080149
C6    C     C_R   0.094674 0.236718 0.547823 0.112703
C7    C     C_R   0.129301 0.580990 0.575327 0.004024
C8    C     C_R   0.352313 0.492198 0.503285 -0.121125
C9    C     C_R   0.646441 0.496204 0.502073 -0.040265
C10   C     C_R   0.970555 0.355893 0.535874 0.040308
C11   C     C_R   0.977112 0.587613 0.541640 0.054026
C12   C     C_R   0.405801 0.499136 0.499627 0.846034
C13   C     C_R   0.948494 0.472045 0.533343 0.072286
C14   C     C_R   0.940872 0.244256 0.547680 -0.199991
C15   C     C_R   0.890860 0.241567 0.528392 0.113982
C16   C     C_R   0.868076 0.357905 0.521283 -0.057278
C17   C     C_R   0.897368 0.472800 0.525163 -0.077102
C18   C     C_R   0.875610 0.589338 0.520512 -0.006804
C19   C     C_R   0.825473 0.590844 0.512396 0.503487
C20   C     C_R   0.817258 0.365784 0.515208 0.487969
C21   C     C_R   0.720438 0.467375 0.625426 -0.099896
C22   C     C_R   0.670552 0.472770 0.623478 -0.191096
C23   C     C_R   0.491260 0.735692 0.500453 0.900597
C24   C     C_R   0.672944 0.514435 0.382733 -0.218381
C25   C     C_R   0.722958 0.509247 0.385129 -0.110128
C26   C     C_R   0.746562 0.485390 0.506412 0.333777
C27   C     C_R   0.021683 0.354024 0.533400 -0.016261
C28   C     C_R   0.049961 0.468377 0.552796 0.052269
C29   C     C_R   0.027852 0.585404 0.558406 0.070560
C30   C     C_R   0.045760 0.241666 0.512801 0.084891
C31   C     C_R   0.107226 0.694499 0.585902 -0.134955
C32   C     C_R   0.953840 0.701891 0.533384 -0.202425
C33   C     C_R   0.904112 0.702360 0.524289 -0.149458
C34   C     C_R   0.593848 0.499746 0.500407 0.899832
C35   C     C_R   0.057494 0.696883 0.579580 -0.201023
C36   C     C_R   0.511078 0.105155 0.757285 -0.152185
C37   C     C_R   0.498557 0.042344 0.877207 -0.145658
C38   C     C_R   0.471966 0.926961 0.873767 -0.166397
C39   C     C_R   0.462444 0.868436 0.751184 -0.126348
C40   C     C_R   0.477863 0.928125 0.629721 0.119858
C41   C     C_R   0.495537 0.054433 0.631441 0.085492
C42   C     C_R   0.496263 0.122606 0.506976 -0.118933
C43   C     C_R   0.482834 0.060977 0.387038 -0.215705
C44   C     C_R   0.473890 0.932390 0.386762 -0.225948
C45   C     C_R   0.174656 0.356826 0.546085 0.569128
C46   C     C_R   0.477653 0.864927 0.505818 -0.150577
C47   C     C_R   0.436549 0.330108 0.139991 -0.221281
C48   C     C_R   0.405469 0.245141 0.070592 -0.208203
C49   C     C_R   0.405124 0.244224 0.929918 0.146427
C50   C     C_R   0.436277 0.331142 0.861054 -0.204000
C51   C     C_R   0.468486 0.417077 0.928438 0.085038
C52   C     C_R   0.468718 0.416462 0.072376 0.129918
C53   C     C_R   0.530098 0.582711 0.070302 0.064216
C54   C     C_R   0.530932 0.579356 0.926790 0.183179
C55   C     C_R   0.179522 0.579847 0.575949 0.573298
C56   C     C_R   0.271155 0.506538 0.408805 0.149279
C57   C     C_R   0.321948 0.516859 0.390564 0.011546
C58   C     C_R   0.331237 0.458834 0.628055 -0.298848
H1    H     H_    0.353206 0.439368 0.715151 0.190630
H2    H     H_    0.128465 0.782921 0.596662 0.185058
H3    H     H_    0.972864 0.793515 0.531873 0.156997
H4    H     H_    0.655132 0.532925 0.288030 0.156400
H5    H     H_    0.888096 0.792581 0.521018 0.176032
H6    H     H_    0.743406 0.523492 0.293160 0.134784
H7    H     H_    0.043624 0.788334 0.592137 0.143629
H8    H     H_    0.480157 0.111250 0.292254 0.170589
H9    H     H_    0.533671 0.191263 0.766219 0.173848
H10   H     H_    0.508857 0.084199 0.972808 0.144752
H11   H     H_    0.460433 0.880398 0.966037 0.130769
H12   H     H_    0.442661 0.777096 0.751753 0.157952
H13   H     H_    0.465511 0.885382 0.293617 0.165801
H14   H     H_    0.434039 0.326577 0.246923 0.212087
H15   H     H_    0.381726 0.181059 0.128711 0.148938
H16   H     H_    0.434890 0.328007 0.754061 0.204217
H17   H     H_    0.650925 0.457563 0.716694 0.175405
H18   H     H_    0.738908 0.449198 0.719193 0.136825
H19   H     H_    0.956673 0.156611 0.571822 0.166149
N1    N     N_R   0.200810 0.469730 0.555892 -0.332791
N2    N     N_R   0.797789 0.480494 0.509502 -0.351429
N3    N     N_R   0.499540 0.498800 0.142780 -0.144478
N4    N     N_R   0.499520 0.498720 0.857170 -0.150127
O1    O     O_R   0.500000 0.316780 0.614690 -0.650878
O2    O     O_2   0.786984 0.261353 0.517472 -0.577506
O3    O     O_2   0.207128 0.688252 0.592081 -0.558160
O4    O     O_2   0.804217 0.701710 0.509257 -0.579708
O5    O     O_R   0.500000 0.316750 0.385360 -0.628637
O6    O     O_R   0.428760 0.500030 0.614650 -0.645915
O7    O     O_R   0.428750 0.500010 0.385320 -0.638177
O8    O     O_R   0.500000 0.683250 0.614640 -0.588075
O9    O     O_R   0.500000 0.683220 0.385310 -0.626224
O10   O     O_R   0.571250 0.499990 0.614680 -0.583881
O11   O     O_R   0.571240 0.499970 0.385350 -0.645396
O12   O     O_2   0.198157 0.252309 0.521810 -0.558609
Zn1   Zn    Zn3+2 0.500000 0.500020 0.653130 0.948317
Zn2   Zn    Zn3+2 0.500000 0.499980 0.346870 0.918823
I1    I     I_    0.220989 0.541648 0.249274 -0.304089
I2    I     I_    0.254032 0.402632 0.838483 -0.367893
C59   C     C_3   0.564353 0.678930 0.140421 -0.349878
C60   C     C_3   0.549294 0.814781 0.123164 -0.370829
C61   C     C_3   0.578274 0.905633 0.215761 -0.827083
H20   H     H_    0.572975 0.877438 0.322726 0.274235
H21   H     H_    0.617377 0.906525 0.191577 0.267710
H22   H     H_    0.566133 0.002481 0.201296 0.248507
H23   H     H_    0.554610 0.850245 0.019452 0.255717
H24   H     H_    0.510387 0.816368 0.144053 0.219819
H25   H     H_    0.566016 0.661086 0.247371 0.273313
H26   H     H_    0.601959 0.671108 0.105036 0.189626
C62   C     C_3   0.372762 0.153310 0.847245 -0.413305
C63   C     C_3   0.342996 0.052073 0.928180 -0.360588
C64   C     C_3   0.314576 0.960422 0.835390 -0.782986
H27   H     H_    0.289207 0.011737 0.771332 0.279137
H28   H     H_    0.339649 0.911148 0.770296 0.254615
H29   H     H_    0.293353 0.888680 0.896610 0.261725
H30   H     H_    0.367546 0.997641 0.991524 0.220155
H31   H     H_    0.317033 0.097675 0.993861 0.245061
H32   H     H_    0.347674 0.208857 0.786714 0.217583
H33   H     H_    0.395991 0.105028 0.775847 0.212557
I3    I     I_    0.584340 0.696101 0.819450 -0.370702
C65   C     C_3   0.112792 0.109858 0.591182 -0.351798
C66   C     C_3   0.130457 0.113963 0.738269 -0.343280
C67   C     C_3   0.146837 0.986612 0.785959 -0.801215
H34   H     H_    0.115802 0.915039 0.785833 0.251066
H35   H     H_    0.175986 0.955568 0.720189 0.283118
H36   H     H_    0.161124 0.994994 0.890230 0.268332
H37   H     H_    0.161164 0.185233 0.750818 0.268452
H38   H     H_    0.100602 0.141112 0.804068 0.228820
H39   H     H_    0.083038 0.034751 0.586319 0.199031
H40   H     H_    0.141027 0.079508 0.522356 0.264153
C68   C     C_3   0.865111 0.112507 0.505720 -0.333974
C69   C     C_3   0.851037 0.096739 0.356656 -0.328342
C70   C     C_3   0.821446 0.972963 0.332209 -0.758075
H41   H     H_    0.843790 0.891986 0.352503 0.269347
H42   H     H_    0.788942 0.965735 0.397379 0.293760
H43   H     H_    0.809495 0.968843 0.225519 0.238592
H44   H     H_    0.829739 0.175582 0.320951 0.250937
H45   H     H_    0.884434 0.098413 0.295000 0.230904
H46   H     H_    0.889204 0.036023 0.531920 0.172569
H47   H     H_    0.833889 0.095723 0.574147 0.249677
I4    I     I_    0.019139 0.100050 0.372341 -0.441753
C71   C     C_3   0.342581 0.558707 0.254584 -0.351408
C72   C     C_3   0.362638 0.696718 0.257680 -0.295375
C73   C     C_3   0.387134 0.735575 0.125444 -0.899147
H48   H     H_    0.418554 0.678096 0.107643 0.267331
H49   H     H_    0.361203 0.723742 0.040200 0.277205
H50   H     H_    0.400153 0.836328 0.130818 0.225532
H51   H     H_    0.332469 0.758557 0.275385 0.235132
H52   H     H_    0.389244 0.712032 0.340695 0.218862
H53   H     H_    0.369874 0.494755 0.221164 0.227434
H54   H     H_    0.315363 0.549605 0.173208 0.232047

loop_
_geom_bond_atom_site_label_1
_geom_bond_atom_site_label_2
_ccdc_geom_bond_type
C10   C27   A    
C21   C26   A    
O6    Zn1   S    
O1    Zn1   S    
C41   C42   A    
C69   H44   S    
C7    C55   A    
C70   H43   S    
C45   O12   S    
C71   H53   S    
C36   H9    S    
O9    Zn2   S    
C53   C54   A    
C56   C57   A    
C40   C46   A    
C21   H18   S    
C28   C29   A    
C36   C37   A    
C32   H3    S    
C50   H16   S    
C5    C6    A    
C66   H38   S    
C9    C22   A    
C35   H7    S    
C15   C16   A    
C37   H10   S    
C62   C63   S    
C44   H13   S    
C18   C19   A    
C14   H19   S    
O8    Zn1   S    
C64   H27   S    
C67   H36   S    
C8    C58   A    
C34   O10   A    
C68   H47   S    
C60   C61   S    
C2    I2    S    
C16   C17   A    
C23   O8    A    
C45   N1    A    
C51   N4    A    
C20   N2    A    
C8    C12   S    
C65   H40   S    
C60   H23   S    
C38   H11   S    
C23   C46   S    
C21   C22   A    
C27   C30   A    
C73   H50   S    
C36   C41   A    
C22   H17   S    
C4    C7    A    
C48   H15   S    
C4    C28   A    
C44   C46   A    
C17   C18   A    
C49   C62   S    
C34   O11   A    
C60   H24   S    
C7    C31   A    
C12   O7    A    
C51   C52   A    
C53   N3    A    
C24   C25   A    
C10   C14   A    
C39   C40   A    
C55   N1    A    
C72   H52   S    
C66   H37   S    
C70   H42   S    
C1    O1    A    
C5    C45   A    
O11   Zn2   S    
C59   H26   S    
C57   C71   S    
C25   H6    S    
C31   H2    S    
C43   C44   A    
C37   C38   A    
C8    C57   A    
C3    C56   A    
C47   C48   A    
C15   C68   S    
C33   H5    S    
C61   H21   S    
C50   C51   A    
C23   O9    A    
C16   C20   A    
C71   C72   S    
N3    Zn2   S    
C19   N2    A    
C64   H29   S    
C67   H34   S    
C63   H30   S    
C72   H51   S    
C40   C41   A    
C6    C30   A    
C11   C32   A    
C49   C50   A    
C54   I3    S    
C9    C34   S    
C31   C35   A    
C58   H1    S    
C42   C43   A    
C70   H41   S    
C6    C65   S    
C67   H35   S    
C66   C67   S    
C68   C69   S    
C1    O5    A    
C56   I1    S    
C48   C49   A    
C24   H4    S    
C30   I4    S    
C12   O6    A    
C14   C15   A    
C62   H33   S    
C69   H45   S    
C4    C5    A    
C19   O4    S    
C10   C13   A    
C65   C66   S    
C2    C58   A    
C9    C24   A    
C47   C52   A    
C53   C59   S    
C29   C35   A    
C26   N2    S    
C59   H25   S    
C13   C17   A    
C32   C33   A    
C62   H32   S    
C69   C70   S    
C25   C26   A    
C52   N3    A    
C72   C73   S    
O10   Zn1   S    
N4    Zn1   S    
C11   C13   A    
C38   C39   A    
C43   H8    S    
C61   H20   S    
C39   H12   S    
C2    C3    A    
C73   H49   S    
C61   H22   S    
C18   C33   A    
C64   H28   S    
C47   H14   S    
O7    Zn2   S    
O5    Zn2   S    
C63   H31   S    
C1    C42   S    
C68   H46   S    
C11   C29   A    
C59   C60   S    
C20   O2    S    
C27   C28   A    
C73   H48   S    
C55   O3    S    
C63   C64   S    
C3    N1    S    
C71   H54   S    
C54   N4    A    
C65   H39   S    
