data_mof_unit_37533.cif
_audit_creation_date              2013-03-05T15:41:38-0500
_audit_creation_method            fapswitch 2.2
_symmetry_space_group_name_H-M    P1
_symmetry_Int_Tables_number       1
_space_group_crystal_system       triclinic
_cell_length_a                    7.804674
_cell_length_b                    8.568994
_cell_length_c                    15.709371
_cell_angle_alpha                 91.181289
_cell_angle_beta                  85.677392
_cell_angle_gamma                 93.418898
_cell_volume                      1045.62430952

loop_
_atom_site_label
_atom_site_type_symbol
_atom_site_description
_atom_site_fract_x
_atom_site_fract_y
_atom_site_fract_z
_atom_type_partial_charge
O1    O     O_R   0.389240 0.738570 0.505550 -0.613450
O2    O     O_R   0.678400 0.711630 0.491050 -0.591345
C1    C     C_R   0.545487 0.794533 0.497969 0.959943
O3    O     O_R   0.355360 0.513470 0.630110 -0.580433
O4    O     O_R   0.644510 0.486530 0.615610 -0.564255
C2    C     C_R   0.501748 0.500197 0.661499 0.910177
Zn1   Zn    Zn3+2 0.306930 0.517990 0.509680 1.032471
Zn2   Zn    Zn3+2 0.693070 0.482010 0.490320 1.024366
O5    O     O_R   0.321600 0.288370 0.508950 -0.629330
O6    O     O_R   0.610760 0.261430 0.494450 -0.618273
O7    O     O_R   0.355490 0.513470 0.384390 -0.643964
O8    O     O_R   0.644640 0.486530 0.369890 -0.627881
C3    C     C_R   0.454521 0.205467 0.502258 0.945797
C4    C     C_R   0.498294 0.499890 0.338476 0.878069
C5    C     C_3   0.323022 0.535424 0.956084 -0.441332
C6    C     C_3   0.635210 0.625344 0.948373 -0.331166
C7    C     C_3   0.635447 0.621694 0.046463 -0.392059
H1    H     H_    0.283903 0.652454 0.080278 0.182821
H2    H     H_    0.288584 0.651746 0.934504 0.205336
H3    H     H_    0.766841 0.610385 0.918465 0.231237
H4    H     H_    0.598800 0.742545 0.929113 0.189687
H5    H     H_    0.608504 0.739432 0.073765 0.173317
H6    H     H_    0.765332 0.593788 0.064486 0.190918
C8    C     C_1   0.494807 0.499617 0.249664 -0.169630
C9    C     C_3   0.504598 0.497354 0.917101 0.179629
C10   C     C_3   0.319344 0.535773 0.054487 -0.402581
C11   C     C_3   0.498002 0.497767 0.082689 0.296005
C12   C     C_3   0.544072 0.334515 0.046967 -0.456084
C13   C     C_3   0.544407 0.332368 0.948272 0.191643
C14   C     C_1   0.494811 0.498931 0.174266 -0.097484
C15   C     C_1   0.506241 0.498516 0.825555 -0.029618
C16   C     C_1   0.505384 0.499373 0.750238 -0.054198
H7    H     H_    0.437893 0.248306 0.930348 0.109696
H8    H     H_    0.448027 0.243519 0.073516 0.149768
H9    H     H_    0.224243 0.447411 0.934314 0.224680
H10   H     H_    0.218922 0.447814 0.080189 0.187614
H11   H     H_    0.671306 0.305214 0.067853 0.206190
C17   C     C_2   0.569495 0.957954 0.496933 -0.342891
H12   H     H_    0.700936 0.008529 0.490508 0.196325
C18   C     C_2   0.430533 0.042048 0.503689 -0.358692
H13   H     H_    0.299096 0.991458 0.510180 0.203304
N1    N     N_2   0.950340 0.457950 0.477370 -0.154878
H14   H     H_    0.013676 0.399369 0.427750 0.157956
N2    N     N_2   0.049660 0.542050 0.522630 0.027875
N3    N     N_R   0.972656 0.603524 0.597166 0.335771
O9    O     O_R   0.981848 0.530529 0.668307 -0.340034
O10   O     O_R   0.941516 0.750966 0.600588 -0.379701
N4    N     N_R   0.706476 0.277328 0.908045 0.220650
O11   O     O_R   0.702939 0.157275 0.855999 -0.373339
O12   O     O_R   0.854651 0.340774 0.927181 -0.418625

loop_
_geom_bond_atom_site_label_1
_geom_bond_atom_site_label_2
_geom_bond_distance
_ccdc_geom_bond_type
C9    C15   1.437457 S    
O4    Zn2   1.976160 S    
C2    C16   1.396636 S    
C5    C10   1.543905 S    
C18   H13   1.087960 S    
C6    H4    1.113748 S    
C15   C16   1.183889 T    
H1    C10   1.113431 S    
C6    H3    1.110425 S    
Zn2   O8    1.958607 S    
N4    O12   1.301547 A    
O2    C1    1.288514 A    
C12   H8    1.113741 S    
Zn1   N2    2.025255 S    
C11   C14   1.436805 S    
C5    H2    1.113701 S    
C10   C11   1.549132 S    
C7    H6    1.113515 S    
N1    N2    1.273211 D    
C12   H11   1.113117 S    
O3    Zn1   1.958609 S    
C5    H9    1.113485 S    
C12   C13   1.549972 S    
C17   C18   1.333970 D    
Zn2   N1    2.025255 S    
Zn1   O7    1.976160 S    
N3    O10   1.300018 A    
C9    C13   1.561705 S    
O4    C2    1.290679 A    
O7    C4    1.291053 A    
C8    C14   1.184342 T    
C5    C9    1.551066 S    
N1    H14   1.029239 S    
C13   N4    1.469737 S    
C7    C11   1.548963 S    
C13   H7    1.115674 S    
C10   H10   1.113458 S    
C17   H12   1.087911 S    
N2    N3    1.384186 S    
O3    C2    1.290019 A    
C4    C8    1.397447 S    
C6    C9    1.550244 S    
Zn1   O5    1.977493 S    
O5    C3    1.288528 A    
N4    O11   1.301103 A    
C3    C18   1.402104 S    
O1    C1    1.281382 A    
O1    Zn1   1.960485 S    
Zn2   O6    1.960485 S    
O2    Zn2   1.977494 S    
C7    H5    1.113514 S    
C1    C17   1.401983 S    
O8    C4    1.290003 A    
C6    C7    1.542035 S    
C11   C12   1.548655 S    
O6    C3    1.281432 A    
N3    O9    1.300633 A    
