data_mof_unit_39485.cif
_audit_creation_date              2012-12-10T18:11:38-0500
_audit_creation_method            fapswitch 2.2
_symmetry_space_group_name_H-M    P1
_symmetry_Int_Tables_number       1
_space_group_crystal_system       triclinic
_cell_length_a                    10.524715
_cell_length_b                    12.615225
_cell_length_c                    13.002421
_cell_angle_alpha                 81.992113
_cell_angle_beta                  90.361994
_cell_angle_gamma                 102.087829
_cell_volume                      1671.14942057

loop_
_atom_site_label
_atom_site_type_symbol
_atom_type_description
_atom_site_fract_x
_atom_site_fract_y
_atom_site_fract_z
_atom_type_partial_charge
C1    C     C_R   0.487325 0.438306 0.692010 0.932652
C2    C     C_3   0.063904 0.597530 0.517818 0.392667
C3    C     C_3   0.963267 0.520979 0.594460 -0.286186
C4    C     C_3   0.876349 0.499505 0.500743 -0.128875
C5    C     C_R   0.718615 0.685799 0.072178 -0.123767
C6    C     C_R   0.549215 0.598379 0.199367 -0.214960
C7    C     C_R   0.392657 0.298317 0.841943 0.273434
C8    C     C_R   0.373675 0.267186 0.950645 0.251831
C9    C     C_R   0.439308 0.336978 0.018686 0.491132
C10   C     C_R   0.514507 0.441136 0.977615 -0.028238
C11   C     C_R   0.552544 0.460965 0.872615 -0.125666
C12   C     C_R   0.741790 0.500097 0.500302 0.929917
C13   C     C_R   0.557188 0.525589 0.038468 0.025263
C14   C     C_R   0.667611 0.609487 0.005494 0.023382
C15   C     C_R   0.724013 0.615432 0.906823 0.444722
C16   C     C_R   0.663158 0.543426 0.839694 -0.248359
C17   C     C_R   0.487465 0.532996 0.127729 0.481378
C18   C     C_R   0.662855 0.676993 0.170668 -0.227533
C19   C     C_R   0.480016 0.397081 0.803514 -0.176277
C20   C     C_R   0.301972 0.087767 0.356785 0.376428
C21   C     C_R   0.654547 0.799333 0.629503 0.053119
C22   C     C_R   0.684695 0.903119 0.658707 -0.230750
C23   C     C_R   0.516840 0.561305 0.308469 0.870842
C24   C     C_R   0.624001 0.984069 0.610347 -0.164750
C25   C     C_R   0.533092 0.961482 0.531297 0.044117
C26   C     C_R   0.505957 0.854419 0.504877 0.193682
C27   C     C_R   0.467994 0.040213 0.478429 -0.129393
C28   C     C_R   0.371990 0.009548 0.403469 -0.021139
C29   C     C_R   0.352307 0.903881 0.374739 0.426800
C30   C     C_R   0.418607 0.828247 0.426517 -0.247673
C31   C     C_R   0.496148 0.149691 0.496347 -0.023609
C32   C     C_R   0.337980 0.194697 0.376965 0.009152
C33   C     C_R   0.258133 0.499983 0.499715 0.927623
C34   C     C_3   0.933230 0.399936 0.482965 -0.224104
C35   C     C_3   0.023281 0.422105 0.576263 -0.239269
C36   C     C_3   0.123339 0.500493 0.500276 -0.097228
C37   C     C_3   0.034604 0.479341 0.409006 0.334987
C38   C     C_3   0.976513 0.576563 0.426032 0.313515
N1    N     N_R   0.432930 0.222190 0.444670 -0.139953
N2    N     N_R   0.566370 0.776980 0.554790 -0.120431
O1    O     O_R   0.467970 0.366730 0.627150 -0.562857
O2    O     O_R   0.510820 0.544830 0.662520 -0.626171
O3    O     O_R   0.664630 0.410960 0.482340 -0.636168
O4    O     O_R   0.707470 0.589060 0.517710 -0.618614
O5    O     O_R   0.489180 0.455170 0.337480 -0.566765
O6    O     O_R   0.532030 0.633270 0.372850 -0.640292
O7    O     O_R   0.292530 0.410940 0.482290 -0.599088
O8    O     O_R   0.335370 0.589040 0.517660 -0.599764
Zn1   Zn    Zn3+2 0.471390 0.381080 0.476380 0.999562
Zn2   Zn    Zn3+2 0.528610 0.618920 0.523620 0.960255
H1    H     H_    0.046853 0.359043 0.637534 0.191035
O9    O     O_3   0.358849 0.478335 0.142263 -0.702646
H2    H     H_    0.317852 0.506957 0.197948 0.348720
O10   O     O_3   0.328790 0.233621 0.772211 -0.744641
H3    H     H_    0.318087 0.155776 0.802785 0.348724
O11   O     O_3   0.438477 0.303292 0.124771 -0.709645
H4    H     H_    0.391227 0.226251 0.141488 0.397064
O12   O     O_3   0.287590 0.172761 0.992503 -0.732318
H5    H     H_    0.215867 0.156382 0.943713 0.360052
H6    H     H_    0.705281 0.549989 0.762776 0.132191
H7    H     H_    0.287289 0.256139 0.341143 0.202139
O13   O     O_3   0.273509 0.877041 0.292616 -0.726688
H8    H     H_    0.271482 0.800251 0.282409 0.329858
O14   O     O_3   0.196880 0.063006 0.294357 -0.687947
H9    H     H_    0.139612 0.995315 0.329713 0.374472
H10   H     H_    0.568430 0.180800 0.549627 0.139266
H11   H     H_    0.701036 0.735880 0.666608 0.128062
H12   H     H_    0.876637 0.319118 0.467835 0.180493
H13   H     H_    0.649536 0.062529 0.637343 0.140630
H14   H     H_    0.754288 0.920641 0.718953 0.174417
H15   H     H_    0.400909 0.749000 0.403217 0.205475
O15   O     O_3   0.076779 0.459009 0.313341 -0.757896
H16   H     H_    0.998234 0.448939 0.270339 0.360189
O16   O     O_3   0.947231 0.656024 0.348744 -0.757617
H17   H     H_    0.031202 0.691332 0.312657 0.358506
O17   O     O_3   0.134841 0.700149 0.534829 -0.741715
H18   H     H_    0.069243 0.745061 0.541205 0.343178
H19   H     H_    0.930378 0.539012 0.669883 0.159553
H20   H     H_    0.711460 0.727926 0.225771 0.213620
O18   O     O_3   0.834243 0.694481 0.875981 -0.776237
H21   H     H_    0.861404 0.686479 0.805068 0.324546
H22   H     H_    0.804956 0.748677 0.050626 0.216580

loop_
_geom_bond_atom_site_label_1
_geom_bond_atom_site_label_2
_ccdc_geom_bond_type
C31   H10   S    
C23   O5    A    
C34   C37   S    
C35   C36   S    
C30   H15   S    
C7    C8    A    
O7    Zn1   S    
C11   C19   A    
C29   C30   A    
C36   C37   S    
C37   C38   S    
C32   H7    S    
C12   O3    A    
C38   O16   S    
O18   H21   S    
O4    Zn2   S    
C15   C16   A    
C33   C36   S    
O11   H4    S    
C34   C35   S    
C16   H6    S    
C32   N1    A    
C8    O12   S    
O10   H3    S    
C18   H20   S    
O5    Zn1   S    
C4    C12   S    
C9    C10   A    
O8    Zn2   S    
C23   O6    A    
C13   C14   A    
C21   H11   S    
C17   O9    S    
O1    Zn1   S    
C24   H13   S    
C6    C18   A    
C4    C34   S    
C1    C19   S    
O16   H17   S    
C27   C31   A    
C24   C25   A    
C34   H12   S    
C8    C9    A    
C5    C18   A    
C20   C28   A    
C25   C26   A    
C20   O14   S    
O13   H8    S    
C11   C16   A    
C2    C38   S    
C15   O18   S    
C3    C35   S    
C9    O11   S    
O17   H18   S    
C5    C14   A    
O2    Zn2   S    
C1    O1    A    
N1    Zn1   S    
C4    C38   S    
C26   C30   A    
C7    C19   A    
C35   H1    S    
C33   O7    A    
C22   C24   A    
C3    C4    S    
C2    O17   S    
O9    H2    S    
C20   C32   A    
C2    C36   S    
C6    C17   A    
C29   O13   S    
C28   C29   A    
O3    Zn1   S    
O15   H16   S    
C10   C13   A    
C25   C27   A    
O6    Zn2   S    
C13   C17   A    
O14   H9    S    
C2    C3    S    
O12   H5    S    
C12   O4    A    
C5    H22   S    
C26   N2    A    
C21   N2    A    
N2    Zn2   S    
C6    C23   S    
C31   N1    A    
C10   C11   A    
C1    O2    A    
C37   O15   S    
C27   C28   A    
C33   O8    A    
C14   C15   A    
C7    O10   S    
C21   C22   A    
C3    H19   S    
C22   H14   S    
