data_mof_unit_13672.cif
_audit_creation_date              2012-12-11T14:34:09-0500
_audit_creation_method            fapswitch 2.2
_symmetry_space_group_name_H-M    P1
_symmetry_Int_Tables_number       1
_space_group_crystal_system       triclinic
_cell_length_a                    14.1897
_cell_length_b                    14.159212
_cell_length_c                    27.337621
_cell_angle_alpha                 90.156107
_cell_angle_beta                  89.924067
_cell_angle_gamma                 120.512305
_cell_volume                      4731.91394563

loop_
_atom_site_label
_atom_site_type_symbol
_atom_type_description
_atom_site_fract_x
_atom_site_fract_y
_atom_site_fract_z
_atom_type_partial_charge
C1    C     C_R   0.232770 0.789105 0.567879 0.564050
C2    C     C_1   0.704208 0.849950 0.860475 0.063315
C3    C     C_1   0.140786 0.847471 0.858946 0.075343
C4    C     C_1   0.158285 0.311730 0.864154 0.057310
C5    C     C_1   0.642864 0.805738 0.656446 0.056207
C6    C     C_1   0.173338 0.831803 0.653337 0.056275
C7    C     C_1   0.184665 0.385848 0.661575 0.081167
C8    C     C_1   0.610338 0.795485 0.614738 0.102097
C9    C     C_1   0.194900 0.814705 0.612454 0.113717
C10   C     C_1   0.196555 0.408276 0.618564 0.112116
C11   C     C_R   0.105936 0.220641 0.088403 0.541464
C12   C     C_R   0.213464 0.450063 0.569542 0.556008
C13   C     C_R   0.779314 0.884822 0.088396 0.542718
C14   C     C_R   0.114685 0.894004 0.088477 0.543911
C15   C     C_R   0.107013 0.220655 0.951437 0.568816
C16   C     C_R   0.780254 0.886102 0.950844 0.566311
C17   C     C_R   0.112762 0.893534 0.950280 0.568905
C18   C     C_R   0.572735 0.858299 0.354184 -0.128750
C19   C     C_R   0.140296 0.713242 0.354127 -0.135441
C20   C     C_R   0.286671 0.431420 0.353777 -0.125853
C21   C     C_R   0.601673 0.876600 0.305380 0.020694
C22   C     C_R   0.121195 0.723631 0.305407 0.020139
C23   C     C_R   0.554359 0.765841 0.568347 0.556729
C24   C     C_R   0.276379 0.401838 0.305046 0.020077
C25   C     C_R   0.652692 0.900940 0.205783 0.023320
C26   C     C_R   0.096301 0.750176 0.205868 0.023674
C27   C     C_R   0.249803 0.349591 0.205546 0.021416
C28   C     C_R   0.235242 0.787378 0.430932 0.546653
C29   C     C_R   0.212547 0.448195 0.430957 0.549811
C30   C     C_R   0.552103 0.764786 0.431003 0.546645
C31   C     C_R   0.575844 0.926412 0.223843 -0.122537
C32   C     C_R   0.070118 0.647072 0.223745 -0.120143
C33   C     C_R   0.352395 0.429176 0.223386 -0.120960
C34   C     C_3   0.604343 0.711404 0.792988 -0.179511
C35   C     C_R   0.551567 0.915834 0.273673 -0.098851
C36   C     C_R   0.080956 0.633432 0.273533 -0.102190
C37   C     C_R   0.366076 0.454115 0.273180 -0.096170
C38   C     C_R   0.674939 0.906402 0.155787 -0.146857
C39   C     C_R   0.091268 0.767100 0.155861 -0.146560
C40   C     C_R   0.232679 0.327185 0.155561 -0.146981
C41   C     C_R   0.750706 0.878475 0.139215 0.010836
C42   C     C_R   0.120342 0.871703 0.139405 0.010221
C43   C     C_R   0.128510 0.249127 0.139206 0.011943
C44   C     C_R   0.678934 0.766395 0.364397 0.256223
C45   C     C_3   0.264197 0.860433 0.788552 -0.126647
C46   C     C_R   0.233823 0.913062 0.364532 0.223674
C47   C     C_R   0.087511 0.320093 0.364271 0.226694
C48   C     C_R   0.729622 0.811481 0.319410 0.052045
C49   C     C_R   0.187975 0.918328 0.319783 0.030692
C50   C     C_R   0.082670 0.269178 0.319436 0.031294
C51   C     C_R   0.680329 0.852976 0.287866 -0.001128
C52   C     C_R   0.145240 0.826611 0.288109 0.007027
C53   C     C_R   0.173962 0.320291 0.287768 0.004663
C54   C     C_R   0.825959 0.814666 0.303835 0.326942
C55   C     C_R   0.185763 0.012195 0.304430 0.291459
C56   C     C_3   0.064388 0.342009 0.793655 -0.157556
C57   C     C_R   0.989610 0.171095 0.304077 0.291062
C58   C     C_R   0.852901 0.828403 0.254480 -0.104209
C59   C     C_R   0.171569 0.025239 0.255122 -0.117461
C60   C     C_R   0.976538 0.143412 0.254769 -0.119014
C61   C     C_R   0.790076 0.848544 0.221503 -0.056512
C62   C     C_R   0.150234 0.941473 0.221944 -0.056602
C63   C     C_R   0.059650 0.207593 0.221638 -0.056339
C64   C     C_3   0.622600 0.889893 0.730855 0.121206
C65   C     C_3   0.067718 0.726849 0.726858 0.115591
C66   C     C_3   0.275634 0.465991 0.741263 0.088205
C67   C     C_3   0.592688 0.697654 0.736114 0.111834
C68   C     C_R   0.707998 0.868070 0.238408 0.039602
C69   C     C_R   0.129811 0.839084 0.238677 0.041769
C70   C     C_R   0.161511 0.292014 0.238359 0.040710
C71   C     C_R   0.810907 0.853923 0.172077 -0.126179
C72   C     C_R   0.145340 0.957103 0.172465 -0.127868
C73   C     C_R   0.043857 0.186612 0.172197 -0.127031
C74   C     C_R   0.607086 0.800224 0.383738 -0.005459
C75   C     C_R   0.199581 0.806690 0.383732 -0.000245
C76   C     C_R   0.193459 0.394242 0.383481 0.001615
C77   C     C_3   0.782638 0.862273 0.724123 -0.225411
C78   C     C_3   0.273191 0.868930 0.731583 0.161502
C79   C     C_3   0.129381 0.924143 0.724044 -0.210757
C80   C     C_3   0.177754 0.263271 0.727207 -0.222672
C81   C     C_3   0.794994 0.871631 0.780842 0.078162
C82   C     C_3   0.137849 0.934089 0.781080 0.097440
C83   C     C_3   0.169587 0.244357 0.783129 0.099255
C84   C     C_1   0.732744 0.867184 0.902788 0.066965
C85   C     C_1   0.128552 0.862561 0.901684 0.081000
C86   C     C_1   0.141667 0.276066 0.905285 0.066127
C87   C     C_3   0.661218 0.812381 0.710239 -0.024088
C88   C     C_3   0.161481 0.839564 0.707163 -0.057148
C89   C     C_3   0.069042 0.360209 0.737274 0.176747
C90   C     C_3   0.175112 0.368218 0.715174 -0.033897
C91   C     C_3   0.637858 0.904337 0.787575 0.133850
C92   C     C_3   0.062312 0.727584 0.784206 0.116190
C93   C     C_3   0.271508 0.446951 0.798107 0.112127
C94   C     C_3   0.684035 0.833424 0.807002 0.002392
C95   C     C_3   0.151164 0.841247 0.804804 -0.041103
C96   C     C_3   0.166071 0.337531 0.811328 -0.014453
Cl1   Cl    Cl    0.485828 0.839677 0.711484 -0.487952
Cl2   Cl    Cl    0.855167 0.796217 0.803347 -0.661449
Cl3   Cl    Cl    0.248837 0.065019 0.800231 -0.541341
Cl4   Cl    Cl    0.052794 0.114329 0.797466 -0.627971
Cl5   Cl    Cl    0.070575 0.612153 0.700854 -0.465570
Cl6   Cl    Cl    0.287252 0.593946 0.724881 -0.488757
Cl7   Cl    Cl    0.517251 0.877913 0.821014 -0.489443
Cl8   Cl    Cl    0.069021 0.617053 0.812958 -0.481090
Cl9   Cl    Cl    0.284547 0.558953 0.834706 -0.485277
Cl10  Cl    Cl    0.925587 0.825712 0.345701 -0.447448
Cl11  Cl    Cl    0.178055 0.102667 0.346524 -0.430475
Cl12  Cl    Cl    0.900356 0.071651 0.346222 -0.437999
Cr1   Cr    Cr6+3 0.164410 0.584450 0.499910 1.155647
Cr2   Cr    Cr6+3 0.415550 0.579960 0.499910 1.155863
Cr3   Cr    Cr6+3 0.420040 0.835590 0.499910 1.159953
Cr4   Cr    Cr6+3 0.155170 0.075460 0.019960 1.062627
Cr5   Cr    Cr6+3 0.924540 0.079710 0.019960 1.057388
Cr6   Cr    Cr6+3 0.920290 0.844830 0.019960 1.063379
H1    H     H_    0.698889 0.992034 0.795068 0.143177
H2    H     H_    0.513240 0.878557 0.367567 0.176519
H3    H     H_    0.119660 0.632947 0.367370 0.174407
H4    H     H_    0.366521 0.493224 0.367033 0.174392
H5    H     H_    0.533972 0.953319 0.199479 0.115653
H6    H     H_    0.042656 0.577673 0.199250 0.116089
H7    H     H_    0.421296 0.472831 0.198864 0.119995
H8    H     H_    0.491069 0.934710 0.287129 0.128218
H9    H     H_    0.061689 0.553489 0.286802 0.126764
H10   H     H_    0.445574 0.516853 0.286471 0.142842
H11   H     H_    0.874996 0.839689 0.159041 0.139412
H12   H     H_    0.980892 0.712937 0.794712 0.207683
H13   H     H_    0.160558 0.036096 0.159533 0.138948
H14   H     H_    0.965306 0.120965 0.159217 0.138427
H15   H     H_    0.923504 0.825032 0.242054 0.144362
H16   H     H_    0.176071 0.099954 0.242864 0.146844
H17   H     H_    0.902300 0.071703 0.242456 0.144896
H18   H     H_    0.671949 0.972241 0.713752 0.161179
H19   H     H_    0.988533 0.714829 0.713035 0.173361
H20   H     H_    0.351103 0.470705 0.726893 0.164718
H21   H     H_    0.816643 0.813577 0.708410 0.220682
H22   H     H_    0.176701 0.004301 0.705759 0.227127
H23   H     H_    0.343594 0.439719 0.808160 0.110607
H24   H     H_    0.111780 0.191631 0.707418 0.228802
H25   H     H_    0.831217 0.944781 0.707550 0.157105
H26   H     H_    0.043571 0.895879 0.713023 0.109960
H27   H     H_    0.255808 0.271627 0.713813 0.147980
H28   H     H_    0.850551 0.958559 0.790319 0.214757
H29   H     H_    0.063149 0.929517 0.795301 0.241589
H30   H     H_    0.243938 0.244301 0.795292 0.206934
H31   H     H_    0.505542 0.664537 0.727236 0.209763
H32   H     H_    0.289605 0.804114 0.719480 0.244333
H33   H     H_    0.074184 0.439558 0.731607 0.254721
H34   H     H_    0.633281 0.658622 0.808998 0.190046
H35   H     H_    0.522656 0.682904 0.809462 0.198617
H36   H     H_    0.274843 0.791818 0.801086 0.240469
H37   H     H_    0.060903 0.409481 0.812734 0.212303
H38   H     H_    0.754670 0.550891 0.368085 0.396274
H39   H     H_    0.423788 0.126285 0.320056 0.329623
H40   H     H_    0.874062 0.292262 0.319932 0.327960
H41   H     H_    0.552944 0.476520 0.774191 0.351787
H42   H     H_    0.559562 0.097795 0.731506 0.395780
H43   H     H_    0.875335 0.230925 0.635081 0.385619
H44   H     H_    0.331418 0.934346 0.806474 0.249514
H45   H     H_    0.988095 0.265808 0.804287 0.209517
H46   H     H_    0.632953 0.930338 0.129961 0.109500
H47   H     H_    0.066953 0.700596 0.129920 0.109694
H48   H     H_    0.298596 0.370973 0.129571 0.108450
O1    O     O_R   0.137150 0.468200 0.553200 -0.452249
O2    O     O_R   0.140110 0.470540 0.446010 -0.438176
O3    O     O_R   0.529460 0.669570 0.446010 -0.435818
O4    O     O_R   0.330430 0.859890 0.446010 -0.438970
O5    O     O_R   0.176710 0.690910 0.450560 -0.503809
O6    O     O_R   0.309090 0.485800 0.450560 -0.496466
O7    O     O_R   0.514200 0.823290 0.450560 -0.500579
O8    O     O_3   0.333333 0.666667 0.499990 -0.347778
O9    O     O_R   0.176750 0.985260 0.074180 -0.514063
O10   O     O_R   0.014740 0.191490 0.074180 -0.513701
O11   O     O_R   0.808510 0.823250 0.074180 -0.515534
O12   O     O_R   0.531800 0.668950 0.553200 -0.463325
O13   O     O_R   0.146100 0.172630 0.068980 -0.504748
O14   O     O_R   0.827370 0.973470 0.068980 -0.502006
O15   O     O_R   0.026530 0.853900 0.068980 -0.502482
O16   O     O_3   1.000000 0.000000 0.020040 -0.240225
O17   O     O_R   0.148270 0.170520 0.969620 -0.487173
O18   O     O_R   0.829480 0.977750 0.969620 -0.490462
O19   O     O_R   0.022250 0.851730 0.969620 -0.486791
O20   O     O_2   0.733567 0.673543 0.436649 -0.193019
O21   O     O_2   0.567110 0.551857 0.390215 -0.270290
O22   O     O_3   0.749184 0.607957 0.349571 -0.485111
O23   O     O_R   0.331050 0.862850 0.553200 -0.455131
O24   O     O_2   0.329655 0.063188 0.436469 -0.150113
O25   O     O_2   0.448412 0.016436 0.390356 -0.282022
O26   O     O_3   0.394922 0.143729 0.349601 -0.432788
O27   O     O_2   0.937745 0.262307 0.436213 -0.150302
O28   O     O_2   0.982968 0.428657 0.390666 -0.294443
O29   O     O_3   0.856939 0.245675 0.349380 -0.436637
O30   O     O_2   0.606310 0.581408 0.659887 -0.207042
O31   O     O_2   0.733137 0.618028 0.727382 -0.216645
O32   O     O_3   0.529260 0.471738 0.739751 -0.505424
O33   O     O_2   0.423230 0.984714 0.660907 -0.226465
O34   O     O_R   0.179100 0.982980 0.967000 -0.489343
O35   O     O_2   0.364231 0.091142 0.707799 -0.215281
O36   O     O_3   0.494956 0.041438 0.749648 -0.422794
O37   O     O_2   0.918975 0.147670 0.715692 -0.326075
O38   O     O_2   0.851168 0.272935 0.730588 -0.224213
O39   O     O_3   0.947228 0.288105 0.647974 -0.476300
O40   O     O_R   0.017020 0.196120 0.967000 -0.498942
O41   O     O_R   0.803880 0.820900 0.967000 -0.492986
O42   O     O_R   0.173970 0.688730 0.549930 -0.479012
O43   O     O_R   0.311270 0.485240 0.549930 -0.488936
O44   O     O_R   0.514760 0.826030 0.549930 -0.476304
S1    S     S_3+6 0.681565 0.648209 0.386819 0.081593
S2    S     S_3+6 0.353313 0.034929 0.386674 0.095355
S3    S     S_3+6 0.965464 0.314960 0.386577 0.090482
S4    S     S_3+6 0.619753 0.592657 0.714470 0.030357
S5    S     S_3+6 0.388994 0.000218 0.710950 0.093279
S6    S     S_3+6 0.942219 0.262410 0.708202 0.018046

loop_
_geom_bond_atom_site_label_1
_geom_bond_atom_site_label_2
_ccdc_geom_bond_type
C25   C31   A    
C65   C92   S    
Cr4   O13   S    
H40   O29   S    
C59   H16   S    
C26   C32   A    
C15   O17   A    
C13   O14   A    
C18   C21   A    
O21   S1    D    
C82   Cl3   S    
C66   Cl6   S    
C2    C84   T    
C65   Cl5   S    
C47   C50   A    
C6    C9    T    
C13   C41   S    
C79   C82   S    
C66   C90   S    
C29   C76   S    
C27   C33   A    
C46   S2    S    
C79   H22   S    
C46   C49   A    
O38   S6    D    
O22   S1    S    
C60   C63   A    
C17   C85   S    
C32   C36   A    
C29   O6    A    
C22   C52   A    
O28   S3    D    
C47   C76   A    
C45   H36   S    
C56   H45   S    
C55   C59   A    
C83   H30   S    
C30   C74   S    
Cr2   O3    S    
C26   C39   A    
Cr4   O9    S    
C4    C86   T    
C81   Cl2   S    
C83   C96   S    
C58   H15   S    
C16   O18   A    
C16   C84   S    
C8    C23   S    
C6    C88   S    
C20   C76   A    
C67   S4    S    
C89   H33   S    
O37   S6    D    
C7    C10   T    
C13   O11   A    
C39   C42   A    
C79   C88   S    
C52   C69   A    
Cr1   O5    S    
C28   O5    A    
C93   Cl9   S    
C66   H20   S    
Cr2   O6    S    
C43   C73   A    
C48   C51   A    
Cr4   O34   S    
C64   H18   S    
Cr6   O16   S    
O25   S2    D    
C67   H31   S    
C11   C43   S    
C45   C78   S    
H38   O22   S    
C16   O41   A    
O39   S6    S    
C28   O4    A    
C41   C71   A    
C61   C71   A    
C58   C61   A    
Cr5   O16   S    
C11   O10   A    
C18   C74   A    
C4    C96   S    
C33   H7    S    
C29   O2    A    
C25   C68   A    
C34   H34   S    
C32   H6    S    
C80   C83   S    
C53   C70   A    
C60   H17   S    
C20   H4    S    
C46   C75   A    
C34   H35   S    
Cr5   O10   S    
Cr5   O14   S    
Cr2   O12   S    
Cr3   O23   S    
C50   C53   A    
C54   Cl10  S    
C72   H13   S    
C20   C24   A    
C2    C94   S    
C36   H9    S    
C1    C9    S    
C30   O3    A    
C38   C41   A    
Cr1   O1    S    
C18   H2    S    
C23   O12   A    
C78   H32   S    
C82   H29   S    
C57   C60   A    
C63   C73   A    
C24   C53   A    
C49   C55   A    
C7    C90   S    
C44   S1    S    
C33   C37   A    
C62   C69   A    
C55   Cl11  S    
Cr3   O7    S    
C48   C54   A    
C30   O7    A    
C40   H48   S    
O35   S5    D    
C25   C38   A    
O32   S4    S    
C37   H10   S    
O33   S5    D    
C63   C70   A    
C77   C81   S    
C27   C40   A    
Cr6   O15   S    
O30   S4    D    
C19   C22   A    
C42   C72   A    
C24   C37   A    
C62   C72   A    
Cr3   O4    S    
Cr5   O40   S    
C56   H37   S    
C44   C74   A    
O36   S5    S    
Cr3   O44   S    
C31   H5    S    
C27   C70   A    
C10   C12   S    
O29   S3    S    
Cr4   O17   S    
Cr2   O8    S    
C81   H28   S    
C93   C96   S    
C83   Cl4   S    
C66   C93   S    
C23   O44   A    
C31   C35   A    
C3    C85   T    
Cr6   O11   S    
C39   H47   S    
C45   C95   S    
C21   C51   A    
C15   O40   A    
Cr1   O8    S    
C65   C88   S    
Cr4   O16   S    
C54   C58   A    
C78   C88   S    
C56   C96   S    
C56   C89   S    
O26   S2    S    
C59   C62   A    
C82   C95   S    
C64   C87   S    
C50   C57   A    
C11   O13   A    
C64   Cl1   S    
C35   H8    S    
H42   O36   S    
C45   H44   S    
C34   C94   S    
C49   C52   A    
C91   Cl7   S    
C14   O9    A    
Cr1   O2    S    
C92   H12   S    
C34   C67   S    
C5    C8    T    
C15   C86   S    
C89   S6    S    
C21   C35   A    
H39   O26   S    
C1    O23   A    
Cr6   O19   S    
C22   C36   A    
C67   C87   S    
O24   S2    D    
Cr3   O8    S    
C12   O43   A    
C40   C43   A    
C19   C75   A    
C38   H46   S    
H41   O32   S    
O27   S3    D    
Cr5   O18   S    
C12   O1    A    
C81   C94   S    
C1    O42   A    
C61   C68   A    
O31   S4    D    
C80   H24   S    
C14   C42   S    
O20   S1    D    
C91   H1    S    
C79   H26   S    
Cr2   O43   S    
C51   C68   A    
C92   C95   S    
C80   C90   S    
C14   O15   A    
C93   H23   S    
C92   Cl8   S    
C5    C87   S    
C17   O19   A    
C47   S3    S    
C57   Cl12  S    
H43   O39   S    
C77   C87   S    
C73   H14   S    
C80   H27   S    
C26   C69   A    
Cr6   O41   S    
C71   H11   S    
C17   O34   A    
C3    C95   S    
C77   H21   S    
C64   C91   S    
C89   C90   S    
C28   C75   S    
C78   S5    S    
Cr1   O42   S    
C77   H25   S    
C65   H19   S    
C44   C48   A    
C91   C94   S    
C19   H3    S    
