data_mof_unit_22098.cif
_audit_creation_date              2012-12-10T19:28:39-0500
_audit_creation_method            fapswitch 2.2
_symmetry_space_group_name_H-M    P1
_symmetry_Int_Tables_number       1
_space_group_crystal_system       triclinic
_cell_length_a                    27.671763
_cell_length_b                    10.495816
_cell_length_c                    9.79594
_cell_angle_alpha                 89.282942
_cell_angle_beta                  89.07838
_cell_angle_gamma                 90.257944
_cell_volume                      2844.48829336

loop_
_atom_site_label
_atom_site_type_symbol
_atom_type_description
_atom_site_fract_x
_atom_site_fract_y
_atom_site_fract_z
_atom_type_partial_charge
C1    C     C_R   0.500401 0.258149 0.500877 0.882043
C2    C     C_R   0.872872 0.374848 0.495676 -0.042534
C3    C     C_R   0.353179 0.499709 0.504653 -0.056057
C4    C     C_R   0.646056 0.493820 0.500368 -0.022756
C5    C     C_R   0.974817 0.373416 0.509339 0.036638
C6    C     C_R   0.023912 0.608235 0.549079 0.036252
C7    C     C_R   0.973172 0.601024 0.569246 0.065747
C8    C     C_R   0.025363 0.374046 0.530208 0.067945
C9    C     C_R   0.948686 0.485853 0.539520 0.023678
C10   C     C_R   0.049944 0.492437 0.540110 0.023166
C11   C     C_R   0.949293 0.266927 0.457050 0.073302
C12   C     C_R   0.499807 0.741846 0.499119 0.904857
C13   C     C_R   0.049751 0.725450 0.534659 0.078523
C14   C     C_R   0.898878 0.268505 0.452736 -0.188945
C15   C     C_R   0.100214 0.725534 0.530499 -0.188169
C16   C     C_R   0.406108 0.499449 0.500942 0.856100
C17   C     C_R   0.593649 0.499791 0.499365 0.883045
C18   C     C_R   0.052077 0.260794 0.546014 -0.185205
C19   C     C_R   0.946138 0.703219 0.622369 -0.184972
C20   C     C_3   0.505785 0.038516 0.632368 -0.251298
C21   C     C_3   0.494625 0.961517 0.367825 -0.203836
C22   C     C_3   0.541531 0.957165 0.548373 0.059821
C23   C     C_R   0.100957 0.494641 0.540414 -0.055910
C24   C     C_3   0.458871 0.042738 0.451825 0.067786
C25   C     C_3   0.499819 0.876115 0.496939 -0.047478
C26   C     C_3   0.500600 0.123853 0.503119 -0.045831
C27   C     C_3   0.463914 0.957134 0.577609 0.076499
C28   C     C_3   0.536497 0.042733 0.422601 0.106129
C29   C     C_3   0.485707 0.389178 0.051720 -0.347815
C30   C     C_3   0.514208 0.610721 0.948267 -0.356196
C31   C     C_3   0.528375 0.414379 0.952102 0.580343
C32   C     C_3   0.471561 0.585484 0.047821 0.589156
C33   C     C_3   0.457787 0.476826 0.955697 0.052862
C34   C     C_R   0.897670 0.483764 0.539374 -0.055413
C35   C     C_3   0.542132 0.523013 0.044106 0.045806
C36   C     C_R   0.177490 0.383957 0.541540 0.505478
C37   C     C_R   0.820963 0.588103 0.578461 0.506795
C38   C     C_R   0.176544 0.611375 0.531552 0.518634
C39   C     C_R   0.822366 0.376916 0.490665 0.518362
C40   C     C_R   0.279515 0.543859 0.632138 -0.107278
C41   C     C_R   0.717692 0.402297 0.599158 -0.102129
C42   C     C_R   0.329553 0.543781 0.622932 -0.267087
C43   C     C_R   0.667749 0.406595 0.589702 -0.274754
C44   C     C_R   0.325768 0.456064 0.393605 0.089513
C45   C     C_R   0.126992 0.379676 0.544221 -0.009364
C46   C     C_R   0.674652 0.578023 0.420504 0.074593
C47   C     C_R   0.275307 0.457481 0.404278 -0.145490
C48   C     C_R   0.724877 0.572449 0.429905 -0.151119
C49   C     C_R   0.252440 0.500347 0.523219 0.293526
C50   C     C_R   0.746313 0.485283 0.519438 0.290775
C51   C     C_3   0.574093 0.234625 0.988234 0.083553
C52   C     C_3   0.613086 0.150650 0.926292 -0.833263
C53   C     C_3   0.425597 0.764655 0.010912 0.078507
C54   C     C_3   0.386905 0.849447 0.073041 -0.802524
C55   C     C_R   0.871424 0.591212 0.581981 -0.010552
C56   C     C_R   0.102142 0.263543 0.551750 -0.156341
C57   C     C_R   0.896022 0.698662 0.627821 -0.156663
C58   C     C_R   0.125980 0.611547 0.535944 -0.044515
H1    H     H_    0.510229 0.071619 0.738668 0.170641
H2    H     H_    0.349781 0.578986 0.708482 0.183420
H3    H     H_    0.734194 0.335464 0.669238 0.153952
H4    H     H_    0.261689 0.577239 0.724105 0.149079
H5    H     H_    0.880274 0.186261 0.412703 0.192441
H6    H     H_    0.119078 0.815956 0.520053 0.191665
H7    H     H_    0.034821 0.169095 0.559951 0.163122
H8    H     H_    0.963138 0.785738 0.665707 0.168756
H9    H     H_    0.364696 0.320995 0.297955 0.193567
H10   H     H_    0.323489 0.389317 0.197478 0.172032
H11   H     H_    0.667534 0.664778 0.237372 0.184406
H12   H     H_    0.490207 0.928387 0.261522 0.165811
H13   H     H_    0.663071 0.762502 0.372147 0.197614
H14   H     H_    0.404551 0.982475 0.698556 0.183506
H15   H     H_    0.401178 0.856277 0.595281 0.183649
H16   H     H_    0.596111 0.016980 0.302865 0.191186
H17   H     H_    0.599114 0.144026 0.405008 0.182036
H18   H     H_    0.542658 0.172929 0.017190 0.141571
H19   H     H_    0.588880 0.279434 0.081361 0.177262
H20   H     H_    0.645280 0.209147 0.897318 0.258819
H21   H     H_    0.623838 0.076554 0.001671 0.215740
H22   H     H_    0.599192 0.103285 0.834070 0.244178
H23   H     H_    0.472981 0.298488 0.099846 0.160507
H24   H     H_    0.410411 0.718984 0.918794 0.167958
H25   H     H_    0.456952 0.825976 0.980266 0.140053
H26   H     H_    0.401261 0.898206 0.163871 0.251366
H27   H     H_    0.375751 0.922444 0.996924 0.209092
H28   H     H_    0.354870 0.791272 0.104248 0.265824
H29   H     H_    0.386125 0.443300 0.985007 0.191181
H30   H     H_    0.411268 0.362976 0.855372 0.197935
H31   H     H_    0.613923 0.552752 0.014661 0.186606
H32   H     H_    0.588367 0.640578 0.137493 0.203024
H33   H     H_    0.962222 0.078097 0.442657 0.187053
H34   H     H_    0.526952 0.701416 0.900185 0.150373
H35   H     H_    0.963872 0.158671 0.292120 0.199677
H36   H     H_    0.036415 0.908905 0.582813 0.173056
H37   H     H_    0.036829 0.878862 0.413711 0.199828
H38   H     H_    0.609463 0.982341 0.618602 0.184563
H39   H     H_    0.579711 0.857537 0.688783 0.193248
H40   H     H_    0.390617 0.017506 0.384030 0.190137
H41   H     H_    0.397886 0.146657 0.480835 0.172596
H42   H     H_    0.253536 0.424098 0.320909 0.137404
H43   H     H_    0.747301 0.637156 0.369219 0.147233
H44   H     H_    0.121268 0.174108 0.561324 0.189080
H45   H     H_    0.876664 0.780249 0.667058 0.190406
H46   H     H_    0.645916 0.342161 0.652532 0.181844
N1    N     N_R   0.201006 0.498608 0.533443 -0.352733
N2    N     N_3   0.589751 0.548809 0.097678 -0.417046
N3    N     N_3   0.973955 0.162429 0.394421 -0.473516
N4    N     N_3   0.025523 0.843685 0.509399 -0.479072
N5    N     N_3   0.587013 0.905298 0.596447 -0.462001
N6    N     N_3   0.413643 0.094474 0.401735 -0.468355
N7    N     N_R   0.797655 0.482885 0.530876 -0.351010
N8    N     N_3   0.499960 0.500030 0.863290 -0.108427
N9    N     N_3   0.500040 0.499970 0.136710 -0.109892
N10   N     N_3   0.348959 0.408252 0.272370 -0.418209
N11   N     N_3   0.652905 0.673209 0.335870 -0.458308
N12   N     N_3   0.424082 0.905382 0.660382 -0.465496
N13   N     N_3   0.576403 0.094233 0.339959 -0.462897
N14   N     N_3   0.410037 0.452045 0.901767 -0.438936
O1    O     O_R   0.500000 0.313960 0.616610 -0.605281
O2    O     O_2   0.795291 0.689400 0.621703 -0.562544
O3    O     O_2   0.798121 0.274805 0.444085 -0.563507
O4    O     O_2   0.201146 0.722656 0.523670 -0.556597
O5    O     O_3   0.560490 0.327248 0.890915 -0.601367
O6    O     O_3   0.439510 0.672891 0.108829 -0.589175
O7    O     O_R   0.500000 0.686040 0.383390 -0.599766
O8    O     O_R   0.500020 0.313950 0.383350 -0.612074
O9    O     O_R   0.499980 0.686050 0.616650 -0.620371
O10   O     O_R   0.428750 0.500030 0.616610 -0.621275
O11   O     O_R   0.571250 0.499970 0.383390 -0.593325
O12   O     O_R   0.428770 0.500020 0.383360 -0.561592
O13   O     O_R   0.571230 0.499980 0.616640 -0.592678
O14   O     O_2   0.203002 0.274705 0.546460 -0.558734
Zn1   Zn    Zn3+2 0.499990 0.500010 0.655740 0.986253
Zn2   Zn    Zn3+2 0.500010 0.499990 0.344260 1.007496

loop_
_geom_bond_atom_site_label_1
_geom_bond_atom_site_label_2
_ccdc_geom_bond_type
O7    Zn2   S    
C23   C58   A    
C3    C42   A    
H40   N6    S    
C17   O13   A    
C51   O5    S    
C32   O6    S    
H17   N13   S    
C24   C27   S    
C41   H3    S    
N8    Zn1   S    
C54   H26   S    
C47   C49   A    
C12   O9    A    
C4    C46   A    
C53   C54   S    
C19   C57   A    
C18   H7    S    
C29   H23   S    
H36   N4    S    
O1    Zn1   S    
H15   N12   S    
C46   N11   S    
C23   C45   A    
H9    N10   S    
C24   C26   S    
C5    C11   A    
C28   N13   S    
C36   O14   S    
C11   C14   A    
C14   H5    S    
C40   C49   A    
C29   C33   S    
C40   H4    S    
C19   H8    S    
C1    O1    A    
C43   H46   S    
C21   C25   S    
C38   C58   A    
C2    C39   A    
C45   C56   A    
C22   C25   S    
H31   N2    S    
C31   N8    S    
C32   N9    S    
C52   H21   S    
C16   O12   A    
C44   C47   A    
C18   C56   A    
C27   N12   S    
C2    C34   A    
C40   C42   A    
C44   N10   S    
C33   N14   S    
C22   C28   S    
C41   C43   A    
O12   Zn2   S    
C13   N4    S    
C52   H20   S    
C57   H45   S    
C46   C48   A    
C3    C44   A    
C21   H12   S    
C17   O11   A    
C51   C52   S    
H33   N3    S    
C24   N6    S    
C1    O8    A    
H32   N2    S    
H29   N14   S    
C30   H34   S    
C42   H2    S    
C54   H28   S    
C49   N1    S    
C12   O7    A    
H41   N6    S    
C8    C18   A    
C47   H42   S    
C30   N8    S    
C53   H24   S    
C51   H19   S    
C5    C9    A    
C54   H27   S    
H39   N5    S    
C15   H6    S    
C22   N5    S    
H13   N11   S    
C36   C45   A    
C33   N8    S    
C51   H18   S    
C20   H1    S    
C48   C50   A    
C16   O10   A    
C38   O4    S    
C4    C17   S    
C30   C35   S    
C4    C43   A    
C21   C28   S    
C20   C22   S    
C7    C19   A    
N9    Zn2   S    
C55   C57   A    
C11   N3    S    
C9    C34   A    
C15   C58   A    
C31   C35   S    
H30   N14   S    
C41   C50   A    
C7    C9    A    
H16   N13   S    
C29   N9    S    
H11   N11   S    
C36   N1    A    
O9    Zn1   S    
O13   Zn1   S    
C53   O6    S    
C6    C10   A    
C5    C8    A    
C6    C7    A    
C20   C27   S    
C10   C23   A    
C25   C27   S    
H38   N5    S    
H14   N12   S    
C26   C28   S    
C39   O3    S    
C12   C25   S    
C53   H25   S    
C32   C33   S    
C38   N1    A    
C13   C15   A    
C56   H44   S    
C29   C31   S    
C35   N2    S    
O10   Zn1   S    
H35   N3    S    
C6    C13   A    
C30   C32   S    
C1    C26   S    
C37   O2    S    
C20   C26   S    
C48   H43   S    
C39   N7    A    
C50   N7    S    
C35   N9    S    
C2    C14   A    
C37   N7    A    
H37   N4    S    
C31   O5    S    
O11   Zn2   S    
C37   C55   A    
C34   C55   A    
O8    Zn2   S    
C8    C10   A    
C21   C24   S    
C52   H22   S    
C3    C16   S    
H10   N10   S    
