data_mof_unit_66356.cif
_audit_creation_date              2012-10-26T18:02:47-0400
_audit_creation_method            fapswitch 2.2
_symmetry_space_group_name_H-M    P1
_symmetry_Int_Tables_number       1
_space_group_crystal_system       triclinic
_cell_length_a                    18.372848
_cell_length_b                    18.37516
_cell_length_c                    21.418806
_cell_angle_alpha                 89.936145
_cell_angle_beta                  90.081856
_cell_angle_gamma                 89.950445
_cell_volume                      7231.06045984

loop_
_atom_site_label
_atom_site_type_symbol
_atom_type_description
_atom_site_fract_x
_atom_site_fract_y
_atom_site_fract_z
_atom_type_partial_charge
C1    C     C_R   0.499989 0.139888 0.500073 0.561988
C2    C     C_R   0.139863 0.499979 0.499959 0.552015
C3    C     C_R   0.499441 0.000041 0.879519 0.553760
C4    C     C_R   0.499539 0.999962 0.120499 0.555116
C5    C     C_R   0.999142 0.500052 0.379518 0.553952
C6    C     C_R   0.999465 0.499986 0.620485 0.554648
C7    C     C_R   0.360037 0.000026 0.000019 0.558448
C8    C     C_R   0.860037 0.500025 0.500030 0.558063
C9    C     C_R   0.639733 0.500017 0.500036 0.561278
C10   C     C_R   0.139733 0.000021 0.000035 0.560835
C11   C     C_R   0.499976 0.360259 0.500034 0.559479
C12   C     C_R   0.500039 0.860111 0.499897 0.562623
C13   C     C_R   0.500001 0.639741 0.499960 0.558317
C14   C     C_R   0.999974 0.860259 0.000034 0.558927
C15   C     C_R   0.000007 0.139741 0.999966 0.558449
C16   C     C_R   0.360258 0.500014 0.499961 0.558869
C17   C     C_R   0.860259 0.000014 0.999962 0.557894
C18   C     C_1   0.717410 0.999956 0.999905 -0.069999
C19   C     C_1   0.217410 0.499954 0.499895 -0.070830
C20   C     C_1   0.282709 0.499981 0.499880 -0.067001
C21   C     C_1   0.782709 0.999983 0.999890 -0.066587
C22   C     C_1   0.282528 0.000070 0.000071 -0.053239
C23   C     C_R   0.999989 0.639888 0.000072 0.561674
C24   C     C_1   0.782528 0.500065 0.500081 -0.054074
C25   C     C_R   0.500178 0.000068 0.620508 0.586505
C26   C     C_R   0.500054 0.000465 0.379505 0.594073
C27   C     C_R   0.000175 0.500108 0.120508 0.586808
C28   C     C_R   0.000049 0.500246 0.879500 0.591674
C29   C     C_1   0.717249 0.500053 0.500097 -0.050160
C30   C     C_1   0.217249 0.000059 0.000091 -0.049270
C31   C     C_3   0.464990 0.057852 0.729758 0.248203
C32   C     C_3   0.564814 0.020470 0.269388 0.253980
C33   C     C_3   0.484960 0.934479 0.270361 0.249238
C34   C     C_R   0.000039 0.360112 0.999930 0.562077
C35   C     C_3   0.568114 0.001602 0.730935 0.254698
C36   C     C_3   0.964868 0.558027 0.229673 0.248111
C37   C     C_3   0.065925 0.516009 0.769358 0.253821
C38   C     C_3   0.980487 0.435596 0.770181 0.255622
C39   C     C_3   0.067924 0.501580 0.231091 0.255109
C40   C     C_3   0.533467 0.061545 0.771246 -0.119553
C41   C     C_3   0.551163 0.952593 0.229053 -0.118724
C42   C     C_3   0.033217 0.561563 0.271321 -0.118340
C43   C     C_3   0.047740 0.449287 0.728931 -0.117523
C44   C     C_3   0.499528 0.000184 0.811266 -0.040134
C45   C     C_1   0.499946 0.282716 0.500111 -0.047492
C46   C     C_3   0.499502 0.999903 0.188792 -0.039963
C47   C     C_3   0.999049 0.500254 0.311254 -0.039993
C48   C     C_3   0.999384 0.500012 0.688750 -0.041282
C49   C     C_3   0.430250 0.998113 0.770460 -0.128557
C50   C     C_3   0.514838 0.068151 0.228645 -0.135467
C51   C     C_3   0.433057 0.979922 0.229383 -0.130799
C52   C     C_3   0.535841 0.940441 0.771436 -0.135883
C53   C     C_3   0.929865 0.498371 0.270303 -0.129522
C54   C     C_3   0.019203 0.567020 0.728703 -0.136030
C55   C     C_3   0.931757 0.484482 0.729274 -0.128860
C56   C     C_1   0.500046 0.717282 0.499859 -0.050831
C57   C     C_3   0.035356 0.440467 0.271484 -0.136029
C58   C     C_3   0.467032 0.939133 0.729274 -0.182926
C59   C     C_3   0.449069 0.047709 0.270501 -0.184952
C60   C     C_3   0.966672 0.439323 0.229186 -0.183140
C61   C     C_3   0.952253 0.550909 0.770565 -0.186281
C62   C     C_3   0.500668 0.999792 0.688920 0.082363
C63   C     C_3   0.500212 0.000978 0.311112 0.083822
C64   C     C_3   0.000610 0.499896 0.188922 0.082513
C65   C     C_3   0.000181 0.500745 0.811105 0.081195
C66   C     C_1   0.499947 0.217424 0.500122 -0.038527
C67   C     C_1   0.999942 0.782716 0.000111 -0.047491
C68   C     C_1   0.500077 0.782574 0.499835 -0.039549
C69   C     C_1   0.999944 0.717424 0.000121 -0.038768
C70   C     C_1   0.000080 0.282576 0.999882 -0.037046
C71   C     C_3   0.402634 0.163848 0.750684 0.015403
C72   C     C_3   0.358519 0.225480 0.721189 -0.249992
C73   C     C_3   0.329211 0.277498 0.770633 -0.487772
C74   C     C_3   0.683973 0.052129 0.245133 0.013101
C75   C     C_3   0.741045 0.991512 0.248326 -0.271264
C76   C     C_3   0.796104 0.998055 0.195317 -0.465178
C77   C     C_3   0.455632 0.814889 0.250101 0.014228
C78   C     C_1   0.000053 0.217283 0.999892 -0.046463
C79   C     C_3   0.446576 0.739854 0.279906 -0.248410
C80   C     C_3   0.430631 0.681786 0.230872 -0.490167
C81   C     C_3   0.691176 0.003622 0.756602 0.013650
C82   C     C_3   0.730128 0.077152 0.758072 -0.269627
C83   C     C_3   0.785516 0.080452 0.811218 -0.469811
C84   C     C_3   0.901625 0.663759 0.250001 0.015099
C85   C     C_3   0.860885 0.727240 0.219771 -0.249511
C86   C     C_3   0.830371 0.779198 0.268746 -0.487488
C87   C     C_3   0.186148 0.543021 0.744740 0.013049
C88   C     C_3   0.240489 0.479900 0.744945 -0.272545
C89   C     C_R   0.639863 0.999979 0.999965 0.551857
C90   C     C_3   0.295806 0.487504 0.692234 -0.463896
C91   C     C_3   0.940371 0.318141 0.749241 0.011207
C92   C     C_3   0.859016 0.301809 0.754752 -0.259156
C93   C     C_3   0.834176 0.248080 0.704818 -0.488830
C94   C     C_3   0.190830 0.503243 0.257290 0.013439
C95   C     C_3   0.227830 0.577712 0.260914 -0.266952
C96   C     C_3   0.280098 0.581704 0.316285 -0.471525
Cu1   Cu    Cu3+1 0.427480 0.000000 0.500000 0.972131
Cu2   Cu    Cu3+1 0.500000 0.500000 0.437250 0.927010
Cu3   Cu    Cu3+1 1.000000 0.000000 0.062750 0.931049
Cu4   Cu    Cu3+1 0.000000 0.000000 0.937250 0.934691
Cu5   Cu    Cu3+1 0.927480 0.500000 0.000000 0.970394
Cu6   Cu    Cu3+1 0.572540 0.000000 0.500000 1.017722
Cu7   Cu    Cu3+1 0.072540 0.500000 0.000000 1.019052
Cu8   Cu    Cu3+1 0.499930 0.927480 0.000000 0.925043
Cu9   Cu    Cu3+1 0.499930 0.072520 0.000000 0.921605
Cu10  Cu    Cu3+1 0.999930 0.427480 0.500000 0.923416
Cu11  Cu    Cu3+1 0.999930 0.572520 0.500000 0.922718
Cu12  Cu    Cu3+1 0.500000 0.500000 0.562750 0.929613
H1    H     H_    0.560276 0.111217 0.789582 0.101185
H2    H     H_    0.035997 0.621053 0.710530 0.130040
H3    H     H_    0.876822 0.471149 0.711004 0.112841
H4    H     H_    0.064968 0.392307 0.289906 0.126209
H5    H     H_    0.440211 0.889490 0.710817 0.123575
H6    H     H_    0.407792 0.086355 0.288720 0.128831
H7    H     H_    0.939830 0.389732 0.210648 0.123402
H8    H     H_    0.913626 0.592163 0.788853 0.127505
H9    H     H_    0.449275 0.187901 0.776704 0.133662
H10   H     H_    0.366816 0.133750 0.783754 0.133559
H11   H     H_    0.393494 0.256313 0.688125 0.178919
H12   H     H_    0.592000 0.913697 0.210590 0.095777
H13   H     H_    0.312059 0.202138 0.694626 0.177522
H14   H     H_    0.293844 0.247891 0.804136 0.156189
H15   H     H_    0.296451 0.320674 0.747707 0.144824
H16   H     H_    0.374827 0.303453 0.796386 0.148818
H17   H     H_    0.711646 0.105171 0.252471 0.151641
H18   H     H_    0.659679 0.054369 0.197329 0.118032
H19   H     H_    0.770164 0.994418 0.293778 0.175827
H20   H     H_    0.713920 0.937672 0.245271 0.160835
H21   H     H_    0.768286 0.992923 0.149447 0.161500
H22   H     H_    0.837215 0.953969 0.199382 0.150736
H23   H     H_    0.059623 0.611314 0.289892 0.101695
H24   H     H_    0.824498 0.051332 0.197596 0.154065
H25   H     H_    0.501479 0.812183 0.216180 0.133891
H26   H     H_    0.404484 0.829245 0.224988 0.136864
H27   H     H_    0.497315 0.725096 0.305302 0.181629
H28   H     H_    0.401142 0.741469 0.314097 0.175246
H29   H     H_    0.378429 0.693804 0.206721 0.148685
H30   H     H_    0.426315 0.627759 0.253812 0.149035
H31   H     H_    0.475234 0.679511 0.195967 0.150136
H32   H     H_    0.731998 0.960342 0.747331 0.151479
H33   H     H_    0.667883 0.991834 0.803668 0.116380
H34   H     H_    0.085562 0.407356 0.710619 0.101087
H35   H     H_    0.758541 0.086080 0.712932 0.174305
H36   H     H_    0.689680 0.121472 0.764380 0.161986
H37   H     H_    0.757998 0.072826 0.856917 0.160566
H38   H     H_    0.812723 0.134360 0.811240 0.149330
H39   H     H_    0.827559 0.037554 0.805245 0.157035
H40   H     H_    0.947267 0.686007 0.278413 0.133673
H41   H     H_    0.863218 0.633775 0.280914 0.133560
H42   H     H_    0.898509 0.757665 0.188628 0.179693
H43   H     H_    0.815299 0.705798 0.190999 0.177191
H44   H     H_    0.791903 0.750140 0.300009 0.154971
H45   H     H_    0.373548 0.997131 0.788265 0.114615
H46   H     H_    0.800705 0.824165 0.245183 0.144846
H47   H     H_    0.875198 0.802817 0.297054 0.149322
H48   H     H_    0.216216 0.594406 0.753652 0.151885
H49   H     H_    0.161334 0.548560 0.697336 0.117372
H50   H     H_    0.269685 0.478507 0.790420 0.176358
H51   H     H_    0.210899 0.427679 0.739271 0.159471
H52   H     H_    0.267786 0.486604 0.646250 0.162130
H53   H     H_    0.334983 0.441509 0.694062 0.151313
H54   H     H_    0.326495 0.539259 0.697020 0.154194
H55   H     H_    0.971250 0.266890 0.756934 0.150736
H56   H     H_    0.528093 0.123139 0.210418 0.131447
H57   H     H_    0.953095 0.336392 0.700708 0.130717
H58   H     H_    0.847534 0.278567 0.801654 0.176432
H59   H     H_    0.827471 0.353083 0.749690 0.166203
H60   H     H_    0.843107 0.271251 0.657521 0.158614
H61   H     H_    0.775217 0.236752 0.710619 0.150907
H62   H     H_    0.864646 0.196076 0.709167 0.144897
H63   H     H_    0.232936 0.461478 0.247181 0.151112
H64   H     H_    0.167529 0.488973 0.303837 0.116900
H65   H     H_    0.258430 0.587967 0.217048 0.171969
H66   H     H_    0.186102 0.621012 0.265976 0.165712
H67   H     H_    0.379037 0.962876 0.211349 0.114145
H68   H     H_    0.250436 0.572113 0.360704 0.160435
H69   H     H_    0.305165 0.636578 0.318245 0.148798
H70   H     H_    0.323943 0.540455 0.311359 0.156408
H71   H     H_    0.565690 0.892405 0.789812 0.126121
H72   H     H_    0.873120 0.497489 0.288006 0.113889
O1    O     O_R   0.438760 0.105810 0.500000 -0.506567
O2    O     O_R   0.561260 0.894220 0.500000 -0.508080
O3    O     O_R   0.061260 0.605780 0.000000 -0.504524
O4    O     O_R   0.061260 0.394220 0.000000 -0.507933
O5    O     O_R   0.438760 0.000000 0.591570 -0.503343
O6    O     O_R   0.438760 1.000000 0.408430 -0.516636
O7    O     O_R   0.938760 0.500000 0.091570 -0.503603
O8    O     O_R   0.938760 0.500000 0.908430 -0.515787
O9    O     O_R   0.561260 1.000000 0.591560 -0.476402
O10   O     O_R   0.561260 0.000000 0.408440 -0.473176
O11   O     O_R   0.061260 0.500000 0.091560 -0.476338
O12   O     O_R   0.438760 0.894190 0.500000 -0.508124
O13   O     O_R   0.061260 0.500000 0.908440 -0.472468
O14   O     O_R   0.605760 0.938760 0.000000 -0.505231
O15   O     O_R   0.605760 0.061240 0.000000 -0.506858
O16   O     O_R   0.105760 0.438760 0.500000 -0.504669
O17   O     O_R   0.105760 0.561240 0.500000 -0.506525
O18   O     O_R   0.499930 0.938760 0.908410 -0.505038
O19   O     O_R   0.499930 0.938760 0.091590 -0.518208
O20   O     O_R   0.499930 0.061240 0.091590 -0.508492
O21   O     O_R   0.499930 0.061240 0.908410 -0.519255
O22   O     O_R   0.999930 0.438760 0.408410 -0.505078
O23   O     O_R   0.938760 0.605810 0.000000 -0.506700
O24   O     O_R   0.999930 0.438760 0.591590 -0.519923
O25   O     O_R   0.999930 0.561240 0.591590 -0.507475
O26   O     O_R   0.999930 0.561240 0.408410 -0.519074
O27   O     O_R   0.394110 0.938740 0.000000 -0.503268
O28   O     O_R   0.394110 0.061260 0.000000 -0.503635
O29   O     O_R   0.894110 0.438740 0.500000 -0.504184
O30   O     O_R   0.894110 0.561260 0.500000 -0.503611
O31   O     O_R   0.605830 0.500000 0.552990 -0.502641
O32   O     O_R   0.605830 0.500000 0.447010 -0.503437
O33   O     O_R   0.105830 0.000000 0.052990 -0.502367
O34   O     O_R   0.938760 0.394190 0.000000 -0.508407
O35   O     O_R   0.105830 1.000000 0.947010 -0.503526
O36   O     O_R   0.500010 0.394180 0.552980 -0.505685
O37   O     O_R   0.500010 0.394180 0.447020 -0.502646
O38   O     O_R   0.500010 0.605820 0.447020 -0.508808
O39   O     O_R   0.500010 0.605820 0.552980 -0.503530
O40   O     O_R   0.000010 0.894180 0.052980 -0.505489
O41   O     O_R   0.000010 0.894180 0.947020 -0.503432
O42   O     O_R   0.000010 0.105820 0.947020 -0.503502
O43   O     O_R   0.000010 0.105820 0.052980 -0.505281
O44   O     O_3   0.427991 0.117529 0.702982 -0.558755
O45   O     O_R   0.394180 0.500000 0.553000 -0.511132
O46   O     O_3   0.632627 0.042887 0.293726 -0.548134
O47   O     O_3   0.469890 0.866152 0.297484 -0.564780
O48   O     O_3   0.639779 0.002684 0.707238 -0.546602
O49   O     O_3   0.928388 0.617842 0.202579 -0.558856
O50   O     O_3   0.135194 0.533576 0.793615 -0.547091
O51   O     O_3   0.960979 0.367906 0.796419 -0.563296
O52   O     O_3   0.139745 0.502516 0.207670 -0.546294
O53   O     O_R   0.394180 0.500000 0.447000 -0.509943
O54   O     O_R   0.894180 0.000000 0.053000 -0.511239
O55   O     O_R   0.894180 0.000000 0.947000 -0.509665
O56   O     O_R   0.561260 0.105780 0.500000 -0.504350

loop_
_geom_bond_atom_site_label_1
_geom_bond_atom_site_label_2
_ccdc_geom_bond_type
C44   C49   S    
C58   C62   S    
C48   C55   S    
C87   C88   S    
Cu4   O35   S    
Cu6   O56   S    
C81   O48   S    
C72   H13   S    
C81   H32   S    
C2    O17   A    
C26   O6    A    
C23   C69   S    
C14   O41   A    
C36   C42   S    
C95   C96   S    
C86   H47   S    
C91   H55   S    
C3    O18   A    
C81   C82   S    
C26   O10   A    
C94   O52   S    
Cu11  O30   S    
C4    C46   S    
C17   O54   A    
C48   C54   S    
C39   C64   S    
C12   C68   S    
C93   H61   S    
C60   H7    S    
C6    C48   S    
C90   H54   S    
C7    C22   S    
Cu7   O3    S    
C50   C59   S    
Cu4   O41   S    
C49   H45   S    
C95   H66   S    
C28   O8    A    
C25   O5    A    
C10   O35   A    
C88   H51   S    
C74   H17   S    
C70   C78   T    
Cu12  O45   S    
C14   C67   S    
C1    O56   A    
C80   H29   S    
C18   C21   T    
Cu6   O9    S    
Cu2   Cu12  S    
C31   C40   S    
C54   H2    S    
C75   H20   S    
Cu8   O27   S    
C85   H42   S    
Cu11  O26   S    
C75   C76   S    
C36   C53   S    
C94   H64   S    
C5    O26   A    
C83   H37   S    
Cu12  O39   S    
C76   H22   S    
C27   O11   A    
Cu1   O12   S    
C12   O2    A    
C38   C55   S    
C19   C20   T    
C93   H60   S    
C36   O49   S    
C6    O25   A    
C37   C65   S    
C58   H5    S    
C41   C46   S    
C34   O4    A    
C42   H23   S    
C88   H50   S    
C13   O38   A    
Cu5   O8    S    
C22   C30   T    
C43   C48   S    
C34   C70   S    
C2    O16   A    
Cu1   Cu6   S    
C33   C63   S    
C11   O36   A    
C47   C53   S    
C13   C56   S    
C84   H41   S    
C44   C52   S    
C36   C64   S    
C81   H33   S    
C40   H1    S    
Cu5   Cu7   S    
C43   H34   S    
C15   O43   A    
C31   C62   S    
C14   O40   A    
C37   O50   S    
C77   H25   S    
C31   C49   S    
C8    O30   A    
Cu8   Cu9   S    
C53   C60   S    
C1    C66   S    
C39   C42   S    
C4    O19   A    
C51   C59   S    
C31   O44   S    
Cu1   O6    S    
C12   O12   A    
Cu3   O43   S    
C16   O45   A    
C74   C75   S    
C71   H9    S    
C90   H53   S    
C50   H56   S    
C35   O48   S    
Cu6   O2    S    
Cu6   O10   S    
C84   C85   S    
C82   H36   S    
C34   O34   A    
C17   O55   A    
C91   C92   S    
Cu11  O17   S    
Cu3   O54   S    
C1    O1    A    
C72   C73   S    
C57   C60   S    
Cu10  O16   S    
C73   H14   S    
Cu3   O33   S    
C73   H15   S    
C85   C86   S    
Cu10  O29   S    
Cu2   O32   S    
C46   C51   S    
C17   C21   S    
C49   C58   S    
Cu7   O4    S    
C23   O23   A    
C67   C69   T    
C37   C43   S    
C84   H40   S    
Cu1   O5    S    
C26   C63   S    
C85   H43   S    
C23   O3    A    
C79   H28   S    
C86   H44   S    
C94   H63   S    
Cu10  O22   S    
C83   H38   S    
C5    C47   S    
C76   H21   S    
C10   C30   S    
C96   H69   S    
Cu9   O21   S    
Cu3   Cu4   S    
C61   C65   S    
C38   C65   S    
C4    O20   A    
Cu5   O34   S    
C16   C20   S    
C73   H16   S    
C61   H8    S    
C28   O13   A    
C77   C79   S    
C27   O7    A    
C13   O39   A    
C51   H67   S    
C84   O49   S    
C32   C50   S    
Cu12  O36   S    
C52   C58   S    
C83   H39   S    
C37   C54   S    
C7    O27   A    
C88   C90   S    
C77   O47   S    
C3    C44   S    
Cu2   O38   S    
Cu5   O23   S    
C3    O21   A    
Cu8   O19   S    
C38   C43   S    
C11   C45   S    
Cu7   O11   S    
C77   H26   S    
Cu9   O20   S    
C32   C41   S    
C8    O29   A    
C80   H31   S    
C53   H72   S    
C24   C29   T    
C95   H65   S    
C5    O22   A    
Cu12  O31   S    
Cu9   O28   S    
Cu4   O42   S    
Cu9   O15   S    
C11   O37   A    
C35   C52   S    
C6    O24   A    
C71   O44   S    
C96   H68   S    
C71   H10   S    
C55   H3    S    
C2    C19   S    
C18   C89   S    
Cu8   O18   S    
C93   H62   S    
C91   H57   S    
C47   C57   S    
C32   C63   S    
C32   O46   S    
C82   H35   S    
C33   O47   S    
C7    O28   A    
C10   O33   A    
Cu1   O1    S    
C38   O51   S    
C54   C61   S    
C9    C29   S    
C33   C51   S    
C87   O50   S    
C79   H27   S    
C46   C50   S    
C59   C63   S    
C60   C64   S    
C33   C41   S    
C87   H49   S    
C15   O42   A    
C35   C40   S    
C86   H46   S    
C52   H71   S    
C39   O52   S    
C74   O46   S    
C56   C68   T    
C76   H24   S    
C92   H59   S    
C74   H18   S    
Cu2   O53   S    
C16   O53   A    
C9    O31   A    
C59   H6    S    
C80   H30   S    
C89   O14   A    
C55   C61   S    
C72   H11   S    
C92   C93   S    
C8    C24   S    
C28   C65   S    
C35   C62   S    
C75   H19   S    
C25   C62   S    
C41   H12   S    
C90   H52   S    
C94   C95   S    
C89   O15   A    
Cu11  O25   S    
C15   C78   S    
C27   C64   S    
Cu10  O24   S    
C79   C80   S    
C57   H4    S    
C92   H58   S    
C40   C44   S    
C42   C47   S    
C71   C72   S    
Cu3   O40   S    
C82   C83   S    
Cu10  Cu11  S    
Cu2   O37   S    
C91   O51   S    
C45   C66   T    
Cu8   O14   S    
C87   H48   S    
Cu4   O55   S    
C25   O9    A    
C9    O32   A    
C96   H70   S    
Cu5   O7    S    
Cu7   O13   S    
C39   C57   S    
