data_mof_unit_41965.cif
_audit_creation_date              2012-10-26T21:24:48-0400
_audit_creation_method            fapswitch 2.2
_symmetry_space_group_name_H-M    P1
_symmetry_Int_Tables_number       1
_space_group_crystal_system       triclinic
_cell_length_a                    9.551361
_cell_length_b                    10.783983
_cell_length_c                    15.359749
_cell_angle_alpha                 89.804861
_cell_angle_beta                  74.155695
_cell_angle_gamma                 90.342283
_cell_volume                      1521.92473353

loop_
_atom_site_label
_atom_site_type_symbol
_atom_type_description
_atom_site_fract_x
_atom_site_fract_y
_atom_site_fract_z
_atom_type_partial_charge
C1    C     C_R   0.999359 0.262542 0.500806 0.544527
C2    C     C_R   0.244203 0.617581 0.051852 0.019768
C3    C     C_R   0.336279 0.557845 0.097711 0.005627
C4    C     C_R   0.918170 0.494847 0.672766 0.535171
C5    C     C_R   0.093793 0.634351 0.096866 0.004011
C6    C     C_R   0.039325 0.591688 0.186411 -0.108658
C7    C     C_R   0.271881 0.503369 0.182346 -0.155542
C8    C     C_R   0.121777 0.065785 0.455101 0.022185
C9    C     C_R   0.999023 0.129332 0.503946 0.011897
C10   C     C_R   0.879138 0.063359 0.557493 -0.166392
C11   C     C_R   0.879956 0.934009 0.556868 -0.165080
C12   C     C_R   0.683644 0.530222 0.913545 0.024236
C13   C     C_R   0.000163 0.870946 0.502212 0.010564
C14   C     C_R   0.122238 0.937631 0.453582 0.010595
C15   C     C_3   0.191401 0.936116 0.353514 -0.278203
C16   C     C_R   0.000513 0.737583 0.499330 0.543111
C17   C     C_3   0.193316 0.076252 0.356041 -0.265539
C18   C     C_R   0.598745 0.579022 0.444480 0.221763
C19   C     C_R   0.552875 0.413984 0.547755 -0.011684
C20   C     C_R   0.404274 0.413522 0.547263 -0.015348
C21   C     C_R   0.451292 0.579000 0.444871 0.182286
C22   C     C_3   0.445582 0.716799 0.444376 -0.262897
C23   C     C_R   0.775574 0.480943 0.962892 0.004502
C24   C     C_3   0.604929 0.717804 0.444442 -0.145915
C25   C     C_R   0.082084 0.503434 0.327439 0.540343
C26   C     C_R   0.873688 0.487543 0.772864 0.002761
C27   C     C_R   0.128539 0.527819 0.229474 -0.037890
C28   C     C_R   0.913202 0.435713 0.918272 -0.126363
C29   C     C_R   0.962415 0.434847 0.823790 0.009715
C30   C     C_R   0.735724 0.533190 0.818373 -0.147807
C31   C     C_2   0.991128 0.696588 0.053483 0.202517
C32   C     C_3   0.708781 0.771999 0.357597 -0.262288
C33   C     C_3   0.701632 0.913279 0.356301 -0.440370
C34   C     C_R   0.540961 0.569619 0.960937 0.033424
C35   C     C_3   0.104597 0.369296 0.782029 -0.263663
C36   C     C_3   0.234359 0.454602 0.777786 -0.428183
C37   C     C_2   0.567373 0.543027 0.202368 0.212614
C38   C     C_R   0.489007 0.547883 0.055773 0.000049
C39   C     C_R   0.592315 0.517666 0.104347 0.025581
C40   C     C_R   0.731217 0.478829 0.056959 -0.070580
C41   C     C_R   0.448824 0.631262 0.917310 -0.133468
C42   C     C_R   0.305805 0.659079 0.962894 -0.146536
Cu1   Cu    Cu3+1 0.140670 0.499980 0.500000 0.931292
Cu2   Cu    Cu3+1 0.859330 0.500020 0.500000 0.941525
H1    H     H_    0.807990 0.450655 0.093777 0.158967
H2    H     H_    0.425789 0.750835 0.380767 0.120044
H3    H     H_    0.332607 0.441518 0.213591 0.138098
H4    H     H_    0.372712 0.755436 0.507485 0.142422
H5    H     H_    0.622240 0.755762 0.508000 0.149536
H6    H     H_    0.927195 0.608911 0.223020 0.183633
H7    H     H_    0.244118 0.709988 0.925571 0.092833
H8    H     H_    0.981734 0.397317 0.957436 0.108383
H9    H     H_    0.669130 0.567931 0.777478 0.118342
H10   H     H_    0.485485 0.663095 0.848175 0.101282
H11   H     H_    0.013422 0.703357 0.980688 0.109364
H12   H     H_    0.784750 0.111586 0.598181 0.119165
H13   H     H_    0.590540 0.944006 0.356940 0.153730
H14   H     H_    0.730611 0.952454 0.415904 0.162414
H15   H     H_    0.780038 0.949521 0.293911 0.167062
H16   H     H_    0.822108 0.744794 0.353772 0.178969
H17   H     H_    0.682313 0.735233 0.296456 0.192290
H18   H     H_    0.337149 0.403957 0.748638 0.122664
H19   H     H_    0.231434 0.537430 0.735253 0.175371
H20   H     H_    0.233070 0.484945 0.846883 0.153107
H21   H     H_    0.113178 0.286663 0.823764 0.131644
H22   H     H_    0.109480 0.331390 0.714355 0.159774
H23   H     H_    0.786167 0.883449 0.597340 0.120195
H24   H     H_    0.485771 0.609455 0.236027 0.106031
H25   H     H_    0.302415 0.897111 0.334678 0.128920
H26   H     H_    0.117886 0.897783 0.315000 0.138884
H27   H     H_    0.304789 0.116487 0.341873 0.148401
H28   H     H_    0.122417 0.119789 0.318022 0.139208
H29   H     H_    0.590364 0.346164 0.588178 0.112723
H30   H     H_    0.330870 0.344748 0.586695 0.112769
N1    N     N_R   0.648210 0.500930 0.499430 -0.236802
N2    N     N_R   0.352300 0.500890 0.499430 -0.236595
O1    O     O_R   0.118810 0.319640 0.500000 -0.503747
O2    O     O_2   0.638697 0.490818 0.246387 -0.537451
O3    O     O_R   0.881230 0.319680 0.499990 -0.500646
O4    O     O_R   0.055580 0.499970 0.629840 -0.502590
O5    O     O_R   0.818000 0.500010 0.629830 -0.511138
O6    O     O_R   0.118770 0.680320 0.500010 -0.501532
O7    O     O_R   0.881190 0.680360 0.500000 -0.520407
O8    O     O_R   0.182000 0.499990 0.370170 -0.493863
O9    O     O_R   0.944420 0.500030 0.370160 -0.481338
O10   O     O_2   0.877062 0.740006 0.099396 -0.527769

loop_
_geom_bond_atom_site_label_1
_geom_bond_atom_site_label_2
_ccdc_geom_bond_type
C22   H4    S    
C18   N1    A    
C18   C21   A    
C1    O1    A    
C41   C42   A    
C19   C20   A    
Cu2   O7    S    
C12   C23   A    
C33   H14   S    
C18   C24   S    
C28   C29   A    
C32   H17   S    
C4    O4    A    
C3    C7    A    
C5    C6    A    
C35   H21   S    
C23   C40   A    
C37   H24   S    
Cu1   N2    S    
C7    C27   A    
C20   N2    A    
C4    O5    A    
C35   C36   S    
C3    C38   A    
C8    C9    A    
C25   O8    A    
C8    C14   A    
C36   H19   S    
C10   H12   S    
C9    C10   A    
C42   H7    S    
C33   H15   S    
C31   O10   D    
C21   C22   S    
Cu1   O8    S    
C34   C41   A    
C36   H18   S    
C25   O9    A    
C11   H23   S    
C40   H1    S    
C15   H25   S    
C30   H9    S    
C19   H29   S    
C1    C9    S    
Cu2   O5    S    
C39   C40   A    
C35   H22   S    
Cu1   O4    S    
C16   O7    A    
C7    H3    S    
Cu2   N1    S    
Cu1   Cu2   S    
C24   C32   S    
C6    C27   A    
C21   N2    A    
C16   O6    A    
C20   H30   S    
C23   C28   A    
C6    H6    S    
C17   H28   S    
C22   H2    S    
C26   C30   A    
C1    O3    A    
C22   C24   S    
C2    C5    A    
C25   C27   S    
C32   H16   S    
C12   C34   A    
Cu2   O9    S    
C24   H5    S    
C15   C17   S    
C15   H26   S    
C33   H13   S    
C12   C30   A    
C34   C38   A    
Cu2   O3    S    
C4    C26   S    
C17   H27   S    
C28   H8    S    
Cu1   O1    S    
C37   O2    D    
C29   C35   S    
C8    C17   S    
C32   C33   S    
C19   N1    A    
C2    C3    A    
C37   C39   S    
C36   H20   S    
C11   C13   A    
C38   C39   A    
C2    C42   A    
C41   H10   S    
C10   C11   A    
C26   C29   A    
C13   C16   S    
Cu1   O6    S    
C14   C15   S    
C31   H11   S    
C13   C14   A    
C5    C31   S    
