data_mof_unit_10867.cif
_audit_creation_date              2012-12-11T15:23:50-0500
_audit_creation_method            fapswitch 2.2
_symmetry_space_group_name_H-M    P1
_symmetry_Int_Tables_number       1
_space_group_crystal_system       triclinic
_cell_length_a                    17.478313
_cell_length_b                    24.728548
_cell_length_c                    14.90825
_cell_angle_alpha                 90.440245
_cell_angle_beta                  125.661064
_cell_angle_gamma                 89.72114
_cell_volume                      5235.09475809

loop_
_atom_site_label
_atom_site_type_symbol
_atom_type_description
_atom_site_fract_x
_atom_site_fract_y
_atom_site_fract_z
_atom_type_partial_charge
C1    C     C_R   0.331255 0.357930 0.905645 -0.169487
C2    C     C_R   0.422797 0.501372 0.627589 0.058686
C3    C     C_2   0.190922 0.173272 0.201721 0.514975
C4    C     C_2   0.490290 0.329256 0.201090 0.477433
C5    C     C_2   0.540744 0.345387 0.793388 0.511505
C6    C     C_2   0.991428 0.829079 0.201220 0.478452
C7    C     C_2   0.040702 0.845332 0.793415 0.511598
C8    C     C_R   0.973415 0.002268 0.301528 0.051503
C9    C     C_R   0.922807 0.001354 0.627587 0.058625
C10   C     C_R   0.202796 0.497480 0.631308 -0.069727
C11   C     C_R   0.824581 0.499010 0.315050 -0.093104
C12   C     C_R   0.702789 0.997474 0.631315 -0.069809
C13   C     C_R   0.324585 0.999020 0.314990 -0.093104
C14   C     C_2   0.975111 0.460088 0.380419 -0.279493
C15   C     C_2   0.075380 0.453581 0.465984 -0.297959
C16   C     C_2   0.475118 0.960089 0.380390 -0.279459
C17   C     C_R   0.681212 0.367279 0.091010 -0.172700
C18   C     C_2   0.575380 0.953576 0.465984 -0.297970
C19   C     C_2   0.925635 0.498418 0.390355 0.817778
C20   C     C_2   0.130290 0.497096 0.512990 0.816000
C21   C     C_2   0.425640 0.998433 0.390288 0.817784
C22   C     C_2   0.630299 0.997087 0.512994 0.815980
C23   C     C_R   0.234725 0.715459 0.961430 -0.075942
C24   C     C_R   0.773492 0.701676 0.033338 -0.107094
C25   C     C_R   0.734691 0.215513 0.961104 -0.075686
C26   C     C_R   0.272526 0.202200 0.032747 -0.107151
C27   C     C_R   0.684502 0.257675 0.961651 -0.119210
C28   C     C_R   0.832196 0.857396 0.905646 -0.169874
C29   C     C_R   0.327724 0.239402 0.028038 -0.085179
C30   C     C_R   0.184545 0.757634 0.961959 -0.119382
C31   C     C_R   0.828922 0.738692 0.028576 -0.084597
C32   C     C_R   0.728563 0.307621 0.001511 0.167254
C33   C     C_R   0.291848 0.291037 0.991335 0.150560
C34   C     C_R   0.228548 0.807617 0.001514 0.167343
C35   C     C_R   0.793180 0.790292 0.991320 0.150085
C36   C     C_R   0.823502 0.315644 0.046591 -0.146700
C37   C     C_R   0.200329 0.305642 0.953379 -0.161851
C38   C     C_R   0.323416 0.815681 0.046275 -0.146539
C39   C     C_R   0.181212 0.867281 0.091009 -0.172831
C40   C     C_R   0.701595 0.805021 0.952917 -0.162030
C41   C     C_R   0.374530 0.772819 0.047079 -0.162013
C42   C     C_R   0.645404 0.767610 0.955885 -0.153929
C43   C     C_R   0.874628 0.272791 0.047387 -0.162231
C44   C     C_R   0.144352 0.268041 0.956318 -0.153408
C45   C     C_R   0.439382 0.649112 0.092156 -0.176943
C46   C     C_R   0.563689 0.647401 0.907713 -0.181286
C47   C     C_R   0.939410 0.149125 0.092149 -0.176980
C48   C     C_R   0.063375 0.147511 0.907710 -0.181375
C49   C     C_R   0.328557 0.723672 0.002486 0.178446
C50   C     C_R   0.377001 0.678821 0.001046 0.007740
C51   C     C_R   0.683041 0.716905 0.998379 0.184795
C52   C     C_R   0.828597 0.223693 0.002460 0.178411
C53   C     C_R   0.182157 0.217287 0.998294 0.184849
C54   C     C_R   0.382507 0.551953 0.463948 -0.090506
C55   C     C_R   0.431099 0.553272 0.415368 -0.033862
C56   C     C_R   0.882302 0.051910 0.463804 -0.090886
C57   C     C_R   0.930736 0.053255 0.415031 -0.033526
C58   C     C_R   0.435010 0.504431 0.366835 -0.004572
C59   C     C_R   0.382046 0.502733 0.509265 -0.038725
C60   C     C_R   0.934659 0.004412 0.366498 -0.004478
C61   C     C_R   0.626816 0.677262 0.999260 0.021432
C62   C     C_R   0.882015 0.002692 0.509245 -0.038614
C63   C     C_R   0.399800 0.456440 0.380235 -0.108944
C64   C     C_R   0.379222 0.454845 0.456956 -0.110701
C65   C     C_R   0.899587 0.956405 0.380055 -0.109062
C66   C     C_R   0.879188 0.954802 0.456937 -0.110751
C67   C     C_R   0.497587 0.455872 0.269009 -0.111420
C68   C     C_R   0.441006 0.455943 0.690692 -0.085856
C69   C     C_R   0.997266 0.955844 0.268675 -0.111320
C70   C     C_R   0.941023 0.955932 0.690706 -0.085947
C71   C     C_R   0.246864 0.543174 0.694082 -0.030770
C72   C     C_R   0.877055 0.178841 0.001038 0.007856
C73   C     C_R   0.768918 0.544668 0.273249 -0.055677
C74   C     C_R   0.746861 0.043171 0.694081 -0.030837
C75   C     C_R   0.268915 0.044676 0.273194 -0.055557
C76   C     C_R   0.489638 0.546243 0.258109 -0.134059
C77   C     C_R   0.449644 0.545461 0.696955 -0.130584
C78   C     C_R   0.989474 0.046227 0.257942 -0.134222
C79   C     C_R   0.949646 0.045452 0.696943 -0.130669
C80   C     C_R   0.248231 0.453121 0.697020 -0.191752
C81   C     C_R   0.767502 0.453897 0.275951 -0.174376
C82   C     C_R   0.748221 0.953116 0.697035 -0.191516
C83   C     C_R   0.126230 0.177456 0.999221 0.021118
C84   C     C_R   0.267510 0.953902 0.275927 -0.174385
C85   C     C_R   0.349793 0.649771 0.908248 -0.067939
C86   C     C_R   0.651306 0.649485 0.091838 -0.072280
C87   C     C_R   0.849836 0.149781 0.908246 -0.067973
C88   C     C_R   0.151003 0.149580 0.091810 -0.071969
C89   C     C_R   0.428718 0.353623 0.090701 -0.050667
C90   C     C_R   0.588915 0.367023 0.906188 -0.044100
C91   C     C_R   0.929518 0.853236 0.090667 -0.050592
C92   C     C_R   0.088905 0.867013 0.906188 -0.044036
C93   C     C_R   0.350352 0.331252 0.996408 0.015908
C94   C     C_R   0.473744 0.502294 0.301857 0.051356
C95   C     C_R   0.674491 0.350624 0.998780 0.020075
C96   C     C_R   0.851818 0.830416 0.996348 0.015614
C97   C     C_R   0.174491 0.850627 0.998779 0.020034
C98   C     C_2   0.326932 0.598428 0.461205 0.630457
C99   C     C_2   0.498422 0.598547 0.445744 0.521855
C100  C     C_2   0.826703 0.098352 0.461137 0.630671
C101  C     C_2   0.997995 0.098553 0.445314 0.521364
C102  C     C_2   0.311735 0.672852 0.798998 0.547887
C103  C     C_2   0.691281 0.673245 0.201709 0.514880
C104  C     C_2   0.811826 0.172857 0.799003 0.547634
F1    F     F_    0.967012 0.535715 0.473549 -0.654510
F2    F     F_    0.105797 0.544871 0.457612 -0.659743
F3    F     F_    0.467011 0.035742 0.473461 -0.654516
F4    F     F_    0.605834 0.044858 0.457605 -0.659789
H1    H     H_    0.279125 0.348278 0.819480 0.118631
H2    H     H_    0.398308 0.228653 0.054932 0.133735
H3    H     H_    0.111610 0.751610 0.931074 0.107806
H4    H     H_    0.899555 0.727831 0.055825 0.134661
H5    H     H_    0.856750 0.354650 0.079461 0.128033
H6    H     H_    0.173681 0.346148 0.924188 0.137619
H7    H     H_    0.356615 0.854723 0.078888 0.128032
H8    H     H_    0.675041 0.845497 0.923339 0.137760
H9    H     H_    0.448185 0.777803 0.080381 0.132710
H10   H     H_    0.574186 0.778012 0.927018 0.133390
H11   H     H_    0.948340 0.277746 0.080944 0.132832
H12   H     H_    0.732159 0.353853 0.174369 0.117390
H13   H     H_    0.073185 0.278328 0.927830 0.133366
H14   H     H_    0.397464 0.418912 0.341043 0.140651
H15   H     H_    0.369655 0.415906 0.481650 0.131178
H16   H     H_    0.897265 0.918871 0.340894 0.140250
H17   H     H_    0.869750 0.915857 0.481734 0.131116
H18   H     H_    0.480136 0.662575 0.177238 0.116299
H19   H     H_    0.527467 0.658511 0.821974 0.124309
H20   H     H_    0.980164 0.162586 0.177233 0.116354
H21   H     H_    0.027014 0.158656 0.821969 0.124177
H22   H     H_    0.496327 0.415220 0.292378 0.102277
H23   H     H_    0.780265 0.847670 0.819468 0.118527
H24   H     H_    0.412557 0.416569 0.656806 0.078120
H25   H     H_    0.995666 0.915153 0.291649 0.101939
H26   H     H_    0.912586 0.916554 0.656839 0.078098
H27   H     H_    0.235368 0.583440 0.661520 0.132196
H28   H     H_    0.792749 0.585974 0.292227 0.127232
H29   H     H_    0.735364 0.083435 0.661513 0.132198
H30   H     H_    0.292729 0.085988 0.292114 0.127215
H31   H     H_    0.474337 0.588077 0.261243 0.099562
H32   H     H_    0.438119 0.587624 0.674787 0.084201
H33   H     H_    0.974152 0.088059 0.261044 0.099699
H34   H     H_    0.232158 0.853852 0.174367 0.117397
H35   H     H_    0.938125 0.087613 0.674760 0.084177
H36   H     H_    0.241226 0.411716 0.669454 0.096065
H37   H     H_    0.789234 0.412923 0.303657 0.106205
H38   H     H_    0.741204 0.911706 0.669487 0.096072
H39   H     H_    0.289254 0.912930 0.303640 0.106206
H40   H     H_    0.939495 0.428901 0.317122 0.105467
H41   H     H_    0.096746 0.414311 0.505319 0.103821
H42   H     H_    0.439504 0.928894 0.317113 0.105468
H43   H     H_    0.596727 0.914308 0.505330 0.103820
H44   H     H_    0.294624 0.596210 0.504982 0.002872
H45   H     H_    0.200996 0.676418 0.929743 0.125875
H46   H     H_    0.560968 0.591943 0.448227 0.000510
H47   H     H_    0.794539 0.096121 0.505074 0.002801
H48   H     H_    0.060658 0.091921 0.448053 0.000594
H49   H     H_    0.327637 0.653846 0.745982 -0.028800
H50   H     H_    0.685407 0.651757 0.260595 -0.005536
H51   H     H_    0.827690 0.153817 0.745981 -0.028763
H52   H     H_    0.185269 0.151655 0.260652 -0.005588
H53   H     H_    0.563173 0.342140 0.255755 0.015528
H54   H     H_    0.465215 0.339337 0.743194 -0.021574
H55   H     H_    0.063950 0.842551 0.256079 0.015241
H56   H     H_    0.800262 0.661256 0.063252 0.128836
H57   H     H_    0.965165 0.839315 0.743233 -0.021634
H58   H     H_    0.700910 0.176504 0.929181 0.125868
H59   H     H_    0.299419 0.161751 0.062255 0.128753
H60   H     H_    0.611515 0.251664 0.930554 0.107740
N1    N     N_R   0.395440 0.396300 0.944370 -0.040862
N2    N     N_R   0.474910 0.470990 0.794360 -0.049563
N3    N     N_R   0.025090 0.970990 0.205640 -0.047676
N4    N     N_R   0.974910 0.970990 0.794360 -0.049556
N5    N     N_R   0.320240 0.527820 0.794510 -0.058933
N6    N     N_R   0.679760 0.527820 0.205490 -0.054807
N7    N     N_R   0.820240 0.027820 0.794510 -0.058943
N8    N     N_R   0.179760 0.027820 0.205490 -0.054829
N9    N     N_R   0.524580 0.527810 0.205160 -0.039475
N10   N     N_R   0.475420 0.527810 0.794840 -0.040366
N11   N     N_R   0.024580 0.027810 0.205160 -0.039507
N12   N     N_R   0.604560 0.396300 0.055630 -0.044797
N13   N     N_R   0.975420 0.027810 0.794840 -0.040343
N14   N     N_R   0.320750 0.470990 0.794990 -0.025523
N15   N     N_R   0.679250 0.470990 0.205010 -0.025840
N16   N     N_R   0.820750 0.970990 0.794990 -0.025568
N17   N     N_R   0.179250 0.970990 0.205010 -0.025882
N18   N     N_R   0.393580 0.602500 0.942610 -0.070963
N19   N     N_R   0.606420 0.602500 0.057390 -0.074188
N20   N     N_R   0.893580 0.102500 0.942610 -0.070931
N21   N     N_R   0.106420 0.102500 0.057390 -0.074219
N22   N     N_R   0.451750 0.396300 0.057540 -0.072820
N23   N     N_R   0.895440 0.896300 0.944370 -0.040669
N24   N     N_R   0.548250 0.396300 0.942460 -0.076397
N25   N     N_R   0.951750 0.896300 0.057540 -0.072820
N26   N     N_R   0.048250 0.896300 0.942460 -0.076354
N27   N     N_R   0.104560 0.896300 0.055630 -0.044844
N28   N     N_R   0.449890 0.602500 0.055780 -0.042365
N29   N     N_R   0.550110 0.602500 0.944220 -0.042757
N30   N     N_R   0.949890 0.102500 0.055780 -0.042398
N31   N     N_R   0.050110 0.102500 0.944220 -0.042706
N32   N     N_R   0.525090 0.470990 0.205640 -0.047604
Ni1   Ni    Ni4+2 0.435420 0.434250 0.870220 0.202454
Ni2   Ni    Ni4+2 0.564580 0.434250 0.129780 0.216535
Ni3   Ni    Ni4+2 0.935420 0.934250 0.870220 0.202450
Ni4   Ni    Ni4+2 0.064580 0.934250 0.129780 0.216518
Ni5   Ni    Ni4+2 0.563400 0.564580 0.128670 0.212382
Ni6   Ni    Ni4+2 0.436600 0.564580 0.871330 0.205641
Ni7   Ni    Ni4+2 0.063400 0.064580 0.128670 0.212385
Ni8   Ni    Ni4+2 0.936600 0.064580 0.871330 0.205621
O1    O     O_2   0.310725 0.637927 0.404000 -0.522272
O2    O     O_2   0.585206 0.332844 0.756703 -0.526788
O3    O     O_2   0.962343 0.795051 0.233254 -0.535347
O4    O     O_2   0.085143 0.832714 0.756741 -0.526759
O5    O     O_2   0.488941 0.642673 0.475342 -0.540776
O6    O     O_2   0.810301 0.137830 0.403810 -0.522154
O7    O     O_2   0.988303 0.142740 0.474508 -0.540611
O8    O     O_2   0.265155 0.714340 0.768660 -0.528759
O9    O     O_2   0.729369 0.717476 0.226843 -0.541177
O10   O     O_2   0.765334 0.214377 0.768679 -0.528938
O11   O     O_2   0.228717 0.217589 0.226841 -0.541065
O12   O     O_2   0.460524 0.295737 0.233222 -0.535028

loop_
_geom_bond_atom_site_label_1
_geom_bond_atom_site_label_2
_ccdc_geom_bond_type
C28   N23   A    
C16   C21   D    
C29   C33   A    
N14   Ni1   S    
C51   C61   S    
C77   H32   S    
C30   C34   A    
C72   C87   A    
C7    O4    D    
N29   Ni6   S    
N8    N17   A    
C98   H44   S    
C35   C96   S    
C11   C81   A    
C5    O2    D    
C13   C84   A    
C11   C19   S    
C8    C69   A    
N25   Ni4   S    
N2    N10   A    
C74   H29   S    
C32   C36   A    
N8    Ni7   S    
N18   N28   A    
N21   Ni7   S    
C2    C68   A    
C71   H27   S    
C91   N25   A    
C43   C52   A    
C39   C97   A    
C86   C103  S    
C6    C91   S    
C99   H46   S    
C82   N16   A    
C44   H13   S    
C73   N6    A    
C34   C97   S    
C56   C57   A    
C69   N3    A    
C65   H16   S    
N28   Ni5   S    
C68   H24   S    
C70   N4    A    
N2    Ni1   S    
C17   H12   S    
C76   C94   A    
C91   C96   A    
C68   N2    A    
C44   C53   A    
C37   H6    S    
C79   H35   S    
C13   C75   A    
C10   C20   S    
C4    O12   D    
N9    N32   A    
C67   C94   A    
C89   N22   A    
C73   H28   S    
C47   N30   A    
N5    Ni6   S    
C17   C95   A    
C80   N14   A    
C5    C90   S    
C50   C85   A    
C3    O11   D    
C27   H60   S    
C9    C62   S    
C1    H1    S    
C10   C71   A    
N21   N31   A    
C45   N28   A    
C40   C42   A    
C83   C88   A    
C7    H57   S    
C92   N26   A    
C86   N19   A    
N16   Ni3   S    
C18   C22   D    
C8    C78   A    
N3    N11   A    
C84   N17   A    
C24   H56   S    
N23   Ni3   S    
N1    N22   A    
C9    C79   A    
C36   H5    S    
N4    N13   A    
C102  H49   S    
C41   C49   A    
C82   H38   S    
C92   C97   A    
C3    C88   S    
C20   F2    S    
C54   C59   A    
C15   C20   D    
C98   O1    D    
N11   Ni7   S    
C26   H59   S    
C24   C51   A    
N18   Ni6   S    
C48   N31   A    
C13   C21   S    
C78   N11   A    
C23   C30   A    
C46   H19   S    
C90   C95   A    
N13   Ni8   S    
C27   C32   A    
C9    C70   A    
C38   C41   A    
C76   N9    A    
C11   C73   A    
C78   H33   S    
C62   C66   A    
C2    C59   S    
C42   H10   S    
C14   H40   S    
C90   N24   A    
N27   Ni4   S    
C46   C61   A    
C101  H48   S    
C80   H36   S    
C39   N27   A    
C33   C37   A    
C79   N13   A    
C55   C99   S    
N4    Ni3   S    
N7    Ni8   S    
N23   N25   A    
C52   C72   S    
N6    Ni5   S    
C29   H2    S    
C39   H34   S    
N20   N30   A    
C45   H18   S    
N24   Ni1   S    
C100  O6    D    
N19   Ni5   S    
C59   C64   A    
C12   C82   A    
C104  O10   D    
C21   F3    S    
C103  O9    D    
C19   F1    S    
C17   N12   A    
C16   C18   S    
N19   N29   A    
N5    N14   A    
C67   N32   A    
C81   H37   S    
C23   H45   S    
N12   N24   A    
C3    H52   S    
C12   C22   S    
C31   C35   A    
C48   H21   S    
C67   H22   S    
C56   C100  S    
C104  H51   S    
C49   C50   S    
C18   H43   S    
C26   C53   A    
C15   H41   S    
C63   H14   S    
C57   C101  S    
C100  H47   S    
C4    C89   S    
C84   H39   S    
C102  O8    D    
C58   C63   A    
C54   C55   A    
N20   Ni8   S    
C69   H25   S    
N30   Ni7   S    
C34   C38   A    
N15   Ni2   S    
C14   C19   D    
N22   Ni2   S    
C63   C64   A    
C46   N29   A    
C75   H30   S    
C33   C93   S    
N6    N15   A    
C60   C65   A    
C31   H4    S    
C66   H17   S    
C103  H50   S    
C87   N20   A    
C6    O3    D    
C25   H58   S    
C25   C27   A    
C64   H15   S    
C99   O5    D    
C42   C51   A    
N12   Ni2   S    
C77   N10   A    
C48   C83   A    
C53   C83   S    
C30   H3    S    
C28   C96   A    
C28   H23   S    
C5    H54   S    
C37   C44   A    
C10   C80   A    
C35   C40   A    
C58   C94   S    
C24   C31   A    
C74   N7    A    
C2    C77   A    
C12   C74   A    
C8    C60   S    
C38   H7    S    
C40   H8    S    
C45   C50   A    
C101  O7    D    
C22   F4    S    
N26   Ni3   S    
N10   Ni6   S    
C1    N1    A    
N31   Ni8   S    
N9    Ni5   S    
N26   N27   A    
C56   C62   A    
C4    H53   S    
C89   C93   A    
N17   Ni4   S    
C47   C72   A    
C25   C52   A    
C23   C49   A    
C61   C86   A    
N3    Ni4   S    
N1    Ni1   S    
C87   C104  S    
C71   N5    A    
C57   C60   A    
C32   C95   S    
C6    H55   S    
C76   H31   S    
C26   C29   A    
C1    C93   A    
C65   C66   A    
C55   C58   A    
C7    C92   S    
C70   H26   S    
C81   N15   A    
C14   C15   S    
C54   C98   S    
C36   C43   A    
C16   H42   S    
C47   H20   S    
C41   H9    S    
C75   N8    A    
N32   Ni2   S    
C85   C102  S    
C85   N18   A    
C43   H11   S    
C88   N21   A    
N7    N16   A    
