data_mof_unit_40976.cif
_audit_creation_date              2012-12-10T19:07:02-0500
_audit_creation_method            fapswitch 2.2
_symmetry_space_group_name_H-M    P1
_symmetry_Int_Tables_number       1
_space_group_crystal_system       triclinic
_cell_length_a                    27.813018
_cell_length_b                    10.857421
_cell_length_c                    9.547495
_cell_angle_alpha                 90.430671
_cell_angle_beta                  89.790554
_cell_angle_gamma                 90.402652
_cell_volume                      2882.95871067

loop_
_atom_site_label
_atom_site_type_symbol
_atom_type_description
_atom_site_fract_x
_atom_site_fract_y
_atom_site_fract_z
_atom_type_partial_charge
C1    C     C_R   0.500182 0.262779 0.499474 0.820559
C2    C     C_R   0.278742 0.485076 0.375913 -0.104577
C3    C     C_R   0.253680 0.497295 0.502542 0.364356
C4    C     C_R   0.101995 0.495799 0.505667 -0.043484
C5    C     C_R   0.127511 0.384537 0.494517 -0.021113
C6    C     C_R   0.102269 0.273336 0.485381 -0.145066
C7    C     C_R   0.127827 0.607544 0.515684 -0.021587
C8    C     C_R   0.354513 0.499044 0.500924 -0.034965
C9    C     C_R   0.645316 0.496602 0.500701 -0.036611
C10   C     C_R   0.974235 0.381369 0.493656 0.043300
C11   C     C_R   0.974584 0.607983 0.522153 0.043433
C12   C     C_R   0.407471 0.499756 0.500225 0.791323
C13   C     C_R   0.949162 0.494492 0.508014 0.067654
C14   C     C_R   0.946946 0.271523 0.477445 -0.203170
C15   C     C_R   0.897038 0.272582 0.477185 -0.142238
C16   C     C_R   0.872122 0.382922 0.492632 -0.021839
C17   C     C_R   0.897979 0.494149 0.508050 -0.043066
C18   C     C_R   0.872487 0.605066 0.523305 -0.021886
C19   C     C_R   0.822008 0.602807 0.522475 0.537120
C20   C     C_R   0.821635 0.384712 0.492005 0.537648
C21   C     C_R   0.719967 0.442679 0.615373 -0.091788
C22   C     C_R   0.669836 0.444163 0.613705 -0.190649
C23   C     C_R   0.500773 0.737387 0.500283 0.823779
C24   C     C_R   0.671748 0.546989 0.389326 -0.210995
C25   C     C_R   0.721859 0.545748 0.391150 -0.088925
C26   C     C_R   0.746149 0.493776 0.504257 0.345248
C27   C     C_R   0.025398 0.381600 0.495294 0.043653
C28   C     C_R   0.050814 0.495329 0.506729 0.067222
C29   C     C_R   0.025737 0.608610 0.519108 0.043634
C30   C     C_R   0.052355 0.271560 0.486065 -0.203023
C31   C     C_R   0.102909 0.718275 0.525987 -0.144835
C32   C     C_R   0.947645 0.717375 0.539254 -0.203327
C33   C     C_R   0.897741 0.715661 0.539487 -0.142675
C34   C     C_R   0.592474 0.499159 0.499969 0.825779
C35   C     C_R   0.053007 0.719138 0.527351 -0.202977
C36   C     C_R   0.502540 0.063762 0.620950 0.062916
C37   C     C_R   0.501836 0.130350 0.497647 -0.092062
C38   C     C_R   0.503424 0.063743 0.370343 -0.179016
C39   C     C_R   0.503817 0.934621 0.371087 -0.180633
C40   C     C_R   0.502870 0.870184 0.499149 -0.091495
C41   C     C_R   0.503578 0.939587 0.622001 0.072239
C42   C     C_3   0.499503 0.932923 0.778437 -0.273955
C43   C     C_3   0.497384 0.076046 0.776408 -0.280343
C44   C     C_R   0.532736 0.569520 0.073880 0.281867
C45   C     C_R   0.178000 0.387082 0.493372 0.534605
C46   C     C_R   0.465557 0.438698 0.074202 -0.045085
C47   C     C_R   0.465518 0.438847 0.925417 -0.069889
C48   C     C_R   0.533003 0.568488 0.926293 0.282943
C49   C     C_3   0.586124 0.551668 0.921145 -0.477545
C50   C     C_3   0.585962 0.555933 0.079210 -0.523378
C51   C     C_R   0.178303 0.605966 0.514534 0.535405
C52   C     C_R   0.278908 0.510327 0.628350 -0.105223
C53   C     C_R   0.329042 0.510873 0.627772 -0.217438
C54   C     C_R   0.328889 0.486236 0.374888 -0.212589
Cu1   Cu    Cu3+1 0.500000 0.499980 0.640670 0.972496
Cu2   Cu    Cu3+1 0.500000 0.500020 0.359330 0.959424
H1    H     H_    0.347528 0.476647 0.275652 0.153033
H2    H     H_    0.259599 0.519749 0.726495 0.136677
H3    H     H_    0.121936 0.805541 0.532791 0.187588
H4    H     H_    0.963779 0.806820 0.553885 0.136338
H5    H     H_    0.653797 0.589417 0.302372 0.149512
H6    H     H_    0.878980 0.802152 0.552514 0.188938
H7    H     H_    0.741878 0.585493 0.304920 0.146100
H8    H     H_    0.037138 0.809038 0.533844 0.135601
H9    H     H_    0.503581 0.110569 0.270602 0.209170
H10   H     H_    0.504065 0.885995 0.271653 0.204823
H11   H     H_    0.465241 0.888758 0.812261 0.135355
H12   H     H_    0.259302 0.475050 0.278386 0.136453
H13   H     H_    0.461539 0.113077 0.805855 0.129942
H14   H     H_    0.438343 0.386588 0.129729 0.138536
H15   H     H_    0.438262 0.386904 0.869541 0.134650
H16   H     H_    0.596322 0.459717 0.879335 0.220315
H17   H     H_    0.605376 0.630717 0.873118 0.239579
H18   H     H_    0.597484 0.467669 0.126429 0.225735
H19   H     H_    0.603645 0.640094 0.121836 0.192205
H20   H     H_    0.121049 0.186420 0.477791 0.187354
H21   H     H_    0.650306 0.402871 0.699726 0.169327
H22   H     H_    0.738510 0.402208 0.703104 0.148990
H23   H     H_    0.878004 0.185822 0.464394 0.189116
H24   H     H_    0.962806 0.182229 0.463335 0.136361
H25   H     H_    0.036224 0.181382 0.480113 0.135546
H26   H     H_    0.347793 0.520977 0.726455 0.155547
N1    N     N_R   0.202193 0.496759 0.503401 -0.470610
N2    N     N_R   0.797710 0.493687 0.506579 -0.469924
N3    N     N_R   0.500300 0.500930 0.147930 -0.192107
N4    N     N_R   0.500310 0.500890 0.852020 -0.196526
O1    O     O_R   0.500000 0.319640 0.618810 -0.573982
O2    O     O_2   0.796636 0.278600 0.475708 -0.524332
O3    O     O_2   0.203353 0.712619 0.523897 -0.530323
O4    O     O_2   0.797362 0.708698 0.538229 -0.523883
O5    O     O_R   0.500010 0.319680 0.381230 -0.583880
O6    O     O_R   0.430260 0.500000 0.618780 -0.595557
O7    O     O_R   0.430270 0.500040 0.381190 -0.589896
O8    O     O_R   0.499990 0.680320 0.618770 -0.573164
O9    O     O_R   0.500000 0.680360 0.381190 -0.585344
O10   O     O_R   0.569730 0.499960 0.618810 -0.569871
O11   O     O_R   0.569740 0.500000 0.381220 -0.588675
O12   O     O_2   0.202756 0.280913 0.482929 -0.531492
C55   C     C_2   0.543217 0.879989 0.848794 0.907424
O13   O     O_2   0.577258 0.842477 0.779493 -0.587817
O14   O     O_R   0.544649 0.876360 0.994924 -0.772903
H27   H     H_    0.576075 0.842686 0.031271 0.322786
C56   C     C_2   0.538369 0.144415 0.847100 0.943604
O15   O     O_2   0.573439 0.179186 0.780037 -0.587220
O16   O     O_R   0.535483 0.168468 0.990821 -0.764461
H28   H     H_    0.564369 0.216218 0.027158 0.326205

loop_
_geom_bond_atom_site_label_1
_geom_bond_atom_site_label_2
_ccdc_geom_bond_type
C10   C27   A    
C1    O1    A    
Cu2   O9    S    
C21   C26   A    
C40   C41   A    
O14   H27   S    
C41   C42   S    
Cu1   Cu2   S    
C24   H5    S    
C28   C29   A    
C37   C38   A    
C34   O10   A    
C2    H12   S    
C45   O12   S    
C4    C7    A    
C5    C6    A    
C9    C22   A    
C42   H11   S    
C15   C16   A    
C19   N2    A    
C34   O11   A    
C18   C19   A    
C25   H7    S    
C31   H3    S    
Cu2   O5    S    
C15   H23   S    
C33   H6    S    
C49   H16   S    
C21   H22   S    
C35   H8    S    
C14   H24   S    
C16   C20   A    
C46   N3    A    
C43   H13   S    
C21   C22   A    
C27   C30   A    
C36   C41   A    
C45   N1    A    
Cu2   O11   S    
Cu1   O8    S    
C4    C28   A    
Cu2   O7    S    
C7    C31   A    
C47   N4    A    
C24   C25   A    
C2    C54   A    
C8    C54   A    
C39   C40   A    
C16   C17   A    
C25   C26   A    
C5    C45   A    
C53   H26   S    
Cu1   O6    S    
C55   O13   D    
C38   H9    S    
C8    C12   S    
C17   C18   A    
C56   O16   S    
C47   H15   S    
C52   H2    S    
C48   C49   S    
C6    C30   A    
C11   C32   A    
C20   N2    A    
C3    N1    S    
C9    C34   S    
C39   H10   S    
C49   H17   S    
C12   O7    A    
C42   C43   S    
C32   H4    S    
C44   N3    A    
C51   N1    A    
C56   O15   D    
C52   C53   A    
C44   C50   S    
C46   C47   A    
C36   C37   A    
C26   N2    S    
C55   O14   S    
C12   O6    A    
C22   H21   S    
Cu1   O10   S    
C10   C13   A    
C8    C53   A    
C3    C52   A    
C9    C24   A    
C6    H20   S    
C1    C37   S    
O16   H28   S    
C29   C35   A    
C23   O8    A    
C13   C17   A    
C32   C33   A    
C30   H25   S    
C50   H18   S    
C2    C3    A    
C7    C51   A    
C19   O4    S    
C50   H19   S    
C51   O3    S    
C11   C13   A    
Cu2   N3    S    
C38   C39   A    
Cu1   N4    S    
C20   O2    S    
C31   C35   A    
C23   O9    A    
C48   N4    A    
Cu1   O1    S    
C18   C33   A    
C43   C56   S    
C46   H14   S    
C44   C48   A    
C4    C5    A    
C11   C29   A    
C1    O5    A    
C49   C50   S    
C27   C28   A    
C14   C15   A    
C36   C43   S    
C42   C55   S    
C23   C40   S    
C10   C14   A    
C54   H1    S    
