data_mof_unit_57031.cif
_audit_creation_date              2012-12-11T15:17:57-0500
_audit_creation_method            fapswitch 2.2
_symmetry_space_group_name_H-M    P1
_symmetry_Int_Tables_number       1
_space_group_crystal_system       triclinic
_cell_length_a                    15.726361
_cell_length_b                    15.726349
_cell_length_c                    34.711413
_cell_angle_alpha                 90.000056
_cell_angle_beta                  90.0
_cell_angle_gamma                 119.999706
_cell_volume                      7434.64714302

loop_
_atom_site_label
_atom_site_type_symbol
_atom_type_description
_atom_site_fract_x
_atom_site_fract_y
_atom_site_fract_z
_atom_type_partial_charge
C1    C     C_R   0.578750 0.440932 0.555226 0.549955
C2    C     C_R   0.559069 0.137819 0.555226 0.549954
C3    C     C_R   0.862182 0.421249 0.555226 0.549947
C4    C     C_R   0.440932 0.578750 0.055226 0.549956
C5    C     C_R   0.137818 0.559068 0.055226 0.549952
C6    C     C_R   0.421249 0.862182 0.055226 0.549948
C7    C     C_R   0.965682 0.487326 0.714947 0.341091
C8    C     C_R   0.512627 0.478400 0.714936 0.341093
C9    C     C_R   0.521608 0.034249 0.714939 0.341097
C10   C     C_R   0.487317 0.965674 0.214948 0.341092
C11   C     C_R   0.478398 0.512635 0.214938 0.341095
C12   C     C_R   0.034243 0.521608 0.214938 0.341097
C13   C     C_R   0.007701 0.430834 0.854122 -0.113712
C14   C     C_R   0.569143 0.576910 0.854111 -0.113716
C15   C     C_R   0.423094 0.992245 0.854114 -0.113715
C16   C     C_R   0.430832 0.007694 0.354123 -0.113711
C17   C     C_R   0.576916 0.569145 0.354111 -0.113717
C18   C     C_R   0.992242 0.423094 0.354113 -0.113715
C19   C     C_R   0.044150 0.446253 0.891525 -0.129082
C20   C     C_R   0.553734 0.597925 0.891517 -0.129083
C21   C     C_R   0.402078 0.955816 0.891519 -0.129082
C22   C     C_R   0.446252 0.044144 0.391526 -0.129082
C23   C     C_R   0.597931 0.553735 0.391517 -0.129084
C24   C     C_R   0.955815 0.402078 0.391519 -0.129082
C25   C     C_R   0.061435 0.608835 0.891482 -0.027140
C26   C     C_R   0.391171 0.452604 0.891482 -0.027141
C27   C     C_R   0.547396 0.938569 0.891482 -0.027142
C28   C     C_R   0.608840 0.061444 0.391481 -0.027140
C29   C     C_R   0.452602 0.391177 0.391483 -0.027142
C30   C     C_R   0.938567 0.547396 0.391482 -0.027141
C31   C     C_R   0.025230 0.592698 0.853845 -0.113714
C32   C     C_R   0.407297 0.432551 0.853840 -0.113715
C33   C     C_R   0.567450 0.974752 0.853841 -0.113715
C34   C     C_R   0.592702 0.025240 0.353843 -0.113713
C35   C     C_R   0.432550 0.407304 0.353841 -0.113714
C36   C     C_R   0.974749 0.567450 0.353841 -0.113715
C37   C     C_R   0.002669 0.505817 0.834345 0.021356
C38   C     C_R   0.494162 0.496890 0.834336 0.021356
C39   C     C_R   0.503113 0.997283 0.834338 0.021356
C40   C     C_R   0.505817 0.002670 0.334345 0.021356
C41   C     C_R   0.496892 0.494167 0.334337 0.021356
C42   C     C_R   0.997280 0.503113 0.334338 0.021356
C43   C     C_R   0.076320 0.536909 0.910003 0.004973
C44   C     C_R   0.463091 0.539421 0.910000 0.004974
C45   C     C_R   0.460580 0.923673 0.910001 0.004973
C46   C     C_R   0.536910 0.076321 0.410002 0.004972
C47   C     C_R   0.539422 0.463094 0.410001 0.004974
C48   C     C_R   0.923672 0.460580 0.410001 0.004972
C49   C     C_R   0.577763 0.442066 0.445484 0.550279
C50   C     C_R   0.557936 0.135699 0.445483 0.550278
C51   C     C_R   0.864302 0.422237 0.445484 0.550280
C52   C     C_R   0.442065 0.577763 0.945484 0.550280
C53   C     C_R   0.135698 0.557936 0.945484 0.550279
C54   C     C_R   0.422237 0.864302 0.945484 0.550280
C55   C     C_R   0.908207 0.451971 0.593583 -0.016099
C56   C     C_R   0.548021 0.456234 0.593581 -0.016086
C57   C     C_R   0.543772 0.091798 0.593583 -0.016083
C58   C     C_R   0.451967 0.908203 0.093584 -0.016096
C59   C     C_R   0.456229 0.548025 0.093582 -0.016081
C60   C     C_R   0.091795 0.543771 0.093582 -0.016086
C61   C     C_R   0.962902 0.412900 0.610599 -0.040947
C62   C     C_R   0.587033 0.550005 0.610585 -0.040936
C63   C     C_R   0.450002 0.037028 0.610586 -0.040938
C64   C     C_R   0.412898 0.962900 0.110600 -0.040945
C65   C     C_R   0.550000 0.587020 0.110585 -0.040935
C66   C     C_R   0.037029 0.450000 0.110586 -0.040940
C67   C     C_R   0.985563 0.427761 0.650245 -0.034130
C68   C     C_R   0.572152 0.557818 0.650228 -0.034123
C69   C     C_R   0.442190 0.014340 0.650229 -0.034119
C70   C     C_R   0.427753 0.985556 0.150245 -0.034132
C71   C     C_R   0.557813 0.572142 0.150227 -0.034120
C72   C     C_R   0.014340 0.442189 0.150229 -0.034116
C73   C     C_R   0.952877 0.481015 0.672771 -0.001197
C74   C     C_R   0.518939 0.471886 0.672762 -0.001195
C75   C     C_R   0.528123 0.047077 0.672765 -0.001187
C76   C     C_R   0.481004 0.952867 0.172772 -0.001194
C77   C     C_R   0.471881 0.518949 0.172764 -0.001192
C78   C     C_R   0.047070 0.528121 0.172764 -0.001185
C79   C     C_R   0.903953 0.524928 0.654817 -0.028628
C80   C     C_R   0.475085 0.379039 0.654818 -0.028632
C81   C     C_R   0.620971 0.096086 0.654823 -0.028628
C82   C     C_R   0.524916 0.903942 0.154819 -0.028629
C83   C     C_R   0.379033 0.475113 0.154822 -0.028632
C84   C     C_R   0.096072 0.620968 0.154821 -0.028628
C85   C     C_R   0.883460 0.511200 0.615667 -0.142076
C86   C     C_R   0.488834 0.372260 0.615672 -0.142080
C87   C     C_R   0.627749 0.116608 0.615676 -0.142077
C88   C     C_R   0.511190 0.883449 0.115669 -0.142077
C89   C     C_R   0.372253 0.488859 0.115675 -0.142080
C90   C     C_R   0.116596 0.627747 0.115674 -0.142078
C91   C     C_R   0.983781 0.497739 0.792634 0.343456
C92   C     C_R   0.502230 0.486091 0.792623 0.343462
C93   C     C_R   0.513914 0.016155 0.792625 0.343463
C94   C     C_R   0.497736 0.983780 0.292633 0.343455
C95   C     C_R   0.486091 0.502238 0.292624 0.343463
C96   C     C_R   0.016151 0.513914 0.292625 0.343461
Cr1   Cr    Cr6+3 0.522350 0.263930 0.500020 1.077285
Cr2   Cr    Cr6+3 0.736070 0.258420 0.500020 1.077291
Cr3   Cr    Cr6+3 0.741580 0.477650 0.500020 1.077282
Cr4   Cr    Cr6+3 0.263930 0.522350 0.000020 1.077286
Cr5   Cr    Cr6+3 0.258420 0.736070 0.000020 1.077290
Cr6   Cr    Cr6+3 0.477650 0.741580 0.000020 1.077282
H1    H     H_    0.841351 0.541621 0.602997 0.151489
H2    H     H_    0.458462 0.299726 0.603009 0.151476
H3    H     H_    0.700283 0.158781 0.603014 0.151471
H4    H     H_    0.541608 0.841337 0.102999 0.151487
H5    H     H_    0.299719 0.458502 0.103014 0.151472
H6    H     H_    0.158765 0.700280 0.103012 0.151472
N1    N     N_R   0.951225 0.410883 0.774102 -0.207102
N2    N     N_R   0.589074 0.540419 0.774087 -0.207109
N3    N     N_R   0.459576 0.048660 0.774090 -0.207107
N4    N     N_R   0.410874 0.951199 0.274104 -0.207103
N5    N     N_R   0.540433 0.589078 0.274088 -0.207111
N6    N     N_R   0.048659 0.459579 0.274089 -0.207104
N7    N     N_R   0.941747 0.405660 0.735970 -0.184011
N8    N     N_R   0.594290 0.536163 0.735955 -0.184028
N9    N     N_R   0.463834 0.058135 0.735957 -0.184018
N10   N     N_R   0.405648 0.941718 0.235972 -0.184016
N11   N     N_R   0.536176 0.594295 0.235955 -0.184024
N12   N     N_R   0.058133 0.463836 0.235957 -0.184007
N13   N     N_R   0.997995 0.574065 0.733426 -0.186492
N14   N     N_R   0.425899 0.423949 0.733419 -0.186500
N15   N     N_R   0.576070 0.001985 0.733422 -0.186487
N16   N     N_R   0.574062 0.998012 0.233424 -0.186493
N17   N     N_R   0.423932 0.425911 0.233421 -0.186500
N18   N     N_R   0.001976 0.576067 0.233421 -0.186486
N19   N     N_R   0.007060 0.579185 0.771540 -0.207744
N20   N     N_R   0.420786 0.427896 0.771534 -0.207745
N21   N     N_R   0.572121 0.992921 0.771536 -0.207743
N22   N     N_R   0.579185 0.007080 0.271539 -0.207744
N23   N     N_R   0.427882 0.420798 0.271535 -0.207746
N24   N     N_R   0.992913 0.572117 0.271536 -0.207742
O1    O     O_R   0.498680 0.159540 0.541860 -0.500825
O2    O     O_R   0.840460 0.339140 0.541860 -0.500828
O3    O     O_R   0.660860 0.501320 0.541860 -0.500823
O4    O     O_R   0.159540 0.498680 0.041860 -0.500827
O5    O     O_R   0.339140 0.840460 0.041860 -0.500829
O6    O     O_R   0.501320 0.660860 0.041860 -0.500823
O7    O     O_R   0.532760 0.358060 0.540030 -0.506773
O8    O     O_R   0.641940 0.174700 0.540030 -0.506770
O9    O     O_R   0.825300 0.467240 0.540030 -0.506772
O10   O     O_R   0.358060 0.532760 0.040030 -0.506772
O11   O     O_R   0.174700 0.641940 0.040030 -0.506770
O12   O     O_R   0.467240 0.825300 0.040030 -0.506772
O13   O     O_R   0.498590 0.161190 0.456930 -0.502066
O14   O     O_R   0.838810 0.337400 0.456930 -0.502058
O15   O     O_R   0.662600 0.501410 0.456930 -0.502071
O16   O     O_R   0.161190 0.498590 0.956930 -0.502064
O17   O     O_R   0.337400 0.838810 0.956930 -0.502062
O18   O     O_R   0.501410 0.662600 0.956930 -0.502069
O19   O     O_R   0.532680 0.359580 0.461300 -0.488674
O20   O     O_R   0.640420 0.173100 0.461300 -0.488676
O21   O     O_R   0.826900 0.467320 0.461300 -0.488675
O22   O     O_R   0.359580 0.532680 0.961300 -0.488675
O23   O     O_R   0.173100 0.640420 0.961300 -0.488676
O24   O     O_R   0.467320 0.826900 0.961300 -0.488675
O25   O     O_3   0.666667 0.333333 0.499990 -0.268956
O26   O     O_3   0.333333 0.666667 0.999990 -0.268957
C97   C     C_1   0.995532 0.357502 0.587674 0.239121
N25   N     N_1   0.021646 0.313295 0.569407 -0.243253
C98   C     C_1   0.642389 0.638024 0.587651 0.239115
N26   N     N_1   0.686562 0.708337 0.569377 -0.243264
C99   C     C_1   0.361983 0.004346 0.587650 0.239113
N27   N     N_1   0.291669 0.978191 0.569375 -0.243267
C100  C     C_1   0.357508 0.995539 0.087674 0.239121
N28   N     N_1   0.313308 0.021661 0.069407 -0.243254
C101  C     C_1   0.638018 0.642355 0.087648 0.239112
N29   N     N_1   0.708330 0.686511 0.069372 -0.243267
C102  C     C_1   0.004354 0.361981 0.087651 0.239114
N30   N     N_1   0.978203 0.291668 0.069376 -0.243265
H7    H     H_    0.052548 0.388856 0.905100 0.164478
H8    H     H_    0.611128 0.663726 0.905091 0.164488
H9    H     H_    0.336279 0.947411 0.905093 0.164498
H10   H     H_    0.388853 0.052537 0.405102 0.164473
H11   H     H_    0.663733 0.611126 0.405090 0.164491
H12   H     H_    0.947410 0.336279 0.405093 0.164501
C103  C     C_1   0.042609 0.388532 0.667690 0.250530
N31   N     N_1   0.088139 0.357246 0.681581 -0.217575
C104  C     C_1   0.611309 0.654097 0.667661 0.250505
N32   N     N_1   0.642536 0.730916 0.681543 -0.217606
C105  C     C_1   0.345912 0.957206 0.667662 0.250504
N33   N     N_1   0.269094 0.911605 0.681543 -0.217610
C106  C     C_1   0.388523 0.042601 0.167690 0.250526
N34   N     N_1   0.357237 0.088131 0.181581 -0.217579
C107  C     C_1   0.654092 0.611281 0.167659 0.250503
N35   N     N_1   0.730911 0.642494 0.181540 -0.217610
C108  C     C_1   0.957210 0.345910 0.167662 0.250508
N36   N     N_1   0.911612 0.269093 0.181544 -0.217609
C109  C     C_1   0.866161 0.577739 0.676315 0.237836
N37   N     N_1   0.835643 0.619849 0.693431 -0.221297
C110  C     C_1   0.422306 0.288445 0.676324 0.237829
N38   N     N_1   0.380218 0.215825 0.693446 -0.221298
C111  C     C_1   0.711565 0.133922 0.676330 0.237823
N39   N     N_1   0.784184 0.164471 0.693453 -0.221300
C112  C     C_1   0.577729 0.866152 0.176317 0.237831
N40   N     N_1   0.619842 0.835637 0.193433 -0.221302
C113  C     C_1   0.288440 0.422358 0.176330 0.237823
N41   N     N_1   0.215821 0.380289 0.193454 -0.221304
C114  C     C_1   0.133898 0.711562 0.176328 0.237827
N42   N     N_1   0.164440 0.784182 0.193451 -0.221296
H13   H     H_    0.989291 0.362377 0.839963 0.156510
H14   H     H_    0.637589 0.626972 0.839948 0.156512
H15   H     H_    0.373034 0.010633 0.839952 0.156515
H16   H     H_    0.362372 0.989279 0.339964 0.156508
H17   H     H_    0.626980 0.637590 0.339948 0.156513
H18   H     H_    0.010631 0.373034 0.339951 0.156515
C115  C     C_1   0.086740 0.701733 0.909164 0.227527
N43   N     N_1   0.106950 0.776235 0.923229 -0.263981
C116  C     C_1   0.298293 0.384988 0.909171 0.227525
N44   N     N_1   0.223808 0.330678 0.923242 -0.263968
C117  C     C_1   0.615008 0.913299 0.909170 0.227521
N45   N     N_1   0.669315 0.893117 0.923239 -0.263979
C118  C     C_1   0.701742 0.086758 0.409160 0.227528
N46   N     N_1   0.776247 0.106976 0.423223 -0.263984
C119  C     C_1   0.384983 0.298303 0.409173 0.227523
N47   N     N_1   0.330669 0.223820 0.423245 -0.263965
C120  C     C_1   0.913297 0.615008 0.409170 0.227520
N48   N     N_1   0.893116 0.669316 0.423239 -0.263981
H19   H     H_    0.018597 0.650008 0.839182 0.150329
H20   H     H_    0.349991 0.368603 0.839178 0.150330
H21   H     H_    0.631398 0.981393 0.839179 0.150332
H22   H     H_    0.650014 0.018613 0.339178 0.150327
H23   H     H_    0.368598 0.350001 0.339180 0.150331
H24   H     H_    0.981390 0.631398 0.339179 0.150331

loop_
_geom_bond_atom_site_label_1
_geom_bond_atom_site_label_2
_ccdc_geom_bond_type
C25   C31   A    
C5    O4    A    
N4    N10   A    
C16   C40   A    
C31   H19   S    
C26   C32   A    
C100  N28   T    
N2    N8    A    
C9    N9    A    
C102  N30   T    
C6    C58   S    
C66   C102  S    
C36   C42   A    
C99   N27   T    
C3    O9    A    
Cr1   O1    S    
C119  N47   T    
C11   N11   A    
C1    O3    A    
Cr6   O26   S    
C98   N26   T    
C2    C57   S    
C26   C44   A    
C7    C73   S    
Cr2   O20   S    
C118  N46   T    
C27   C33   A    
C63   C99   S    
C28   C46   A    
C16   C22   A    
C33   C39   A    
C91   N19   A    
C29   C47   A    
C18   C24   A    
C30   C48   A    
C11   N17   A    
C1    C56   S    
C19   H7    S    
N13   N19   A    
C10   N16   A    
C18   C42   A    
C97   N25   T    
C54   O24   A    
C64   C70   A    
C55   C85   A    
C29   C119  S    
C62   C98   S    
C12   N18   A    
N3    N9    A    
Cr5   O23   S    
C68   C74   A    
C38   C92   S    
C49   O15   A    
Cr6   O6    S    
C7    N7    A    
C61   C67   A    
C39   C93   S    
C72   C78   A    
C11   C77   S    
C22   H10   S    
N5    N11   A    
C10   C76   S    
C43   C53   S    
C48   C51   S    
C66   C72   A    
C63   C69   A    
C13   H13   S    
C12   C78   S    
C80   C86   A    
C67   C73   A    
C32   C38   A    
C83   C113  S    
C81   C111  S    
C14   H14   S    
C36   H24   S    
C13   C37   A    
C1    O7    A    
C96   N24   A    
C34   H22   S    
C27   C45   A    
C60   C66   A    
C114  N42   T    
C50   O20   A    
C12   N12   A    
C61   C97   S    
N15   N21   A    
C95   N23   A    
C96   N6    A    
C109  N37   T    
C52   O22   A    
Cr6   O12   S    
C7    N13   A    
C93   N21   A    
C92   N20   A    
C8    C74   S    
C20   C44   A    
C19   C43   A    
C46   C50   S    
C57   C63   A    
C54   O17   A    
C21   C45   A    
C84   C114  S    
C58   C64   A    
C83   C89   A    
C2    O1    A    
C23   C47   A    
C49   O19   A    
N16   N22   A    
C115  N43   T    
C24   C48   A    
C14   C20   A    
C47   C49   S    
C67   C103  S    
C76   C82   A    
C101  N29   T    
C37   C91   S    
C75   C81   A    
C13   C19   A    
C112  N40   T    
Cr2   O14   S    
C51   O14   A    
C120  N48   T    
C65   C71   A    
C4    O6    A    
Cr4   O10   S    
C53   O16   A    
C57   C87   A    
C31   C37   A    
C59   C89   A    
Cr1   O25   S    
C105  N33   T    
C106  N34   T    
C72   C108  S    
C64   C100  S    
C10   N10   A    
C35   H23   S    
C14   C38   A    
C88   H4    S    
N17   N23   A    
C56   C86   A    
C117  N45   T    
C87   H3    S    
Cr2   O25   S    
N18   N24   A    
C89   H5    S    
C27   C117  S    
C116  N44   T    
Cr1   O19   S    
Cr3   O3    S    
C17   C23   A    
C15   C39   A    
C82   C112  S    
C32   H20   S    
C35   C41   A    
Cr6   O18   S    
C30   C120  S    
Cr4   O16   S    
C50   O13   A    
C25   C43   A    
C22   C46   A    
C93   N3    A    
C45   C54   S    
C53   O23   A    
C21   H9    S    
Cr3   O25   S    
C70   C76   A    
C80   C110  S    
C42   C96   S    
C90   H6    S    
C55   C61   A    
C6    O12   A    
C24   H12   S    
Cr6   O24   S    
C71   C77   A    
C84   C90   A    
Cr4   O22   S    
C28   C118  S    
Cr2   O2    S    
C51   O21   A    
Cr5   O5    S    
C68   C104  S    
C5    C60   S    
C20   H8    S    
Cr1   O13   S    
C103  N31   T    
Cr3   O9    S    
C40   C94   S    
C73   C79   A    
C85   H1    S    
C86   H2    S    
Cr5   O26   S    
C15   H15   S    
C60   C90   A    
C29   C35   A    
C65   C101  S    
C8    N8    A    
C3    C55   S    
C30   C36   A    
C18   H18   S    
C3    O2    A    
C2    O8    A    
C91   N1    A    
C6    O5    A    
C17   H17   S    
Cr3   O15   S    
C108  N36   T    
C92   N2    A    
C16   H16   S    
C59   C65   A    
C4    O10   A    
C81   C87   A    
C44   C52   S    
C107  N35   T    
C41   C95   S    
C95   N5    A    
C82   C88   A    
Cr3   O21   S    
C4    C59   S    
Cr5   O17   S    
C9    N15   A    
C79   C85   A    
Cr5   O11   S    
C69   C75   A    
C26   C116  S    
C56   C62   A    
C62   C68   A    
C8    N14   A    
N14   N20   A    
C113  N41   T    
C110  N38   T    
C17   C41   A    
C78   C84   A    
C5    O11   A    
C71   C107  S    
N1    N7    A    
C28   C34   A    
C104  N32   T    
Cr4   O26   S    
C70   C106  S    
C15   C21   A    
C23   H11   S    
C52   O18   A    
C111  N39   T    
C79   C109  S    
Cr2   O8    S    
C77   C83   A    
C34   C40   A    
C74   C80   A    
C9    C75   S    
C94   N22   A    
C25   C115  S    
C58   C88   A    
Cr1   O7    S    
C94   N4    A    
N6    N12   A    
Cr4   O4    S    
C69   C105  S    
C33   H21   S    
