data_mof_unit_45406.cif
_audit_creation_date              2012-12-10T19:09:26-0500
_audit_creation_method            fapswitch 2.2
_symmetry_space_group_name_H-M    P1
_symmetry_Int_Tables_number       1
_space_group_crystal_system       triclinic
_cell_length_a                    15.480281
_cell_length_b                    14.876925
_cell_length_c                    9.668776
_cell_angle_alpha                 90.301754
_cell_angle_beta                  89.548971
_cell_angle_gamma                 89.863889
_cell_volume                      2226.60286881

loop_
_atom_site_label
_atom_site_type_symbol
_atom_type_description
_atom_site_fract_x
_atom_site_fract_y
_atom_site_fract_z
_atom_type_partial_charge
C1    C     C_R   0.121473 0.378914 0.499961 0.894240
C2    C     C_R   0.121610 0.620699 0.499705 0.888867
C3    C     C_R   0.620974 0.878440 0.499703 0.926727
C4    C     C_R   0.623116 0.119516 0.500020 0.913555
C5    C     C_3   0.909818 0.494210 0.082592 -0.258993
C6    C     C_3   0.910088 0.492659 0.919943 -0.226477
C7    C     C_3   0.409922 0.007072 0.082542 -0.249837
C8    C     C_3   0.409923 0.006201 0.919831 -0.249691
C9    C     C_R   0.881957 0.375618 0.500245 0.899718
C10   C     C_R   0.880283 0.623051 0.501148 0.908875
C11   C     C_R   0.381142 0.875853 0.499546 0.887979
C12   C     C_R   0.381272 0.123954 0.501096 0.909570
C13   C     C_3   0.808972 0.261523 0.653289 0.444217
C14   C     C_3   0.836565 0.231112 0.381622 0.492245
C15   C     C_3   0.843397 0.777515 0.412542 0.462684
C16   C     C_3   0.786243 0.718465 0.660809 0.490399
C17   C     C_3   0.342857 0.719486 0.587818 0.502538
C18   C     C_3   0.288967 0.780074 0.340385 0.519312
C19   C     C_3   0.340769 0.275052 0.402486 0.518728
C20   C     C_3   0.292862 0.225224 0.660688 0.479743
C21   C     C_3   0.276485 0.643646 0.556663 0.278872
C22   C     C_3   0.209133 0.716882 0.346353 0.158702
C23   C     C_3   0.274714 0.352200 0.431664 0.208670
C24   C     C_3   0.213408 0.289279 0.655311 0.170418
C25   C     C_3   0.736541 0.188729 0.647468 0.197415
C26   C     C_3   0.765847 0.156578 0.393141 0.186800
C27   C     C_3   0.775393 0.853626 0.439935 0.188052
C28   C     C_3   0.706722 0.782006 0.653187 0.151944
C29   C     C_3   0.729789 0.348950 0.466979 -0.358888
C30   C     C_3   0.731642 0.653232 0.434617 -0.362071
C31   C     C_3   0.232141 0.844710 0.567206 -0.359806
C32   C     C_3   0.231072 0.151708 0.445784 -0.347878
C33   C     C_3   0.817911 0.303118 0.501583 -0.091692
C34   C     C_3   0.814075 0.693755 0.504453 -0.102586
C35   C     C_3   0.315128 0.804546 0.497071 -0.171081
C36   C     C_3   0.315348 0.194825 0.504358 -0.127752
C37   C     C_3   0.191731 0.686488 0.498245 -0.067868
C38   C     C_3   0.191636 0.312672 0.502019 -0.053686
C39   C     C_3   0.694548 0.184976 0.500682 -0.034935
C40   C     C_3   0.690626 0.811696 0.500678 -0.023200
C41   C     C_3   0.165098 0.769855 0.586223 -0.369759
C42   C     C_3   0.162401 0.225121 0.428363 -0.385159
C43   C     C_3   0.658155 0.278412 0.463520 -0.404470
C44   C     C_3   0.664635 0.728086 0.413976 -0.382729
C45   C     C_3   0.048381 0.422870 0.080297 -0.238129
C46   C     C_3   0.049918 0.424083 0.917742 -0.247197
C47   C     C_3   0.037062 0.583668 0.919013 -0.251679
C48   C     C_3   0.037966 0.583179 0.081687 -0.233522
C49   C     C_3   0.538105 0.916679 0.080219 -0.257177
C50   C     C_3   0.537731 0.916472 0.917564 -0.243472
C51   C     C_3   0.548784 0.076188 0.918771 -0.229007
C52   C     C_3   0.548155 0.076816 0.081217 -0.228852
H1    H     H_    0.303818 0.597307 0.476226 -0.046208
H2    H     H_    0.222026 0.655151 0.282944 0.072982
H3    H     H_    0.303654 0.400773 0.506283 -0.010267
H4    H     H_    0.228460 0.353720 0.709884 0.072322
H5    H     H_    0.761144 0.119861 0.665680 0.065629
H6    H     H_    0.794748 0.092547 0.431322 0.022363
H7    H     H_    0.800170 0.902231 0.518334 0.014511
H8    H     H_    0.719278 0.844123 0.715309 0.077202
H9    H     H_    0.712767 0.402344 0.543590 0.219823
H10   H     H_    0.732370 0.384260 0.365810 0.204587
H11   H     H_    0.746438 0.621313 0.332728 0.204796
H12   H     H_    0.703095 0.598938 0.499005 0.211443
H13   H     H_    0.246067 0.875563 0.669760 0.204633
H14   H     H_    0.204281 0.899614 0.503683 0.218580
H15   H     H_    0.242107 0.117386 0.344545 0.217654
H16   H     H_    0.206140 0.098460 0.515883 0.215459
H17   H     H_    0.160378 0.751339 0.697419 0.223681
H18   H     H_    0.101004 0.795434 0.555718 0.186998
H19   H     H_    0.150990 0.237803 0.316626 0.223237
H20   H     H_    0.101619 0.200134 0.475214 0.202374
H21   H     H_    0.606766 0.298015 0.538654 0.207994
H22   H     H_    0.629642 0.276524 0.358335 0.216091
H23   H     H_    0.661318 0.745911 0.302471 0.222968
H24   H     H_    0.600067 0.702911 0.444215 0.179796
H25   H     H_    0.019907 0.358652 0.117400 0.160068
H26   H     H_    0.024561 0.359650 0.877479 0.155769
H27   H     H_    0.000507 0.643009 0.882383 0.151468
H28   H     H_    0.002806 0.643099 0.122662 0.176616
H29   H     H_    0.503033 0.857008 0.119505 0.155994
H30   H     H_    0.501973 0.856822 0.878884 0.151991
H31   H     H_    0.522774 0.140812 0.879361 0.188758
H32   H     H_    0.520658 0.141307 0.120671 0.166620
H33   H     H_    0.115839 0.424689 0.118834 0.194304
H34   H     H_    0.118011 0.428935 0.880982 0.161645
H35   H     H_    0.104311 0.591697 0.879795 0.191345
H36   H     H_    0.105833 0.589031 0.117283 0.151561
H37   H     H_    0.605780 0.909944 0.116630 0.189330
H38   H     H_    0.605296 0.909475 0.879327 0.150465
H39   H     H_    0.616596 0.070066 0.882194 0.166248
H40   H     H_    0.615692 0.073339 0.117522 0.207290
H41   H     H_    0.877473 0.432716 0.121778 0.198624
H42   H     H_    0.880090 0.429472 0.883828 0.185408
H43   H     H_    0.869333 0.548155 0.880821 0.202682
H44   H     H_    0.870574 0.552145 0.120549 0.172539
H45   H     H_    0.369989 0.951010 0.121730 0.199486
H46   H     H_    0.370273 0.949072 0.881784 0.162213
H47   H     H_    0.378536 0.068144 0.882472 0.202465
H48   H     H_    0.378535 0.069877 0.120717 0.186770
N1    N     N_3   0.998760 0.500000 0.138610 -0.039926
N2    N     N_3   0.998760 0.500000 0.861390 -0.043041
N3    N     N_3   0.498760 0.000000 0.138610 -0.046386
N4    N     N_3   0.498760 0.000000 0.861390 -0.044025
O1    O     O_R   0.092530 0.407440 0.616040 -0.627224
O2    O     O_R   0.092530 0.407440 0.383960 -0.610587
O3    O     O_R   0.092530 0.592560 0.383960 -0.630745
O4    O     O_R   0.092530 0.592560 0.616040 -0.621107
O5    O     O_R   0.592530 0.907440 0.616040 -0.644104
O6    O     O_R   0.592530 0.907440 0.383960 -0.598204
O7    O     O_R   0.592530 0.092560 0.383960 -0.587118
O8    O     O_R   0.592530 0.092560 0.616040 -0.608886
O9    O     O_R   0.907330 0.407420 0.616040 -0.591320
O10   O     O_R   0.907330 0.407420 0.383960 -0.596028
O11   O     O_R   0.907330 0.592580 0.383960 -0.606078
O12   O     O_R   0.907330 0.592580 0.616040 -0.593839
O13   O     O_R   0.407330 0.907420 0.616040 -0.642756
O14   O     O_R   0.407330 0.907420 0.383960 -0.583694
O15   O     O_R   0.407330 0.092580 0.383960 -0.606319
O16   O     O_R   0.407330 0.092580 0.616040 -0.589422
Zn1   Zn    Zn3+2 0.999890 0.500000 0.654960 0.931921
Zn2   Zn    Zn3+2 0.999890 0.500000 0.345040 0.931079
Zn3   Zn    Zn3+2 0.499890 0.000000 0.654960 0.920599
Zn4   Zn    Zn3+2 0.499890 0.000000 0.345040 0.946376
O17   O     O_3   0.778897 0.332395 0.740489 -0.724248
H49   H     H_    0.780160 0.312783 0.838508 0.339426
O18   O     O_3   0.829007 0.277315 0.254038 -0.734744
H50   H     H_    0.836663 0.235498 0.174894 0.366913
O19   O     O_3   0.838956 0.749528 0.272224 -0.742982
H51   H     H_    0.860010 0.797976 0.210968 0.368961
O20   O     O_3   0.762627 0.636899 0.726522 -0.720180
H52   H     H_    0.738833 0.649236 0.820098 0.356637
O21   O     O_3   0.333986 0.741642 0.730203 -0.707840
H53   H     H_    0.383589 0.778891 0.759513 0.336888
O22   O     O_3   0.265983 0.861683 0.274495 -0.730085
H54   H     H_    0.243101 0.849341 0.180940 0.352229
O23   O     O_3   0.329800 0.242663 0.265370 -0.750348
H55   H     H_    0.348479 0.288716 0.198053 0.379075
O24   O     O_3   0.270421 0.146501 0.734945 -0.729620
H56   H     H_    0.251869 0.162237 0.830292 0.354308
C53   C     C_3   0.898398 0.228159 0.715593 -0.464731
C54   C     C_3   0.903908 0.133092 0.775174 -0.968709
H57   H     H_    0.853348 0.123089 0.855736 0.254695
H58   H     H_    0.898496 0.081304 0.692720 0.248876
H59   H     H_    0.967797 0.123898 0.824766 0.287564
H60   H     H_    0.953266 0.238249 0.643834 0.216382
H61   H     H_    0.915836 0.272919 0.802877 0.232011
C55   C     C_3   0.928982 0.188891 0.388826 -0.507828
C56   C     C_3   0.958421 0.134490 0.261728 -0.901425
H62   H     H_    0.910522 0.082333 0.234256 0.245990
H63   H     H_    0.970653 0.179038 0.171953 0.263113
H64   H     H_    0.020250 0.099974 0.285239 0.260535
H65   H     H_    0.976174 0.243815 0.402091 0.211986
H66   H     H_    0.933289 0.142442 0.477346 0.196486
C57   C     C_3   0.938973 0.807992 0.438923 -0.485832
C58   C     C_3   0.965403 0.899084 0.378165 -0.848457
H67   H     H_    0.954051 0.902488 0.265338 0.253703
H68   H     H_    0.931079 0.954975 0.431627 0.235820
H69   H     H_    0.035571 0.909576 0.394667 0.284683
H70   H     H_    0.954990 0.810912 0.548538 0.155400
H71   H     H_    0.982552 0.756301 0.393440 0.276883
C59   C     C_3   0.858934 0.765921 0.747682 -0.516824
C60   C     C_3   0.841991 0.771018 0.904152 -0.877366
H72   H     H_    0.776888 0.798760 0.927720 0.250710
H73   H     H_    0.848635 0.703850 0.952229 0.265726
H74   H     H_    0.890714 0.815742 0.952371 0.249665
H75   H     H_    0.922090 0.732278 0.733301 0.226119
H76   H     H_    0.866242 0.836588 0.713515 0.173816
C61   C     C_3   0.437604 0.685554 0.563175 -0.541024
C62   C     C_3   0.464233 0.609368 0.660326 -0.658278
H77   H     H_    0.458465 0.630508 0.770283 0.272494
H78   H     H_    0.424262 0.548649 0.642495 0.238395
H79   H     H_    0.532654 0.590788 0.639504 0.254017
H80   H     H_    0.449048 0.660569 0.457571 0.161307
H81   H     H_    0.482601 0.742281 0.580043 0.232647
C63   C     C_3   0.363488 0.732447 0.255160 -0.533792
C64   C     C_3   0.351402 0.731275 0.097705 -0.827052
H82   H     H_    0.287083 0.704105 0.069838 0.259495
H83   H     H_    0.358887 0.799423 0.053641 0.250180
H84   H     H_    0.401635 0.687707 0.049145 0.255916
H85   H     H_    0.427235 0.762716 0.276892 0.221240
H86   H     H_    0.367575 0.660729 0.284306 0.171244
C65   C     C_3   0.437140 0.306605 0.414688 -0.512291
C66   C     C_3   0.458400 0.396942 0.345885 -0.847261
H87   H     H_    0.442850 0.396568 0.234222 0.266264
H88   H     H_    0.423947 0.453403 0.397629 0.254631
H89   H     H_    0.528613 0.410364 0.355328 0.240148
H90   H     H_    0.458798 0.311312 0.521876 0.166106
H91   H     H_    0.478840 0.254684 0.365093 0.230194
C67   C     C_3   0.369531 0.274108 0.736169 -0.504032
C68   C     C_3   0.358155 0.286285 0.892986 -0.876096
H92   H     H_    0.294119 0.315616 0.919417 0.252561
H93   H     H_    0.366145 0.221371 0.947280 0.257017
H94   H     H_    0.408745 0.332475 0.932206 0.259891
H95   H     H_    0.431376 0.237861 0.719727 0.239622
H96   H     H_    0.377174 0.342905 0.694379 0.177111
O25   O     O_3   0.259861 0.594340 0.678337 -0.700122
H97   H     H_    0.252794 0.530314 0.651347 0.305761
O26   O     O_3   0.134819 0.759920 0.294758 -0.753464
H98   H     H_    0.131940 0.746551 0.194216 0.321391
O27   O     O_3   0.255211 0.397276 0.307698 -0.750853
H99   H     H_    0.253744 0.462753 0.328204 0.320092
O28   O     O_3   0.140400 0.250036 0.719201 -0.744990
H100  H     H_    0.143430 0.264281 0.819411 0.319321
O29   O     O_3   0.673272 0.207866 0.749214 -0.730973
H101  H     H_    0.698041 0.189630 0.839234 0.320277
O30   O     O_3   0.728916 0.140823 0.262698 -0.751418
H102  H     H_    0.763352 0.093195 0.215837 0.319564
O31   O     O_3   0.757345 0.900036 0.316681 -0.753349
H103  H     H_    0.800907 0.948197 0.306660 0.321956
O32   O     O_3   0.631770 0.740021 0.705651 -0.757605
H104  H     H_    0.628863 0.752821 0.806416 0.320230

loop_
_geom_bond_atom_site_label_1
_geom_bond_atom_site_label_2
_ccdc_geom_bond_type
C16   C28   S    
C31   H14   S    
O28   H100  S    
C52   N3    S    
C43   H21   S    
C67   C68   S    
C30   H12   S    
C61   C62   S    
C19   C23   S    
C26   O30   S    
C47   H27   S    
O4    Zn1   S    
C30   C44   S    
C14   C33   S    
C7    C8    S    
C24   O28   S    
N4    Zn3   S    
O15   Zn4   S    
C57   H71   S    
C28   O32   S    
C63   H86   S    
C46   N2    S    
C55   H66   S    
C23   O27   S    
C37   C41   S    
C9    O10   A    
C32   C36   S    
C20   O24   S    
C58   H67   S    
C60   H73   S    
C8    H47   S    
C38   C42   S    
C19   C36   S    
C56   H63   S    
C20   C67   S    
C5    C6    S    
C17   C61   S    
C26   C39   S    
C62   H77   S    
C28   C40   S    
C3    O6    A    
C10   O11   A    
C14   C55   S    
C2    O3    A    
C27   O31   S    
C66   H87   S    
C21   C37   S    
C52   H32   S    
O27   H99   S    
C49   H29   S    
C44   H24   S    
C16   O20   S    
C8    H46   S    
C51   H39   S    
C12   O16   A    
C50   H38   S    
C20   C24   S    
C29   C33   S    
C66   H88   S    
C18   C63   S    
C6    H42   S    
C24   C38   S    
C61   H80   S    
C48   H36   S    
C13   C53   S    
C12   C36   S    
N2    Zn1   S    
C7    H45   S    
C18   C35   S    
C15   C34   S    
C15   C57   S    
O16   Zn3   S    
C67   H96   S    
C1    O2    A    
C32   H16   S    
C13   O17   S    
C43   H22   S    
C4    O8    A    
O26   H98   S    
C47   N2    S    
C7    N3    S    
C30   H11   S    
C29   C43   S    
C9    C33   S    
C54   H59   S    
C13   C25   S    
C25   H5    S    
C25   O29   S    
N3    Zn4   S    
C65   H91   S    
C2    O4    A    
C29   H9    S    
C28   H8    S    
C63   H85   S    
C5    N1    S    
O12   Zn1   S    
C30   C34   S    
O30   H102  S    
C47   C48   S    
C22   O26   S    
O22   H54   S    
C60   H74   S    
C55   C56   S    
O8    Zn3   S    
C22   H2    S    
C7    H48   S    
C56   H64   S    
C19   C65   S    
C46   H26   S    
O5    Zn3   S    
C39   C43   S    
C16   C59   S    
C51   N4    S    
C45   C46   S    
C22   C37   S    
C17   C21   S    
C14   O18   S    
C68   H92   S    
C20   C36   S    
C44   H23   S    
C45   H33   S    
C65   C66   S    
C68   H93   S    
C65   H90   S    
C13   C33   S    
C12   O15   A    
C8    N4    S    
C15   C27   S    
O32   H104  S    
C15   O19   S    
C4    C39   S    
C27   C40   S    
C19   O23   S    
C64   H84   S    
C16   C34   S    
O2    Zn2   S    
C42   H20   S    
O31   H103  S    
C61   H81   S    
O1    Zn1   S    
C18   O22   S    
C10   C34   S    
O14   Zn4   S    
C14   C26   S    
C26   H6    S    
C45   N1    S    
C1    C38   S    
C32   H15   S    
C59   H76   S    
C67   H95   S    
C63   C64   S    
C4    O7    A    
C3    C40   S    
C6    H43   S    
C17   O21   S    
O21   H53   S    
C49   C50   S    
C54   H58   S    
C52   H40   S    
O11   Zn2   S    
C55   H65   S    
O18   H50   S    
C11   O13   A    
C51   H31   S    
C5    H44   S    
C10   O12   A    
C50   H30   S    
C41   H17   S    
C59   C60   S    
C57   H70   S    
C31   H13   S    
O29   H101  S    
C29   H10   S    
C49   H37   S    
C31   C41   S    
O7    Zn4   S    
C18   C22   S    
C58   H69   S    
C21   O25   S    
C49   N3    S    
C5    H41   S    
O24   H56   S    
C23   H3    S    
C24   H4    S    
C23   C38   S    
O23   H55   S    
N1    Zn2   S    
C66   H89   S    
C9    O9    A    
C48   H28   S    
C58   H68   S    
O19   H51   S    
C68   H94   S    
C51   C52   S    
C27   H7    S    
C56   H62   S    
C25   C39   S    
C21   H1    S    
C2    C37   S    
O17   H49   S    
C62   H78   S    
C3    O5    A    
C48   N1    S    
C11   C35   S    
C42   H19   S    
C64   H83   S    
C31   C35   S    
C6    N2    S    
O13   Zn3   S    
O25   H97   S    
C60   H72   S    
C53   H61   S    
C59   H75   S    
O10   Zn2   S    
C40   C44   S    
O9    Zn1   S    
C64   H82   S    
C57   C58   S    
C53   H60   S    
C32   C42   S    
C54   H57   S    
C45   H25   S    
C17   C35   S    
O3    Zn2   S    
O6    Zn4   S    
C53   C54   S    
C11   O14   A    
C50   N4    S    
O20   H52   S    
C1    O1    A    
C41   H18   S    
C46   H34   S    
C62   H79   S    
C47   H35   S    
