data_mof_unit_34337.cif
_audit_creation_date              2013-03-05T16:00:37-0500
_audit_creation_method            fapswitch 2.2
_symmetry_space_group_name_H-M    P1
_symmetry_Int_Tables_number       1
_space_group_crystal_system       triclinic
_cell_length_a                    10.795154
_cell_length_b                    14.695129
_cell_length_c                    14.777286
_cell_angle_alpha                 64.520761
_cell_angle_beta                  104.577198
_cell_angle_gamma                 104.226756
_cell_volume                      2022.57550501

loop_
_atom_site_label
_atom_site_type_symbol
_atom_site_description
_atom_site_fract_x
_atom_site_fract_y
_atom_site_fract_z
_atom_type_partial_charge
O1    O     O_R   0.455060 0.022100 0.338110 -0.576366
O2    O     O_R   0.512640 0.160150 0.379180 -0.605300
C1    C     C_R   0.473477 0.119740 0.312151 0.825811
O3    O     O_R   0.288900 0.930980 0.479450 -0.561325
O4    O     O_R   0.346480 0.069030 0.520520 -0.606329
C2    C     C_R   0.259699 0.002603 0.494422 0.848393
Cu1   Cu    Cu3+1 0.465900 0.918260 0.475680 0.958221
Cu2   Cu    Cu3+1 0.534100 0.081740 0.524320 0.957599
O5    O     O_R   0.487360 0.839850 0.620820 -0.594916
O6    O     O_R   0.544940 0.977900 0.661890 -0.588511
O7    O     O_R   0.653520 0.930970 0.479480 -0.597932
O8    O     O_R   0.711100 0.069020 0.520550 -0.527379
C3    C     C_R   0.515716 0.880035 0.687579 0.793652
C4    C     C_R   0.741121 0.002644 0.498576 0.792549
C5    C     C_3   0.026522 0.930767 0.443446 0.216066
H1    H     H_    0.041726 0.851295 0.496005 0.112170
C6    C     C_3   0.886332 0.941000 0.439912 -0.517344
H2    H     H_    0.832015 0.968602 0.361390 0.205892
H3    H     H_    0.834569 0.862181 0.476703 0.180267
H4    H     H_    0.137071 0.893474 0.649311 0.154423
H5    H     H_    0.923788 0.873754 0.629746 0.125130
C7    C     C_3   0.103223 0.968467 0.601882 -0.496215
C8    C     C_3   0.091533 0.114469 0.429115 -0.418278
C9    C     C_3   0.122037 0.004079 0.490394 -0.030144
H6    H     H_    0.168554 0.165302 0.458634 0.211074
H7    H     H_    0.106734 0.142674 0.349705 0.181062
C10   C     C_3   0.881784 0.009589 0.496478 -0.048001
C11   C     C_3   0.958759 0.957332 0.607276 -0.143132
C12   C     C_3   0.953460 0.124685 0.437675 0.325020
H8    H     H_    0.167125 0.022717 0.633770 0.191741
C13   C     C_R   0.446352 0.186091 0.204270 -0.017324
C14   C     C_R   0.504410 0.812047 0.793409 -0.061518
C15   C     C_R   0.410013 0.213822 0.026757 -0.210147
C16   C     C_R   0.428446 0.148361 0.128769 -0.151133
C17   C     C_R   0.438673 0.288407 0.176941 -0.263913
C18   C     C_R   0.422509 0.356579 0.074472 0.086117
C19   C     C_R   0.410717 0.317885 0.999172 0.153147
C20   C     C_R   0.426435 0.462913 0.045262 0.061933
C21   C     C_R   0.434673 0.530086 0.942609 0.061793
C22   C     C_R   0.416297 0.488059 0.869255 -0.222860
C23   C     C_R   0.403041 0.383680 0.897253 -0.231215
C24   C     C_R   0.423047 0.504465 0.114946 -0.221679
C25   C     C_R   0.436136 0.609185 0.086306 -0.222861
C26   C     C_R   0.456756 0.676156 0.988430 0.163333
C27   C     C_R   0.459008 0.637212 0.916321 0.091479
C28   C     C_R   0.475175 0.781950 0.961646 -0.196589
C29   C     C_R   0.496691 0.849579 0.864039 -0.216937
C30   C     C_R   0.489097 0.706879 0.820872 -0.255873
H9    H     H_    0.390892 0.354634 0.838873 0.152385
H10   H     H_    0.503128 0.681048 0.766632 0.144518
H11   H     H_    0.507058 0.930873 0.843826 0.156927
H12   H     H_    0.432317 0.637935 0.141785 0.151175
H13   H     H_    0.399511 0.183721 0.969450 0.132826
H14   H     H_    0.431938 0.068903 0.148503 0.152944
H15   H     H_    0.453870 0.314330 0.237414 0.139778
H16   H     H_    0.408580 0.533883 0.788820 0.150846
H17   H     H_    0.406509 0.457808 0.191683 0.141415
H18   H     H_    0.471651 0.812285 0.015918 0.139433
N1    N     N_R   0.585360 0.204570 0.560800 -0.186006
N2    N     N_R   0.414550 0.795430 0.439160 -0.188160
C31   C     C_R   0.714362 0.284674 0.671009 -0.303215
C32   C     C_R   0.680504 0.202769 0.641191 0.145628
C33   C     C_R   0.519387 0.285428 0.507988 0.002084
C34   C     C_R   0.548199 0.371257 0.535155 -0.017878
C35   C     C_R   0.648555 0.368899 0.618624 0.155526
C36   C     C_R   0.481291 0.458097 0.483789 0.076388
C37   C     C_R   0.517416 0.541287 0.516792 0.079948
C38   C     C_R   0.618122 0.534267 0.600578 -0.230369
C39   C     C_R   0.681977 0.449939 0.650088 -0.187782
C40   C     C_R   0.379195 0.464402 0.401016 -0.197388
C41   C     C_R   0.314497 0.548288 0.352170 -0.172667
C42   C     C_R   0.348797 0.629774 0.383056 0.145180
C43   C     C_R   0.450929 0.628340 0.465181 -0.017953
C44   C     C_R   0.281581 0.713260 0.331836 -0.299620
C45   C     C_R   0.316041 0.795496 0.361259 0.097684
C46   C     C_R   0.481722 0.715174 0.490959 0.008572
H19   H     H_    0.758433 0.448038 0.714255 0.141098
H20   H     H_    0.559434 0.721615 0.550915 0.119007
H21   H     H_    0.264931 0.860224 0.321106 0.186147
H22   H     H_    0.236602 0.549428 0.289064 0.151921
H23   H     H_    0.790858 0.281740 0.735350 0.140572
H24   H     H_    0.729775 0.137072 0.682707 0.160379
H25   H     H_    0.444034 0.280178 0.446227 0.122079
H26   H     H_    0.649761 0.592739 0.630602 0.125946
H27   H     H_    0.346100 0.405186 0.372028 0.135452
H28   H     H_    0.203141 0.715167 0.268944 0.156039
N3    N     N_R   0.978668 0.192820 0.493865 0.093303
O9    O     O_R   0.900388 0.186452 0.550779 -0.389192
O10   O     O_R   0.057867 0.278728 0.463435 -0.395314
C47   C     C_R   0.937151 0.977898 0.695294 0.172178
C48   C     C_R   0.843735 0.909802 0.754998 -0.165162
C49   C     C_R   0.830212 0.917921 0.842762 -0.133716
C50   C     C_R   0.907654 0.995107 0.871768 -0.137505
C51   C     C_R   0.000976 0.063098 0.814296 -0.167163
C52   C     C_R   0.017507 0.053736 0.728033 -0.029313
H29   H     H_    0.783080 0.848355 0.735021 0.099488
H30   H     H_    0.760983 0.863272 0.889393 0.154482
H31   H     H_    0.896307 0.001525 0.939414 0.149399
H32   H     H_    0.061802 0.122641 0.837210 0.140086
H33   H     H_    0.091707 0.108038 0.686647 0.154826
N4    N     N_R   0.045061 0.944707 0.342525 0.109070
O11   O     O_R   0.977301 0.880418 0.302815 -0.381480
O12   O     O_R   0.131481 0.015945 0.293766 -0.421148
C53   C     C_R   0.875715 0.179937 0.330224 0.032733
C54   C     C_R   0.878416 0.161077 0.244449 -0.202561
C55   C     C_R   0.817494 0.217879 0.147326 -0.114699
C56   C     C_R   0.754422 0.296401 0.132405 -0.097652
C57   C     C_R   0.749350 0.316575 0.215062 -0.166512
C58   C     C_R   0.805812 0.257655 0.312871 -0.036910
H34   H     H_    0.930088 0.104450 0.250249 0.194181
H35   H     H_    0.821547 0.202141 0.083064 0.136784
H36   H     H_    0.709255 0.341495 0.056856 0.137180
H37   H     H_    0.700770 0.377885 0.203567 0.143074
H38   H     H_    0.795882 0.275634 0.373986 0.197036

loop_
_geom_bond_atom_site_label_1
_geom_bond_atom_site_label_2
_geom_bond_distance
_ccdc_geom_bond_type
C54   H34   1.074097 S    
C50   C51   1.392958 A    
C10   C12   1.626396 S    
C56   H36   1.082374 S    
C3    C14   1.466515 S    
C39   H19   1.084294 S    
C17   C18   1.405226 A    
N3    O9    1.296682 A    
C47   C52   1.416324 A    
Cu1   O7    1.976377 S    
N4    O11   1.301208 A    
C8    C12   1.575252 S    
C18   C19   1.419579 A    
C46   H20   1.075495 S    
C20   C24   1.416138 A    
Cu2   N1    2.012689 S    
O4    C2    1.292974 A    
O7    C4    1.309620 A    
C25   H12   1.084393 S    
C55   C56   1.391168 A    
C5    H1    1.115220 S    
C57   C58   1.396236 A    
C5    C6    1.543030 S    
C8    H7    1.104891 S    
O5    C3    1.294596 A    
C53   C54   1.417431 A    
C48   H29   1.082906 S    
C14   C29   1.400752 A    
C38   C39   1.389972 A    
C22   H16   1.078097 S    
C8    C9    1.551962 S    
C40   C41   1.390058 A    
C37   C43   1.438621 A    
C4    C10   1.503977 S    
C6    C10   1.576983 S    
C21   C27   1.421292 A    
C30   H10   1.077311 S    
C36   C37   1.437808 A    
C32   H24   1.081613 S    
N4    O12   1.301827 A    
C7    C11   1.546335 S    
C28   H18   1.083818 S    
C14   C30   1.396084 A    
C51   C52   1.397566 A    
O3    Cu1   1.981684 S    
C24   H17   1.077341 S    
C23   H9    1.084434 S    
C41   H22   1.084330 S    
C26   C28   1.404059 A    
C49   H30   1.079983 S    
C6    H2    1.106445 S    
C55   H35   1.082596 S    
C15   H13   1.083971 S    
C20   C21   1.421214 A    
C44   C45   1.391944 A    
C17   H15   1.076562 S    
C37   C38   1.411794 A    
C38   H26   1.076705 S    
Cu1   Cu2   2.679534 S    
C42   C44   1.402395 A    
C48   C49   1.398057 A    
C52   H33   1.079322 S    
C29   H11   1.083039 S    
N2    C46   1.366344 A    
C15   C19   1.401517 A    
C12   C53   1.561969 S    
C33   H25   1.075461 S    
O1    C1    1.292299 A    
C34   C36   1.438757 A    
C57   H37   1.082280 S    
C25   C26   1.392735 A    
Cu2   O8    1.981685 S    
C2    C9    1.477383 S    
C15   C16   1.390271 A    
C13   C16   1.400201 A    
C5    N4    1.474222 S    
C1    C13   1.464885 S    
C58   H38   1.079292 S    
O3    C2    1.286324 A    
C5    C9    1.562717 S    
H5    C11   1.116040 S    
O8    C4    1.281690 A    
C16   H14   1.083044 S    
N3    O10   1.304418 A    
C43   C46   1.424742 A    
C7    C9    1.550397 S    
C24   C25   1.389278 A    
C56   C57   1.391406 A    
Cu1   N2    2.013022 S    
C21   C22   1.415362 A    
C26   C27   1.417095 A    
C27   C30   1.402794 A    
Cu1   O5    1.932941 S    
C28   C29   1.394253 A    
C22   C23   1.385747 A    
N1    C32   1.356096 A    
C7    H8    1.105775 S    
O1    Cu1   1.942675 S    
O2    Cu2   1.932941 S    
H4    C7    1.115203 S    
C42   C43   1.415875 A    
O6    C3    1.295942 A    
O4    Cu2   1.976377 S    
C44   H28   1.083818 S    
C54   C55   1.397531 A    
N2    C45   1.356239 A    
N1    C33   1.366188 A    
C34   C35   1.416084 A    
C18   C20   1.423425 A    
O2    C1    1.297832 A    
C41   C42   1.395165 A    
C31   H23   1.083878 S    
C47   C48   1.410306 A    
C36   C40   1.411917 A    
C51   H32   1.082599 S    
C35   C39   1.394766 A    
C49   C50   1.393183 A    
C6    H3    1.114635 S    
C13   C17   1.397356 A    
C8    H6    1.110014 S    
C19   C23   1.390576 A    
C31   C32   1.391187 A    
C12   N3    1.494530 S    
C33   C34   1.424325 A    
C31   C35   1.402442 A    
Cu2   O6    1.942675 S    
C10   C11   1.583655 S    
C53   C58   1.419061 A    
C11   C47   1.537216 S    
C40   H27   1.076665 S    
C45   H21   1.081118 S    
C50   H31   1.082401 S    
