data_mof_unit_49073.cif
_audit_creation_date              2013-03-05T15:53:32-0500
_audit_creation_method            fapswitch 2.2
_symmetry_space_group_name_H-M    P1
_symmetry_Int_Tables_number       1
_space_group_crystal_system       triclinic
_cell_length_a                    30.570576
_cell_length_b                    7.253308
_cell_length_c                    25.935718
_cell_angle_alpha                 89.984855
_cell_angle_beta                  112.035084
_cell_angle_gamma                 89.982461
_cell_volume                      5330.84778523

loop_
_atom_site_label
_atom_site_type_symbol
_atom_site_description
_atom_site_fract_x
_atom_site_fract_y
_atom_site_fract_z
_atom_type_partial_charge
O1    O     O_R   0.295360 0.592990 0.320420 -0.588977
O2    O     O_R   0.704640 0.407010 0.679580 -0.577537
O3    O     O_R   0.204640 0.092990 0.179580 -0.588864
O4    O     O_R   0.795360 0.907010 0.820420 -0.577276
O5    O     O_R   0.294060 0.265620 0.213230 -0.563948
O6    O     O_R   0.705940 0.734380 0.786770 -0.575851
O7    O     O_R   0.205940 0.765620 0.286770 -0.563788
O8    O     O_R   0.794060 0.234380 0.713230 -0.575968
C1    C     C_R   0.304987 0.432341 0.200517 0.992071
C2    C     C_R   0.695001 0.567388 0.799391 0.994462
C3    C     C_R   0.195016 0.932351 0.299488 0.991829
C4    C     C_R   0.805000 0.067377 0.700614 0.994166
O9    O     O_R   0.300850 0.263360 0.322080 -0.572692
O10   O     O_R   0.699150 0.736640 0.677920 -0.586512
O11   O     O_R   0.199150 0.763360 0.177920 -0.572711
O12   O     O_R   0.800850 0.236640 0.822080 -0.586424
O13   O     O_R   0.211480 0.091820 0.289210 -0.589158
O14   O     O_R   0.788520 0.908180 0.710790 -0.571701
O15   O     O_R   0.288520 0.591820 0.210790 -0.589245
O16   O     O_R   0.711480 0.408180 0.789210 -0.571658
C5    C     C_R   0.313286 0.431370 0.343195 0.917373
C6    C     C_R   0.686760 0.568586 0.656752 0.921915
C7    C     C_R   0.186721 0.931477 0.156811 0.917064
C8    C     C_R   0.813237 0.068475 0.843237 0.921906
O17   O     O_3   0.220670 0.426670 0.239090 -0.265210
O18   O     O_3   0.779330 0.573330 0.760910 -0.257150
O19   O     O_3   0.279330 0.926670 0.260910 -0.265397
O20   O     O_3   0.720670 0.073330 0.739090 -0.257204
V1    V     V_3+5 0.255440 0.152290 0.252020 1.248565
V2    V     V_3+5 0.744560 0.847710 0.747980 1.259440
V3    V     V_3+5 0.244560 0.652290 0.247980 1.248513
V4    V     V_3+5 0.755440 0.347710 0.752020 1.259300
C9    C     C_R   0.850031 0.062975 0.899719 -0.110339
C10   C     C_R   0.149703 0.936161 0.100499 -0.106413
C11   C     C_R   0.649964 0.563699 0.600249 -0.110896
C12   C     C_R   0.350333 0.435476 0.399506 -0.106932
C13   C     C_R   0.873144 0.123289 0.997890 -0.057569
C14   C     C_R   0.126685 0.879074 0.002190 -0.054754
C15   C     C_R   0.626537 0.630444 0.502378 -0.058318
C16   C     C_R   0.373681 0.371839 0.497527 -0.054844
C17   C     C_R   0.838724 0.119197 0.944502 -0.178179
C18   C     C_R   0.161479 0.890598 0.055214 -0.177941
C19   C     C_R   0.661045 0.624164 0.555685 -0.177211
C20   C     C_R   0.338779 0.385457 0.444628 -0.177014
C21   C     C_R   0.896768 0.014422 0.908545 -0.163126
C22   C     C_R   0.102442 0.972829 0.092286 -0.148599
C23   C     C_R   0.603347 0.512882 0.591276 -0.164147
C24   C     C_R   0.397487 0.474616 0.407791 -0.148237
C25   C     C_R   0.933183 0.020449 0.962717 0.108832
C26   C     C_R   0.065719 0.959517 0.038467 0.110535
C27   C     C_R   0.566833 0.521135 0.537194 0.109034
C28   C     C_R   0.434332 0.459121 0.461472 0.110834
C29   C     C_R   0.920197 0.072170 0.008025 -0.024959
C30   C     C_R   0.078707 0.907891 0.993142 -0.025828
C31   C     C_R   0.579599 0.577480 0.492102 -0.024583
C32   C     C_R   0.421572 0.402788 0.506582 -0.025372
C33   C     C_R   0.981897 0.980467 0.973139 0.012870
C34   C     C_R   0.016825 0.994823 0.028286 0.015272
C35   C     C_R   0.518208 0.479205 0.526689 0.013105
C36   C     C_R   0.483141 0.496447 0.471706 0.015616
C37   C     C_R   0.001756 0.042433 0.071690 -0.242227
C38   C     C_R   0.996695 0.925952 0.930078 -0.247063
C39   C     C_R   0.497992 0.548892 0.428505 -0.241919
C40   C     C_R   0.503640 0.419903 0.569505 -0.247328
C41   C     C_R   0.954563 0.077701 0.062469 0.303260
C42   C     C_R   0.043771 0.887922 0.939418 0.307766
C43   C     C_R   0.545104 0.585927 0.437769 0.303089
C44   C     C_R   0.456649 0.380046 0.560103 0.308016
H1    H     H_    0.095830 0.007927 0.129022 0.126809
H2    H     H_    0.903394 0.977930 0.871939 0.148521
H3    H     H_    0.403948 0.512835 0.371181 0.126637
H4    H     H_    0.596854 0.473360 0.627743 0.149335
H5    H     H_    0.197856 0.862699 0.061005 0.119270
H6    H     H_    0.803022 0.161203 0.938038 0.125003
H7    H     H_    0.302496 0.355452 0.438787 0.119224
H8    H     H_    0.696629 0.668064 0.562279 0.125065
H9    H     H_    0.862572 0.171472 0.030927 0.175289
H10   H     H_    0.137956 0.847186 0.968368 0.174871
H11   H     H_    0.636935 0.682018 0.469554 0.175156
H12   H     H_    0.362572 0.336365 0.531234 0.174822
H13   H     H_    0.025824 0.049583 0.114304 0.185242
H14   H     H_    0.972151 0.906007 0.888116 0.192787
H15   H     H_    0.473810 0.558720 0.385998 0.185024
H16   H     H_    0.528315 0.397407 0.611271 0.192864
C45   C     C_R   0.093178 0.985856 0.481157 0.534682
C46   C     C_R   0.907409 0.035924 0.519504 0.534850
C47   C     C_R   0.406849 0.485138 0.018874 0.534407
C48   C     C_R   0.592593 0.536562 0.980530 0.534889
N1    N     N_R   0.073469 0.983601 0.424071 -0.169472
N2    N     N_R   0.927151 0.039955 0.576580 -0.168880
N3    N     N_R   0.426548 0.483552 0.075962 -0.169546
N4    N     N_R   0.572860 0.539989 0.923447 -0.168792
C49   C     C_R   0.025526 0.000268 0.396510 0.596578
C50   C     C_R   0.975303 0.041617 0.604021 0.590673
C51   C     C_R   0.474470 0.500881 0.103517 0.596493
C52   C     C_R   0.524706 0.541081 0.895995 0.590748
C53   C     C_R   0.995411 0.011612 0.426311 -0.087714
C54   C     C_R   0.005409 0.030217 0.574216 -0.087432
C55   C     C_R   0.504584 0.512265 0.073715 -0.087669
C56   C     C_R   0.494602 0.529595 0.925800 -0.087252
C57   C     C_R   0.015192 0.013229 0.484853 0.007154
C58   C     C_R   0.985580 0.024802 0.515699 0.006421
C59   C     C_R   0.484814 0.513208 0.015171 0.007103
C60   C     C_R   0.514424 0.524812 0.984324 0.006375
C61   C     C_R   0.064509 0.002874 0.512628 -0.063905
C62   C     C_R   0.936207 0.030452 0.487956 -0.067125
C63   C     C_R   0.435509 0.502152 0.987395 -0.063919
C64   C     C_R   0.563789 0.531131 0.012073 -0.067134
C65   C     C_R   0.946093 0.020628 0.399031 -0.062480
C66   C     C_R   0.054747 0.023048 0.601487 -0.068250
C67   C     C_R   0.553890 0.521981 0.100997 -0.062397
C68   C     C_R   0.445274 0.521723 0.898525 -0.068509
C69   C     C_R   0.916847 0.028693 0.429472 -0.091948
C70   C     C_R   0.083914 0.008307 0.571089 -0.093043
C71   C     C_R   0.583138 0.530050 0.070559 -0.091890
C72   C     C_R   0.416112 0.506921 0.928927 -0.093130
O21   O     O_2   0.140346 0.969810 0.507482 -0.536053
O22   O     O_2   0.860047 0.035022 0.493288 -0.534204
O23   O     O_2   0.359699 0.468449 0.992558 -0.535990
O24   O     O_2   0.639953 0.536209 0.006762 -0.534228
O25   O     O_2   0.007002 0.006199 0.340427 -0.469759
O26   O     O_2   0.994046 0.054229 0.659995 -0.474099
O27   O     O_2   0.492974 0.507432 0.159591 -0.469878
O28   O     O_2   0.505958 0.553212 0.840008 -0.474770
H17   H     H_    0.929878 0.019573 0.354048 0.189943
H18   H     H_    0.070996 0.026842 0.646453 0.187983
H19   H     H_    0.570097 0.521468 0.145981 0.189909
H20   H     H_    0.429031 0.525003 0.853554 0.187833
H21   H     H_    0.879014 0.033595 0.406989 0.183143
H22   H     H_    0.121723 0.001296 0.593585 0.181595
H23   H     H_    0.620965 0.535493 0.093046 0.183148
H24   H     H_    0.378313 0.499353 0.906429 0.181579
C73   C     C_R   0.897314 0.895211 0.644358 0.273936
C74   C     C_R   0.100067 0.810649 0.357855 0.272808
C75   C     C_R   0.602757 0.395166 0.855733 0.273858
C76   C     C_R   0.400042 0.310799 0.142294 0.272673
C77   C     C_R   0.868930 0.905178 0.676782 0.214146
C78   C     C_R   0.128340 0.801228 0.325257 0.212898
C79   C     C_R   0.631121 0.405191 0.823285 0.214328
C80   C     C_R   0.371744 0.301309 0.174859 0.212526
C81   C     C_R   0.838390 0.058055 0.670989 -0.320660
C82   C     C_R   0.161880 0.941948 0.329571 -0.324197
C83   C     C_R   0.661619 0.558079 0.829028 -0.320777
C84   C     C_R   0.338131 0.441926 0.170448 -0.323940
C85   C     C_R   0.838375 0.201283 0.634538 -0.121947
C86   C     C_R   0.164916 0.092791 0.364756 -0.122089
C87   C     C_R   0.661607 0.701293 0.865449 -0.121882
C88   C     C_R   0.335037 0.592691 0.135189 -0.122301
H25   H     H_    0.815134 0.318685 0.628878 0.171980
H26   H     H_    0.190214 0.202052 0.369170 0.163569
H27   H     H_    0.684831 0.818670 0.871089 0.172150
H28   H     H_    0.309697 0.701905 0.130720 0.163140
C89   C     C_R   0.867431 0.194040 0.604007 -0.032271
C90   C     C_R   0.135995 0.104759 0.395338 -0.026280
C91   C     C_R   0.632545 0.694073 0.895972 -0.032139
C92   C     C_R   0.363951 0.604618 0.104596 -0.026617
H29   H     H_    0.866972 0.307550 0.576676 0.174487
H30   H     H_    0.138771 0.224102 0.421470 0.166053
H31   H     H_    0.632972 0.807612 0.923263 0.174816
H32   H     H_    0.361115 0.723851 0.078384 0.165638
C93   C     C_R   0.896809 0.041902 0.608136 0.026851
C94   C     C_R   0.103675 0.964816 0.392653 0.028161
C95   C     C_R   0.603210 0.541910 0.891898 0.026727
C96   C     C_R   0.396348 0.464794 0.107386 0.028401
N5    N     N_R   0.942189 0.116423 0.109658 0.243405
O29   O     O_R   0.910267 0.017350 0.118630 -0.342006
O30   O     O_R   0.968460 0.226093 0.148700 -0.303625
N6    N     N_R   0.055139 0.823990 0.893468 0.243317
O31   O     O_R   0.076666 0.666954 0.896948 -0.355900
O32   O     O_R   0.036271 0.903434 0.845121 -0.294585
N7    N     N_R   0.557262 0.629724 0.390733 0.243296
O33   O     O_R   0.589224 0.533314 0.380958 -0.341349
O34   O     O_R   0.530787 0.741588 0.352498 -0.303945
N8    N     N_R   0.445533 0.311182 0.605732 0.243119
O35   O     O_R   0.424258 0.153216 0.601316 -0.357378
O36   O     O_R   0.464425 0.387192 0.654572 -0.293851
N9    N     N_R   0.926994 0.737579 0.648637 0.257819
O37   O     O_R   0.927643 0.657843 0.603991 -0.415013
O38   O     O_R   0.954881 0.677527 0.697130 -0.248584
N10   N     N_R   0.067348 0.665202 0.355147 0.257815
O39   O     O_R   0.065330 0.596643 0.400571 -0.409797
O40   O     O_R   0.038154 0.605675 0.307285 -0.250463
N11   N     N_R   0.573174 0.237377 0.851561 0.257704
O41   O     O_R   0.572561 0.157841 0.896264 -0.415373
O42   O     O_R   0.545357 0.176903 0.803113 -0.248375
N12   N     N_R   0.432914 0.165680 0.145200 0.257966
O43   O     O_R   0.434997 0.096657 0.099873 -0.409431
O44   O     O_R   0.462232 0.107161 0.193147 -0.249915
N13   N     N_R   0.871751 0.761372 0.715930 0.269514
O45   O     O_R   0.883021 0.800425 0.768300 -0.384041
O46   O     O_R   0.864450 0.590591 0.699706 -0.364544
N14   N     N_R   0.122256 0.650530 0.287361 0.269074
O47   O     O_R   0.110261 0.682151 0.234433 -0.360380
O48   O     O_R   0.126555 0.481326 0.305205 -0.362491
N15   N     N_R   0.628324 0.261417 0.784164 0.269679
O49   O     O_R   0.616962 0.300462 0.731771 -0.383946
O50   O     O_R   0.635777 0.090682 0.800445 -0.364821
N16   N     N_R   0.377885 0.150692 0.212829 0.268971
O51   O     O_R   0.389734 0.182484 0.265719 -0.359877
O52   O     O_R   0.373842 0.981419 0.195110 -0.361758

loop_
_geom_bond_atom_site_label_1
_geom_bond_atom_site_label_2
_geom_bond_distance
_ccdc_geom_bond_type
O17   V3    1.771786 S    
C55   C59   1.407902 A    
N7    O33   1.301354 A    
C73   C77   1.418771 A    
N5    O29   1.301382 A    
C54   C66   1.406184 A    
C47   N3    1.373311 A    
O19   V1    1.771260 S    
O13   V1    1.975226 S    
C82   C86   1.405528 A    
O3    C7    1.333885 A    
C10   C18   1.391266 A    
C75   N11   1.437617 S    
C76   C80   1.419402 A    
O15   V3    1.975158 S    
C11   C19   1.391615 A    
C25   C33   1.439672 A    
C33   C38   1.409776 A    
C5    C12   1.474935 S    
C71   H23   1.083001 S    
O1    C5    1.334099 A    
C6    C11   1.475557 S    
N7    O34   1.301414 A    
C35   C40   1.409760 A    
C57   C58   1.417722 A    
C69   H21   1.082996 S    
C36   C39   1.409905 A    
C40   C44   1.394313 A    
C64   C71   1.406275 A    
O9    V1    1.996647 S    
C49   O25   1.349112 S    
C14   C18   1.390001 A    
N11   O42   1.301235 A    
C76   C96   1.415180 A    
O4    C8    1.333624 A    
C51   C55   1.409126 A    
C50   C54   1.408996 A    
C41   N5    1.437852 S    
C60   C64   1.408053 A    
O1    V3    1.984050 S    
C9    C21   1.404306 A    
C4    C81   1.491756 S    
O2    V4    1.984049 S    
O3    V1    1.984468 S    
C80   N16   1.434958 S    
N8    O35   1.301372 A    
C40   H16   1.075066 S    
C22   H1    1.076140 S    
C28   C36   1.439893 A    
C17   H6    1.083808 S    
C86   H26   1.083163 S    
C79   C83   1.420456 A    
C1    O15   1.327743 A    
C56   C60   1.407875 A    
C15   C31   1.411046 A    
C48   N4    1.373383 A    
C2    O16   1.325391 A    
N9    O38   1.301238 A    
C86   C90   1.394466 A    
O2    C6    1.333871 A    
C16   H12   1.080982 S    
C58   C62   1.408057 A    
N16   O51   1.301320 A    
C10   C22   1.404379 A    
C48   O24   1.349070 S    
C87   C91   1.395187 A    
C66   C70   1.398399 A    
C16   C20   1.389951 A    
C65   C69   1.398493 A    
C13   C29   1.411209 A    
C34   C37   1.409919 A    
O11   C7    1.332036 A    
C38   H14   1.075076 S    
C11   C23   1.404443 A    
C35   C36   1.432170 A    
O12   C8    1.332567 A    
C16   C32   1.411088 A    
N1    C49   1.373845 A    
C70   H22   1.082999 S    
N5    O30   1.301416 A    
C46   C62   1.409483 A    
O10   V2    1.996647 S    
C45   C61   1.409355 A    
C1    C84   1.494193 S    
C79   N15   1.435219 S    
N2    C50   1.373860 A    
O5    V1    1.993275 S    
N4    C52   1.373894 A    
C57   C61   1.408032 A    
C23   H4    1.075569 S    
C39   C43   1.394575 A    
O7    V3    1.993194 S    
C38   C42   1.394295 A    
C62   C69   1.406284 A    
C91   H31   1.082933 S    
O8    V4    1.993201 S    
C80   C84   1.421398 A    
C61   C70   1.406266 A    
C92   H32   1.083080 S    
C9    C17   1.391489 A    
C46   N2    1.373350 A    
C45   N1    1.373332 A    
O18   V4    1.771787 S    
C23   C27   1.429028 A    
N2    C93   1.449131 S    
C91   C95   1.401093 A    
C32   C44   1.409550 A    
C13   H9    1.081060 S    
O4    V2    1.984471 S    
C74   C94   1.415282 A    
C89   C93   1.401046 A    
C15   H11   1.081031 S    
C37   H13   1.074916 S    
C20   H7    1.083855 S    
O7    C3    1.328711 A    
N11   O41   1.301262 A    
C47   O23   1.349101 S    
C37   C41   1.394603 A    
C53   C65   1.406221 A    
C72   H24   1.082990 S    
C21   C25   1.428847 A    
O8    C4    1.329776 A    
C7    C10   1.474678 S    
C55   C67   1.406215 A    
N1    C94   1.449087 S    
C26   C34   1.439822 A    
O9    C5    1.331876 A    
C46   O22   1.349073 S    
C26   C30   1.424825 A    
C45   O21   1.349098 S    
C66   H18   1.083012 S    
C77   N13   1.435274 S    
C50   O26   1.349129 S    
C52   O28   1.349136 S    
C65   H17   1.083016 S    
N6    O31   1.301359 A    
O6    V2    1.993275 S    
C56   C68   1.406176 A    
C78   C82   1.421358 A    
O14   V2    1.975231 S    
N3    C96   1.449035 S    
C12   C20   1.391378 A    
C27   C35   1.439728 A    
C24   H3    1.076129 S    
N12   O44   1.301174 A    
C49   C53   1.409129 A    
C83   C87   1.404306 A    
C68   C72   1.398398 A    
C29   C41   1.409301 A    
N10   O39   1.301264 A    
N4    C95   1.449220 S    
C59   C63   1.408055 A    
O16   V4    1.975156 S    
C51   O27   1.349107 S    
C19   H8    1.083822 S    
C77   C81   1.420496 A    
C3    O13   1.327828 A    
C18   H5    1.083845 S    
C44   N8    1.437698 S    
N10   O40   1.301197 A    
C76   N12   1.437348 S    
C21   H2    1.075572 S    
C75   C95   1.415510 A    
C90   C94   1.400143 A    
C78   N14   1.434895 S    
C88   H28   1.083166 S    
O5    C1    1.328653 A    
C73   C93   1.415426 A    
C74   C78   1.419445 A    
C31   C43   1.409399 A    
O11   V3    1.995912 S    
C30   C42   1.409491 A    
C81   C85   1.404334 A    
O12   V4    1.995914 S    
C14   H10   1.080994 S    
C22   C26   1.429094 A    
C39   H15   1.074883 S    
C8    C9    1.475234 S    
C42   N6    1.437708 S    
C75   C79   1.418778 A    
C43   N7    1.437824 S    
N14   O47   1.301338 A    
O10   C6    1.332403 A    
O20   V2    1.771260 S    
C85   C89   1.395195 A    
C13   C17   1.390012 A    
C54   C58   1.407880 A    
C67   H19   1.083011 S    
C73   N9    1.437559 S    
C33   C34   1.432080 A    
C25   C29   1.424558 A    
C87   H27   1.082948 S    
C52   C56   1.408988 A    
N6    O32   1.301439 A    
C12   C24   1.404518 A    
C27   C31   1.424572 A    
C2    C83   1.491800 S    
C89   H29   1.082936 S    
N13   O45   1.301124 A    
C3    C82   1.494253 S    
N8    O36   1.301412 A    
C63   C72   1.406250 A    
C68   H20   1.083009 S    
O6    C2    1.329759 A    
N3    C51   1.373825 A    
N15   O49   1.301113 A    
C48   C64   1.409495 A    
C14   C30   1.411227 A    
C24   C28   1.429292 A    
C47   C63   1.409336 A    
C92   C96   1.400097 A    
C67   C71   1.398498 A    
N9    O37   1.301256 A    
C15   C19   1.389952 A    
C4    O14   1.325435 A    
C59   C60   1.417723 A    
C90   H30   1.083081 S    
C85   H25   1.082959 S    
N16   O52   1.300653 A    
C88   C92   1.394474 A    
C74   N10   1.437477 S    
N12   O43   1.301230 A    
C53   C57   1.407893 A    
C28   C32   1.424849 A    
N14   O48   1.300636 A    
N13   O46   1.300489 A    
N15   O50   1.300464 A    
C84   C88   1.405544 A    
