data_mof_unit_16879.cif
_audit_creation_date              2012-12-11T14:07:48-0500
_audit_creation_method            fapswitch 2.2
_symmetry_space_group_name_H-M    P1
_symmetry_Int_Tables_number       1
_space_group_crystal_system       triclinic
_cell_length_a                    19.749111
_cell_length_b                    17.07326
_cell_length_c                    15.380975
_cell_angle_alpha                 89.913524
_cell_angle_beta                  53.891791
_cell_angle_gamma                 89.741916
_cell_volume                      4189.89916764

loop_
_atom_site_label
_atom_site_type_symbol
_atom_type_description
_atom_site_fract_x
_atom_site_fract_y
_atom_site_fract_z
_atom_type_partial_charge
C1    C     C_R   0.340947 0.175092 0.048798 -0.101905
C2    C     C_R   0.653873 0.817015 0.069553 0.185123
C3    C     C_R   0.208828 0.647580 0.984057 0.152709
C4    C     C_R   0.153874 0.317016 0.069552 0.185120
C5    C     C_R   0.683931 0.855447 0.679141 0.091521
C6    C     C_R   0.605589 0.183062 0.698265 0.075229
C7    C     C_R   0.183931 0.355446 0.679141 0.091523
C8    C     C_R   0.105589 0.683061 0.698265 0.075229
C9    C     C_3   0.311273 0.182293 0.501673 -0.385631
C10   C     C_3   0.204918 0.859061 0.511839 -0.395940
C11   C     C_3   0.811272 0.682293 0.501674 -0.385630
C12   C     C_R   0.373318 0.803328 0.997902 -0.126144
C13   C     C_3   0.704918 0.359061 0.511840 -0.395939
C14   C     C_3   0.256277 0.228884 0.604369 -0.466716
C15   C     C_3   0.140979 0.815325 0.616324 -0.433015
C16   C     C_3   0.756275 0.728884 0.604369 -0.466708
C17   C     C_3   0.640979 0.315325 0.616324 -0.433014
C18   C     C_3   0.387291 0.305570 0.403636 0.393361
C19   C     C_3   0.314148 0.753080 0.457843 0.340964
C20   C     C_3   0.887290 0.805570 0.403636 0.393369
C21   C     C_3   0.814147 0.253081 0.457843 0.340964
C22   C     C_3   0.757565 0.759211 0.413837 0.523633
C23   C     C_R   0.840947 0.675093 0.048797 -0.101913
C24   C     C_3   0.712789 0.244061 0.404086 0.543424
C25   C     C_3   0.257567 0.259212 0.413836 0.523632
C26   C     C_3   0.212789 0.744060 0.404086 0.543425
C27   C     C_3   0.339029 0.233565 0.401437 0.015526
C28   C     C_3   0.266713 0.799778 0.420859 0.044392
C29   C     C_3   0.839028 0.733565 0.401438 0.015522
C30   C     C_3   0.766713 0.299779 0.420859 0.044393
C31   C     C_3   0.741351 0.812130 0.578935 0.250037
C32   C     C_3   0.660029 0.226630 0.598546 0.253178
C33   C     C_3   0.241351 0.312130 0.578935 0.250038
C34   C     C_R   0.873318 0.303328 0.997902 -0.126147
C35   C     C_3   0.160029 0.726630 0.598546 0.253177
C36   C     C_3   0.825954 0.855348 0.505530 -0.516473
C37   C     C_3   0.750504 0.209814 0.561986 -0.487607
C38   C     C_3   0.325953 0.355348 0.505529 -0.516470
C39   C     C_3   0.250504 0.709814 0.561986 -0.487606
C40   C     C_R   0.360667 0.818561 0.218843 -0.048362
C41   C     C_R   0.398130 0.199147 0.208477 -0.141079
C42   C     C_R   0.860666 0.318561 0.218843 -0.048363
C43   C     C_R   0.898130 0.699147 0.208478 -0.141081
C44   C     C_3   0.700108 0.804238 0.519192 -0.504033
C45   C     C_R   0.636725 0.895352 0.101482 -0.182193
C46   C     C_3   0.651628 0.198905 0.508916 -0.523932
C47   C     C_3   0.200108 0.304236 0.519193 -0.504042
C48   C     C_3   0.151628 0.698905 0.508915 -0.523932
C49   C     C_2   0.280680 0.687142 0.965994 -0.192685
C50   C     C_2   0.195294 0.260886 0.094496 -0.178222
C51   C     C_2   0.780679 0.187142 0.965994 -0.192686
C52   C     C_2   0.695293 0.760886 0.094497 -0.178222
C53   C     C_2   0.807278 0.254388 0.910553 -0.190414
C54   C     C_2   0.713540 0.688581 0.051491 -0.155287
C55   C     C_2   0.307278 0.754388 0.910553 -0.190417
C56   C     C_R   0.668806 0.082921 0.051607 -0.174732
C57   C     C_2   0.213540 0.188581 0.051491 -0.155287
C58   C     C_R   0.364250 0.889252 0.898099 -0.144921
C59   C     C_R   0.329597 0.087219 0.951978 -0.138205
C60   C     C_R   0.864250 0.389252 0.898099 -0.144917
C61   C     C_R   0.829597 0.587219 0.951977 -0.138201
C62   C     C_R   0.412371 0.109001 0.299784 0.653623
C63   C     C_R   0.373642 0.906579 0.316069 0.568518
C64   C     C_R   0.912370 0.609001 0.299784 0.653618
C65   C     C_R   0.873642 0.406580 0.316069 0.568518
C66   C     C_R   0.288413 0.148645 0.024486 0.126290
C67   C     C_R   0.136725 0.395352 0.101481 -0.182192
C68   C     C_R   0.344802 0.813633 0.936372 0.155704
C69   C     C_R   0.788414 0.648645 0.024486 0.126290
C70   C     C_R   0.844802 0.313633 0.936372 0.155707
C71   C     C_R   0.327608 0.843031 0.322657 -0.087653
C72   C     C_R   0.390264 0.185947 0.302559 -0.052441
C73   C     C_R   0.827607 0.343032 0.322657 -0.087654
C74   C     C_R   0.890263 0.685946 0.302560 -0.052440
C75   C     C_R   0.658898 0.178398 0.956307 -0.067433
C76   C     C_R   0.624692 0.800539 0.009832 -0.080472
C77   C     C_R   0.158898 0.678398 0.956307 -0.067428
C78   C     C_R   0.168807 0.582921 0.051606 -0.174741
C79   C     C_R   0.124692 0.300539 0.009832 -0.080470
C80   C     C_R   0.646108 0.825163 0.781829 -0.147732
C81   C     C_R   0.598584 0.198572 0.791592 -0.149637
C82   C     C_R   0.146108 0.325162 0.781829 -0.147733
C83   C     C_R   0.098584 0.698572 0.791592 -0.149636
C84   C     C_R   0.588647 0.105400 0.698824 -0.147113
C85   C     C_R   0.639184 0.920378 0.685528 -0.141949
C86   C     C_R   0.088648 0.605399 0.698824 -0.147113
C87   C     C_R   0.139184 0.420378 0.685528 -0.141949
C88   C     C_3   0.668360 0.710576 0.374214 -0.195959
C89   C     C_R   0.708827 0.147580 0.984057 0.152714
C90   C     C_3   0.659290 0.247573 0.303236 -0.238539
C91   C     C_3   0.168360 0.210582 0.374214 -0.195952
C92   C     C_3   0.159291 0.747571 0.303236 -0.238552
C93   C     C_3   0.519092 0.119048 0.319032 -0.360595
C94   C     C_3   0.458536 0.914034 0.370498 -0.149142
C95   C     C_3   0.019092 0.619050 0.319030 -0.360569
C96   C     C_3   0.958537 0.414035 0.370498 -0.149143
H1    H     H_    0.332614 0.224331 0.097749 0.084610
H2    H     H_    0.576416 0.327058 0.640892 0.190222
H3    H     H_    0.045488 0.658420 0.248134 0.175284
H4    H     H_    0.068107 0.575307 0.298655 0.160749
H5    H     H_    0.008522 0.447737 0.300141 0.162179
H6    H     H_    0.972859 0.350519 0.354203 0.147904
H7    H     H_    0.959526 0.429445 0.439764 0.158388
H8    H     H_    0.195800 0.197241 0.657900 0.189333
H9    H     H_    0.076416 0.827058 0.640892 0.190222
H10   H     H_    0.287019 0.232441 0.646058 0.164904
H11   H     H_    0.144667 0.837909 0.681147 0.160339
H12   H     H_    0.787017 0.732439 0.646060 0.164902
H13   H     H_    0.644666 0.337909 0.681148 0.160338
H14   H     H_    0.436289 0.282197 0.411186 0.062319
H15   H     H_    0.345071 0.795749 0.477987 0.097564
H16   H     H_    0.936289 0.782197 0.411184 0.062315
H17   H     H_    0.381436 0.748517 0.025819 0.090297
H18   H     H_    0.845071 0.295749 0.477986 0.097564
H19   H     H_    0.853793 0.865911 0.549739 0.169510
H20   H     H_    0.758236 0.228760 0.624984 0.153634
H21   H     H_    0.353792 0.365913 0.549739 0.169511
H22   H     H_    0.258236 0.728759 0.624984 0.153634
H23   H     H_    0.775677 0.799465 0.346322 0.067710
H24   H     H_    0.755090 0.200443 0.340755 0.070546
H25   H     H_    0.275679 0.299468 0.346323 0.067715
H26   H     H_    0.255090 0.700443 0.340755 0.070546
H27   H     H_    0.638525 0.774255 0.572294 0.200849
H28   H     H_    0.832615 0.724332 0.097747 0.084608
H29   H     H_    0.585836 0.206730 0.536049 0.190260
H30   H     H_    0.138527 0.274250 0.572294 0.200849
H31   H     H_    0.085837 0.706730 0.536049 0.190261
H32   H     H_    0.687563 0.862475 0.498922 0.127950
H33   H     H_    0.667557 0.135688 0.490815 0.144512
H34   H     H_    0.187558 0.362472 0.498926 0.127949
H35   H     H_    0.167557 0.635688 0.490816 0.144511
H36   H     H_    0.346969 0.766159 0.193287 0.113157
H37   H     H_    0.393761 0.254903 0.178886 0.167600
H38   H     H_    0.846968 0.266159 0.193287 0.113157
H39   H     H_    0.881436 0.248517 0.025819 0.090298
H40   H     H_    0.893760 0.754903 0.178886 0.167610
H41   H     H_    0.814681 0.913656 0.483677 0.229575
H42   H     H_    0.762298 0.145452 0.552172 0.231450
H43   H     H_    0.314680 0.413655 0.483675 0.229574
H44   H     H_    0.262298 0.645452 0.552172 0.231450
H45   H     H_    0.300134 0.668445 0.015571 0.124947
H46   H     H_    0.223160 0.284501 0.131848 0.110299
H47   H     H_    0.800133 0.168446 0.015572 0.124947
H48   H     H_    0.723158 0.784500 0.131851 0.110300
H49   H     H_    0.789969 0.271997 0.858344 0.125190
H50   H     H_    0.277078 0.129085 0.505702 0.229166
H51   H     H_    0.683953 0.664157 0.016779 0.135387
H52   H     H_    0.289969 0.771997 0.858344 0.125191
H53   H     H_    0.183952 0.164156 0.016781 0.135387
H54   H     H_    0.359982 0.914680 0.837004 0.092893
H55   H     H_    0.308108 0.053444 0.913224 0.104010
H56   H     H_    0.859982 0.414680 0.837004 0.092892
H57   H     H_    0.808108 0.553444 0.913224 0.104011
H58   H     H_    0.668338 0.229797 0.909544 0.082508
H59   H     H_    0.617804 0.744274 0.984048 0.094215
H60   H     H_    0.168339 0.729796 0.909544 0.082509
H61   H     H_    0.171730 0.895109 0.487295 0.224938
H62   H     H_    0.117805 0.244274 0.984047 0.094214
H63   H     H_    0.663025 0.773960 0.806444 0.095468
H64   H     H_    0.604127 0.254585 0.819426 0.093665
H65   H     H_    0.163025 0.273960 0.806444 0.095469
H66   H     H_    0.104127 0.754585 0.819426 0.093668
H67   H     H_    0.580202 0.074739 0.644499 0.094025
H68   H     H_    0.650501 0.956803 0.620807 0.106232
H69   H     H_    0.080202 0.574739 0.644499 0.094025
H70   H     H_    0.150501 0.456803 0.620806 0.106232
H71   H     H_    0.644797 0.922732 0.158091 0.084888
H72   H     H_    0.777078 0.629085 0.505703 0.229168
H73   H     H_    0.689891 0.049611 0.091303 0.105083
H74   H     H_    0.144797 0.422732 0.158091 0.084887
H75   H     H_    0.189891 0.549611 0.091303 0.105087
H76   H     H_    0.365492 0.162622 0.499805 0.199891
H77   H     H_    0.238094 0.900633 0.529752 0.206730
H78   H     H_    0.865491 0.662622 0.499806 0.199889
H79   H     H_    0.738094 0.400633 0.529753 0.206730
H80   H     H_    0.710551 0.725418 0.287393 0.121161
H81   H     H_    0.623456 0.759377 0.420335 0.128040
H82   H     H_    0.631576 0.658429 0.382797 0.197580
H83   H     H_    0.671730 0.395110 0.487296 0.224938
H84   H     H_    0.644616 0.184695 0.324956 0.103763
H85   H     H_    0.717504 0.252787 0.220226 0.144108
H86   H     H_    0.607476 0.274165 0.304246 0.210128
H87   H     H_    0.210544 0.225447 0.287401 0.121140
H88   H     H_    0.123440 0.259367 0.420360 0.128055
H89   H     H_    0.131592 0.158430 0.382769 0.197578
H90   H     H_    0.144614 0.684693 0.324958 0.103768
H91   H     H_    0.217506 0.752783 0.220226 0.144106
H92   H     H_    0.107479 0.774164 0.304243 0.210126
H93   H     H_    0.550227 0.350968 0.118731 0.371293
H94   H     H_    0.695798 0.697241 0.657899 0.189334
H95   H     H_    0.485297 0.612301 0.361256 0.394876
H96   H     H_    0.050241 0.850977 0.118738 0.371293
H97   H     H_    0.985294 0.112297 0.361257 0.394877
H98   H     H_    0.506602 0.154013 0.387696 0.156281
H99   H     H_    0.545480 0.158431 0.248149 0.175287
H100  H     H_    0.568111 0.075306 0.298637 0.160752
H101  H     H_    0.508522 0.947737 0.300141 0.162178
H102  H     H_    0.472859 0.850519 0.354204 0.147904
H103  H     H_    0.459526 0.929445 0.439765 0.158390
H104  H     H_    0.006598 0.654028 0.387688 0.156270
N1    N     N_R   0.408680 0.130160 0.995800 -0.044061
N2    N     N_R   0.403730 0.078230 0.935950 -0.044506
N3    N     N_R   0.903730 0.421770 0.935950 -0.041820
N4    N     N_R   0.903730 0.578230 0.935950 -0.044506
N5    N     N_R   0.426630 0.075970 0.212960 -0.105424
N6    N     N_R   0.426630 0.924030 0.212960 -0.104736
N7    N     N_R   0.926630 0.575970 0.212960 -0.105426
N8    N     N_R   0.926630 0.424030 0.212960 -0.104736
N9    N     N_R   0.591320 0.134600 0.004200 -0.046661
N10   N     N_R   0.591320 0.865400 0.004200 -0.049913
N11   N     N_R   0.091320 0.634600 0.004200 -0.046659
N12   N     N_R   0.408680 0.869840 0.995800 -0.044551
N13   N     N_R   0.091320 0.365400 0.004200 -0.049913
N14   N     N_R   0.578320 0.867660 0.846880 -0.041290
N15   N     N_R   0.578320 0.132340 0.846880 -0.038651
N16   N     N_R   0.078320 0.367660 0.846880 -0.041290
N17   N     N_R   0.078320 0.632340 0.846880 -0.038651
N18   N     N_R   0.573370 0.074390 0.787040 -0.037201
N19   N     N_R   0.573370 0.925610 0.787040 -0.042513
N20   N     N_R   0.073370 0.574390 0.787040 -0.037201
N21   N     N_R   0.073370 0.425610 0.787040 -0.042514
N22   N     N_R   0.596270 0.927870 0.064040 -0.044068
N23   N     N_R   0.908680 0.630160 0.995800 -0.044060
N24   N     N_R   0.596270 0.072130 0.064040 -0.046532
N25   N     N_R   0.096270 0.427870 0.064040 -0.044068
N26   N     N_R   0.096270 0.572130 0.064040 -0.046534
N27   N     N_R   0.908680 0.369840 0.995800 -0.044551
N28   N     N_R   0.421680 0.867580 0.153120 -0.076382
N29   N     N_R   0.421680 0.132420 0.153120 -0.085018
N30   N     N_R   0.921680 0.367580 0.153120 -0.076381
N31   N     N_R   0.921680 0.632420 0.153120 -0.085019
N32   N     N_R   0.403730 0.921770 0.935950 -0.041819
Ni1   Ni    Ni4+2 0.500000 0.131190 0.000000 0.221245
Ni2   Ni    Ni4+2 0.500000 0.868810 0.000000 0.228753
Ni3   Ni    Ni4+2 0.000000 0.631190 0.000000 0.221253
Ni4   Ni    Ni4+2 0.000000 0.368810 0.000000 0.228753
Ni5   Ni    Ni4+2 0.488650 0.000000 0.862740 0.207814
Ni6   Ni    Ni4+2 0.988650 0.500000 0.862740 0.207813
Ni7   Ni    Ni4+2 0.511350 0.000000 0.137260 0.237381
Ni8   Ni    Ni4+2 0.011350 0.500000 0.137260 0.237380
O1    O     O_3   0.715242 0.691933 0.413862 -0.620315
O2    O     O_3   0.439862 0.646744 0.417519 -0.533270
O3    O     O_2   0.887335 0.897245 0.257732 -0.321904
O4    O     O_2   0.980787 0.934191 0.305949 -0.248441
O5    O     O_3   0.023026 0.814484 0.180602 -0.581675
O6    O     O_2   0.860977 0.121164 0.333039 -0.282148
O7    O     O_2   0.963284 0.227989 0.260133 -0.333658
O8    O     O_3   0.939861 0.146743 0.417518 -0.533270
O9    O     O_3   0.445326 0.078861 0.350831 -0.614370
O10   O     O_3   0.379005 0.933589 0.396432 -0.635214
O11   O     O_3   0.945326 0.578862 0.350831 -0.614372
O12   O     O_3   0.667224 0.288799 0.376234 -0.604729
O13   O     O_3   0.879005 0.433590 0.396432 -0.635215
O14   O     O_3   0.215246 0.191935 0.413854 -0.620316
O15   O     O_3   0.167225 0.788798 0.376232 -0.604728
O16   O     O_2   0.387338 0.397246 0.257732 -0.321916
O17   O     O_2   0.480790 0.434190 0.305949 -0.248423
O18   O     O_3   0.523028 0.314483 0.180602 -0.581677
O19   O     O_2   0.360978 0.621164 0.333040 -0.282146
O20   O     O_2   0.463285 0.727989 0.260133 -0.333660
S1    S     S_3+6 0.444092 0.366260 0.284919 -0.068091
S2    S     S_3+6 0.396187 0.686107 0.360993 -0.072752
S3    S     S_3+6 0.944090 0.866260 0.284919 -0.068091
S4    S     S_3+6 0.896187 0.186107 0.360993 -0.072752

loop_
_geom_bond_atom_site_label_1
_geom_bond_atom_site_label_2
_ccdc_geom_bond_type
C78   N26   A    
C6    C32   S    
N10   N22   A    
C40   C71   A    
C96   H6    S    
C56   H73   S    
C8    C83   A    
N1    N2    A    
N22   Ni7   S    
C46   H29   S    
N5    N29   A    
C93   H98   S    
N15   Ni1   S    
C57   C66   S    
C40   H36   S    
O19   S2    D    
C1    N1    A    
N8    Ni8   S    
C46   H33   S    
C41   H37   S    
C55   C68   S    
C3    C49   S    
C92   H91   S    
O6    S4    D    
C88   H81   S    
C37   H20   S    
N14   Ni2   S    
N17   N20   A    
N27   Ni4   S    
C12   C68   A    
C59   N2    A    
C52   H48   S    
H93   O18   S    
O17   S1    D    
C45   N22   A    
C87   N21   A    
C20   C36   S    
C22   C29   S    
C96   O13   S    
C91   H87   S    
N14   N19   A    
C59   C66   A    
N12   N32   A    
C95   H3    S    
C87   H70   S    
C53   C70   S    
C10   C28   S    
C9    H50   S    
C65   C73   A    
C94   H103  S    
C60   H56   S    
C15   H11   S    
N5    Ni7   S    
C23   C69   A    
N16   N21   A    
N3    Ni6   S    
C5    C31   S    
C21   S4    S    
C20   H16   S    
C38   H21   S    
C14   H8    S    
C62   O9    S    
C7    C87   A    
C90   H86   S    
C52   C54   D    
C95   H104  S    
C11   H78   S    
C63   N6    A    
C65   O13   S    
C38   H43   S    
N7    N31   A    
C48   H35   S    
N30   Ni4   S    
N6    Ni7   S    
N13   Ni4   S    
C36   H41   S    
C25   C47   S    
C62   N5    A    
N28   Ni2   S    
O7    S4    D    
O8    S4    S    
C26   C48   S    
C5    C85   A    
C43   C74   A    
C33   C47   S    
C91   H89   S    
C2    C45   A    
C81   H64   S    
C96   H5    S    
C22   O1    S    
C7    C33   S    
C91   O14   S    
N20   Ni6   S    
C93   H99   S    
C86   H69   S    
O3    S3    D    
N2    Ni5   S    
C35   C48   S    
C94   O10   S    
N3    N27   A    
C93   O9    S    
N9    Ni1   S    
C20   C29   S    
C67   H74   S    
C22   H23   S    
C64   N7    A    
C90   H84   S    
C24   H24   S    
N26   Ni8   S    
C31   C44   S    
C47   H34   S    
C18   H14   S    
C13   C30   S    
C24   O12   S    
C6    C84   A    
C12   N12   A    
C4    C79   A    
N4    Ni6   S    
N15   N18   A    
C95   O11   S    
C88   O1    S    
C65   N8    A    
C30   C73   S    
C77   N11   A    
C95   H4    S    
C80   H63   S    
C80   N14   A    
C29   C74   S    
C49   C55   D    
C90   O12   S    
N11   N26   A    
H96   O5    S    
C57   H53   S    
C77   H60   S    
C16   C31   S    
C8    C35   S    
C75   N9    A    
C40   N28   A    
C35   C39   S    
C9    C14   S    
C14   C33   S    
C2    C52   S    
C59   H55   S    
C64   O11   S    
C11   C16   S    
C60   N3    A    
N1    Ni1   S    
C90   H85   S    
C60   C70   A    
C58   C68   A    
N17   Ni3   S    
C63   O10   S    
C53   H49   S    
C1    C66   A    
O2    S2    S    
C62   C72   A    
O4    S3    D    
C86   N20   A    
C32   C37   S    
N25   Ni8   S    
C5    C80   A    
C19   C28   S    
C45   H71   S    
C10   H61   S    
C63   C71   A    
C84   H67   S    
C19   C39   S    
N7    Ni8   S    
C18   S1    S    
C41   C72   A    
C82   N16   A    
C42   N30   A    
C64   C74   A    
O20   S2    D    
C56   C89   A    
H95   O2    S    
C83   H66   S    
C41   N29   A    
C16   H12   S    
C51   H47   S    
C37   H42   S    
N4    N23   A    
N6    N28   A    
N32   Ni5   S    
N16   Ni4   S    
C96   H7    S    
C28   C71   S    
C1    H1    S    
O5    S3    S    
C79   H62   S    
C2    C76   A    
C9    C27   S    
C47   H30   S    
C56   N24   A    
C12   H17   S    
C17   H2    S    
C76   N10   A    
C13   H79   S    
N13   N25   A    
C34   C70   A    
C39   H44   S    
C44   H32   S    
C42   C73   A    
C22   C44   S    
C76   H59   S    
N8    N30   A    
C10   C15   S    
C50   C57   D    
C32   C46   S    
C93   H100  S    
C18   C27   S    
N23   Ni3   S    
C23   N23   A    
C21   H18   S    
C61   H57   S    
C4    C67   A    
N12   Ni2   S    
C25   O14   S    
C92   H92   S    
C88   H82   S    
C23   H28   S    
C84   N18   A    
C82   H65   S    
C19   H15   S    
C25   C27   S    
C39   H22   S    
C21   C30   S    
C44   H27   S    
C26   C28   S    
C33   C38   S    
C88   H80   S    
C13   C17   S    
N21   Ni6   S    
C26   O15   S    
C94   H101  S    
C61   C69   A    
C61   N4    A    
C15   H9    S    
C34   N27   A    
C18   C38   S    
C24   C46   S    
C20   S3    S    
C13   H83   S    
C51   C89   S    
C19   S2    S    
C92   H90   S    
C36   H19   S    
C75   H58   S    
N19   Ni5   S    
C55   H52   S    
C81   N15   A    
C54   C69   S    
C17   H13   S    
C34   H39   S    
C10   H77   S    
C83   N17   A    
C16   H94   S    
C78   H75   S    
C49   H45   S    
H97   O8    S    
N11   Ni3   S    
C42   H38   S    
C43   N31   A    
N10   Ni2   S    
N29   Ni1   S    
C43   H40   S    
N9    N24   A    
N24   Ni7   S    
C24   C30   S    
C15   C35   S    
C58   N32   A    
C75   C89   A    
C51   C53   D    
O18   S1    S    
C92   O15   S    
C58   H54   S    
C11   H72   S    
C79   N13   A    
C7    C82   A    
C21   C37   S    
C11   C29   S    
C8    C86   A    
C85   N19   A    
C14   H10   S    
C4    C50   S    
C6    C81   A    
C17   C32   S    
C67   N25   A    
C31   C36   S    
C9    H76   S    
N31   Ni3   S    
C26   H26   S    
N18   Ni5   S    
C94   H102  S    
O16   S1    D    
C3    C78   A    
C25   H25   S    
C85   H68   S    
C27   C72   S    
C50   H46   S    
C91   H88   S    
C54   H51   S    
C48   H31   S    
C3    C77   A    
