data_mof_unit_26428.cif
_audit_creation_date              2012-12-11T13:59:59-0500
_audit_creation_method            fapswitch 2.2
_symmetry_space_group_name_H-M    P1
_symmetry_Int_Tables_number       1
_space_group_crystal_system       triclinic
_cell_length_a                    11.262356
_cell_length_b                    11.268377
_cell_length_c                    18.6996
_cell_angle_alpha                 89.22947
_cell_angle_beta                  90.516179
_cell_angle_gamma                 120.194438
_cell_volume                      2050.96657498

loop_
_atom_site_label
_atom_site_type_symbol
_atom_type_description
_atom_site_fract_x
_atom_site_fract_y
_atom_site_fract_z
_atom_type_partial_charge
C1    C     C_R   0.541944 0.478326 0.852470 0.596332
C2    C     C_R   0.478769 0.544902 0.353754 0.605900
C3    C     C_R   0.136489 0.550187 0.358817 0.574116
C4    C     C_R   0.460200 0.941047 0.349414 0.570887
C5    C     C_2   0.020586 0.511882 0.583990 -0.074273
C6    C     C_2   0.485618 0.522936 0.589075 -0.040198
C7    C     C_2   0.532569 0.083827 0.564680 -0.101968
C8    C     C_2   0.519922 0.027646 0.411323 -0.077062
C9    C     C_2   0.487531 0.517079 0.429747 -0.085220
C10   C     C_2   0.132164 0.552596 0.437395 -0.107331
C11   C     C_2   0.109347 0.447054 0.482265 -0.069414
C12   C     C_R   0.521355 0.062934 0.852447 0.594788
C13   C     C_2   0.594955 0.604217 0.471069 -0.085535
C14   C     C_2   0.467636 0.101646 0.437818 -0.027361
C15   C     C_2   0.481130 0.134617 0.515032 -0.052154
C16   C     C_2   0.572909 0.628836 0.546848 -0.068241
C17   C     C_2   0.098230 0.460520 0.560195 -0.052072
C18   C     C_2   0.010194 0.508610 0.919841 0.305508
C19   C     C_2   0.490727 0.499991 0.919486 0.309202
C20   C     C_2   0.500226 0.989787 0.919950 0.306838
C21   C     C_2   0.509508 0.010606 0.080073 0.304770
C22   C     C_2   0.500815 0.491686 0.080423 0.308677
C23   C     C_R   0.936501 0.457559 0.852597 0.597006
C24   C     C_2   0.990147 0.500579 0.080195 0.306695
C25   C     C_2   0.028345 0.609262 0.035668 0.282376
C26   C     C_2   0.392156 0.417186 0.036848 0.281957
C27   C     C_2   0.583410 0.976016 0.037242 0.280638
C28   C     C_2   0.609086 0.027661 0.963982 0.282345
C29   C     C_2   0.417890 0.391474 0.963785 0.281754
C30   C     C_2   0.976804 0.583657 0.962454 0.280554
C31   C     C_2   0.076493 0.307914 0.458703 0.242376
C32   C     C_2   0.739141 0.671429 0.444128 0.256476
C33   C     C_2   0.392667 0.150855 0.390518 0.278466
C34   C     C_R   0.478574 0.542369 0.147451 0.598374
C35   C     C_2   0.436450 0.229826 0.536073 0.219316
C36   C     C_2   0.657326 0.769334 0.576844 0.255491
C37   C     C_2   0.153226 0.394992 0.609856 0.253926
C38   C     C_R   0.063124 0.521584 0.147580 0.592294
C39   C     C_R   0.457927 0.936841 0.147444 0.596173
C40   C     C_R   0.539241 0.485460 0.651867 0.580750
C41   C     C_R   0.546703 0.125529 0.639404 0.559240
C42   C     C_R   0.940384 0.459483 0.649570 0.573870
Cr1   Cr    Cr6+3 0.464030 0.233680 0.750360 1.122127
Cr2   Cr    Cr6+3 0.766320 0.230350 0.750360 1.111384
Cr3   Cr    Cr6+3 0.769650 0.535970 0.750360 1.099292
Cr4   Cr    Cr6+3 0.233680 0.464030 0.249640 1.129406
Cr5   Cr    Cr6+3 0.230350 0.766320 0.249640 1.110938
Cr6   Cr    Cr6+3 0.535970 0.769650 0.249640 1.092023
H1    H     H_    0.152851 0.649439 0.460141 0.095048
H2    H     H_    0.504460 0.336512 0.523866 0.072738
H3    H     H_    0.734047 0.852349 0.544230 0.078593
H4    H     H_    0.165568 0.310730 0.592005 0.137255
H5    H     H_    0.132675 0.805419 0.015940 0.346523
H6    H     H_    0.195608 0.320006 0.018358 0.344794
H7    H     H_    0.677301 0.874210 0.019408 0.345578
H8    H     H_    0.805256 0.132609 0.983234 0.346475
H9    H     H_    0.322333 0.195149 0.983193 0.345436
H10   H     H_    0.876920 0.679657 0.979889 0.344965
H11   H     H_    0.875894 0.304535 0.098374 0.328921
H12   H     H_    0.388441 0.452249 0.453847 0.120101
H13   H     H_    0.697712 0.580231 0.097209 0.332552
H14   H     H_    0.423013 0.120128 0.095530 0.334527
H15   H     H_    0.304088 0.875865 0.902598 0.328852
H16   H     H_    0.576654 0.696460 0.901509 0.333741
H17   H     H_    0.117926 0.420026 0.904699 0.334778
H18   H     H_    0.596186 0.014175 0.440161 0.069172
H19   H     H_    0.568970 0.014486 0.551269 0.104477
H20   H     H_    0.396285 0.437745 0.566181 0.097865
H21   H     H_    0.989062 0.567526 0.548021 0.089470
H22   H     H_    0.991352 0.218262 0.483635 0.102079
H23   H     H_    0.822058 0.754214 0.473567 0.094848
H24   H     H_    0.310325 0.163254 0.411773 0.163595
O1    O     O_R   0.434100 0.092480 0.829780 -0.488546
O2    O     O_R   0.362730 0.477510 0.175360 -0.454053
O3    O     O_R   0.114780 0.637270 0.175360 -0.456341
O4    O     O_R   0.522490 0.885220 0.175360 -0.460446
O5    O     O_R   0.432250 0.092620 0.670380 -0.453008
O6    O     O_R   0.907380 0.339630 0.670380 -0.495459
O7    O     O_R   0.660370 0.567750 0.670380 -0.486346
O8    O     O_R   0.092620 0.432250 0.329620 -0.452974
O9    O     O_R   0.339630 0.907380 0.329620 -0.489590
O10   O     O_R   0.567750 0.660370 0.329620 -0.478541
O11   O     O_R   0.475790 0.362860 0.676880 -0.493136
O12   O     O_R   0.907520 0.341620 0.829780 -0.477765
O13   O     O_R   0.637140 0.112930 0.676880 -0.490875
O14   O     O_R   0.887070 0.524210 0.676880 -0.516448
O15   O     O_R   0.362860 0.475790 0.323120 -0.482983
O16   O     O_R   0.112930 0.637140 0.323120 -0.489826
O17   O     O_R   0.524210 0.887070 0.323120 -0.525239
O18   O     O_3   0.666667 0.333333 0.749450 -0.315606
O19   O     O_3   0.333333 0.666667 0.250550 -0.324614
O20   O     O_2   0.148371 0.291211 0.416370 -0.494466
O21   O     O_2   0.768388 0.629434 0.391059 -0.463612
O22   O     O_2   0.426129 0.182876 0.328135 -0.478620
O23   O     O_R   0.658380 0.565900 0.829780 -0.482641
O24   O     O_2   0.322678 0.187825 0.561736 -0.499844
O25   O     O_2   0.637080 0.795647 0.637140 -0.462757
O26   O     O_2   0.188597 0.437188 0.670643 -0.477578
O27   O     O_3   0.119613 0.742435 0.056516 -0.671925
O28   O     O_3   0.258426 0.370741 0.058418 -0.671786
O29   O     O_3   0.627679 0.886887 0.059450 -0.672807
O30   O     O_3   0.742374 0.119285 0.942744 -0.672102
O31   O     O_3   0.372925 0.258037 0.942838 -0.671963
O32   O     O_3   0.889166 0.629588 0.940039 -0.672880
O33   O     O_3   0.893052 0.369883 0.058401 -0.692192
O34   O     O_R   0.092480 0.434100 0.170220 -0.488005
O35   O     O_3   0.632309 0.529829 0.058025 -0.691296
O36   O     O_3   0.473065 0.105101 0.056608 -0.691079
O37   O     O_3   0.369462 0.892739 0.942317 -0.692124
O38   O     O_3   0.527215 0.631132 0.941183 -0.690873
O39   O     O_3   0.103498 0.470700 0.943400 -0.690501
O40   O     O_R   0.341620 0.907520 0.170220 -0.477050
O41   O     O_R   0.565900 0.658380 0.170220 -0.484901
O42   O     O_R   0.477510 0.362730 0.824640 -0.457940
O43   O     O_R   0.637270 0.114780 0.824640 -0.453582
O44   O     O_R   0.885220 0.522490 0.824640 -0.459493

loop_
_geom_bond_atom_site_label_1
_geom_bond_atom_site_label_2
_ccdc_geom_bond_type
Cr1   O1    S    
C5    C42   S    
C8    H18   S    
Cr1   O11   S    
Cr6   O4    S    
C13   C32   S    
C4    C8    S    
C33   O22   D    
C14   C33   S    
C35   O24   D    
H5    O27   S    
C34   O41   A    
H11   O33   S    
Cr4   O15   S    
Cr1   O42   S    
C41   O5    A    
C5    C17   D    
Cr5   O40   S    
C29   O31   S    
C9    C13   D    
H17   O39   S    
C5    H21   S    
C33   H24   S    
C23   O44   A    
C25   O27   S    
C31   H22   S    
C4    O9    A    
Cr2   O43   S    
Cr6   O19   S    
C24   C38   S    
C36   O25   D    
C18   C30   D    
C12   O43   A    
C6    H20   S    
C32   O21   D    
C21   C27   D    
C11   C31   S    
C12   O1    A    
C40   O11   A    
H6    O28   S    
H9    O31   S    
C3    O8    A    
C15   C35   S    
C37   O26   D    
C32   H23   S    
C38   O3    A    
C22   C34   S    
C1    C19   S    
Cr1   O18   S    
C23   O12   A    
C18   C23   S    
C24   C25   D    
C37   H4    S    
Cr4   O19   S    
C20   C28   D    
C7    H19   S    
C27   O29   S    
H8    O30   S    
C38   O34   A    
H16   O38   S    
C21   C39   S    
C1    O23   A    
C12   C20   S    
C35   H2    S    
C40   O7    A    
C2    O15   A    
Cr3   O7    S    
C17   C37   S    
C39   O4    A    
C18   O39   S    
Cr3   O18   S    
C36   H3    S    
C34   O2    A    
C42   O14   A    
C39   O40   A    
C42   O6    A    
Cr6   O17   S    
C6    C40   S    
C2    O10   A    
H10   O32   S    
C1    O42   A    
Cr2   O13   S    
C19   C29   D    
Cr4   O2    S    
Cr2   O18   S    
C4    O17   A    
C19   O38   S    
C25   C30   S    
C11   C17   S    
C8    C14   D    
C3    O16   A    
Cr5   O19   S    
Cr2   O12   S    
Cr1   O5    S    
C41   O13   A    
H7    O29   S    
C9    H12   S    
Cr5   O16   S    
Cr2   O6    S    
Cr3   O14   S    
Cr5   O3    S    
C3    C10   S    
C16   C36   S    
Cr4   O8    S    
C10   H1    S    
Cr3   O44   S    
Cr4   O34   S    
C7    C15   D    
Cr6   O10   S    
Cr5   O9    S    
H13   O35   S    
C7    C41   S    
C21   O36   S    
C10   C11   D    
C6    C16   D    
C20   O37   S    
C28   O30   S    
H14   O36   S    
C26   C29   S    
C31   O20   D    
C22   C26   D    
C13   C16   S    
C30   O32   S    
C27   C28   S    
C14   C15   S    
Cr6   O41   S    
C24   O33   S    
C2    C9    S    
C22   O35   S    
C26   O28   S    
H15   O37   S    
Cr3   O23   S    
