data_mof_unit_17478.cif
_audit_creation_date              2012-12-10T17:43:40-0500
_audit_creation_method            fapswitch 2.2
_symmetry_space_group_name_H-M    P1
_symmetry_Int_Tables_number       1
_space_group_crystal_system       triclinic
_cell_length_a                    14.931061
_cell_length_b                    10.712303
_cell_length_c                    9.941311
_cell_angle_alpha                 89.422874
_cell_angle_beta                  91.488167
_cell_angle_gamma                 92.459746
_cell_volume                      1588.0086588

loop_
_atom_site_label
_atom_site_type_symbol
_atom_type_description
_atom_site_fract_x
_atom_site_fract_y
_atom_site_fract_z
_atom_type_partial_charge
C1    C     C_R   0.505000 0.260014 0.502151 0.869731
C2    C     C_R   0.182621 0.422065 0.407990 -0.260884
C3    C     C_R   0.231761 0.501529 0.495230 -0.045290
C4    C     C_R   0.327126 0.499767 0.498477 0.847009
C5    C     C_R   0.190274 0.581833 0.581161 -0.258677
C6    C     C_R   0.510229 0.107317 0.761763 -0.155226
C7    C     C_R   0.478514 0.043347 0.875041 -0.135488
C8    C     C_R   0.431726 0.929280 0.860266 -0.158520
C9    C     C_R   0.424757 0.873764 0.734169 -0.165081
C10   C     C_R   0.464480 0.932990 0.620910 0.088147
C11   C     C_R   0.494728 0.057831 0.630656 0.088876
C12   C     C_R   0.911407 0.583747 0.580150 0.096142
C13   C     C_R   0.507921 0.125874 0.508212 -0.103727
C14   C     C_R   0.509704 0.064166 0.385217 -0.187685
C15   C     C_R   0.498504 0.936960 0.381538 -0.208320
C16   C     C_R   0.490756 0.738445 0.499311 0.903125
C17   C     C_R   0.478801 0.870623 0.499306 -0.129744
C18   C     C_R   0.378479 0.340506 0.136922 -0.136870
C19   C     C_R   0.318275 0.261831 0.065630 -0.216570
C20   C     C_R   0.318398 0.261256 0.926326 -0.171099
C21   C     C_R   0.378578 0.339551 0.857420 -0.117665
C22   C     C_R   0.439211 0.422469 0.926121 0.060681
C23   C     C_R   0.946033 0.334650 0.328684 -0.125118
C24   C     C_R   0.439551 0.422212 0.070565 0.152969
C25   C     C_R   0.557646 0.573449 0.075760 -0.163615
C26   C     C_R   0.560981 0.571644 0.933817 0.422001
C27   C     C_R   0.673037 0.499520 0.501042 0.998670
C28   C     C_R   0.818850 0.583417 0.579560 -0.241455
C29   C     C_R   0.768801 0.497342 0.501477 -0.213596
C30   C     C_R   0.809932 0.413854 0.417780 0.566433
C31   C     C_R   0.902946 0.415480 0.413583 -0.006600
C32   C     C_R   0.953803 0.500020 0.496321 -0.026507
C33   C     C_R   0.039168 0.337457 0.325678 -0.238341
C34   C     C_R   0.089790 0.419940 0.408668 0.127443
C35   C     C_R   0.047062 0.501263 0.495006 0.097999
C36   C     C_R   0.097684 0.583626 0.580431 0.120294
C37   C     C_R   0.055054 0.665915 0.663685 -0.219993
C38   C     C_R   0.962035 0.666706 0.662705 -0.141785
F1    F     F_    0.759312 0.331261 0.341705 -0.661848
H1    H     H_    0.785931 0.651930 0.637442 0.248921
H2    H     H_    0.272663 0.198142 0.871185 0.152938
H3    H     H_    0.377444 0.329732 0.750895 0.203682
H4    H     H_    0.907979 0.269613 0.264336 0.207128
H5    H     H_    0.071602 0.274695 0.259345 0.152188
H6    H     H_    0.216717 0.359952 0.342763 0.138604
H7    H     H_    0.230286 0.643629 0.647043 0.142210
H8    H     H_    0.093602 0.729642 0.729003 0.149712
H9    H     H_    0.929672 0.731113 0.727253 0.174543
H10   H     H_    0.521226 0.113847 0.291303 0.184382
H11   H     H_    0.625900 0.813777 0.767331 0.367176
H12   H     H_    0.549616 0.192426 0.780432 0.185638
H13   H     H_    0.488935 0.083519 0.974033 0.154002
H14   H     H_    0.403663 0.881736 0.947105 0.139441
H15   H     H_    0.388343 0.784504 0.726228 0.149907
H16   H     H_    0.507197 0.890690 0.286599 0.177392
H17   H     H_    0.605256 0.629848 0.135153 0.208203
H18   H     H_    0.376097 0.333887 0.243745 0.195687
H19   H     H_    0.272036 0.199790 0.118998 0.145724
N1    N     N_R   0.499150 0.498800 0.142780 -0.153297
N2    N     N_R   0.499120 0.498720 0.857170 -0.183837
O1    O     O_R   0.500000 0.316780 0.614690 -0.666763
O2    O     O_2   0.723641 0.542476 0.842602 -0.273728
O3    O     O_3   0.645941 0.733141 0.733568 -0.549887
O4    O     O_R   0.499990 0.316750 0.385360 -0.627644
O5    O     O_R   0.367850 0.499980 0.614680 -0.654777
O6    O     O_R   0.367840 0.499960 0.385350 -0.641517
O7    O     O_R   0.500010 0.683250 0.614640 -0.585802
O8    O     O_R   0.500000 0.683220 0.385310 -0.631456
O9    O     O_R   0.632160 0.500040 0.614650 -0.531553
O10   O     O_R   0.632150 0.500020 0.385320 -0.577025
O11   O     O_2   0.705812 0.726575 0.976939 -0.335393
S1    S     S_3+6 0.660871 0.644202 0.871237 0.025521
Zn1   Zn    Zn3+2 0.500010 0.500020 0.653130 0.989239
Zn2   Zn    Zn3+2 0.499990 0.499980 0.346870 0.970619

loop_
_geom_bond_atom_site_label_1
_geom_bond_atom_site_label_2
_ccdc_geom_bond_type
C27   C29   S    
C26   S1    S    
C35   C36   A    
C25   H17   S    
C20   H2    S    
O5    Zn1   S    
C7    C8    A    
C37   C38   A    
C12   C28   A    
C18   C24   A    
C28   C29   A    
C7    H13   S    
C18   C19   A    
C22   N2    A    
C30   C31   A    
C14   H10   S    
C28   H1    S    
C10   C17   A    
O8    Zn2   S    
O6    Zn2   S    
C5    C36   A    
N2    Zn1   S    
C23   H4    S    
C34   C35   A    
C19   C20   A    
C8    C9    A    
C23   C33   A    
O10   Zn2   S    
O9    Zn1   S    
C16   O8    A    
C6    H12   S    
C37   H8    S    
C9    C10   A    
C38   H9    S    
C27   O9    A    
C2    C34   A    
C19   H19   S    
C13   C14   A    
C12   C32   A    
H11   O3    S    
C2    H6    S    
C32   C35   A    
C6    C11   A    
C16   C17   S    
O1    Zn1   S    
C25   C26   A    
C23   C31   A    
C29   C30   A    
C18   H18   S    
C31   C32   A    
C33   C34   A    
O2    S1    D    
C16   O7    A    
O3    S1    S    
N1    Zn2   S    
C27   O10   A    
O7    Zn1   S    
C22   C24   A    
C1    C13   S    
C3    C4    S    
C1    O4    A    
C15   C17   A    
C36   C37   A    
C33   H5    S    
C3    C5    A    
C1    O1    A    
C8    H14   S    
C6    C7    A    
C5    H7    S    
C2    C3    A    
O11   S1    D    
C4    O6    A    
C11   C13   A    
C4    O5    A    
C24   N1    A    
C30   F1    S    
C12   C38   A    
C10   C11   A    
C21   H3    S    
C20   C21   A    
O4    Zn2   S    
C14   C15   A    
C9    H15   S    
C25   N1    A    
C21   C22   A    
C26   N2    A    
C15   H16   S    
