data_mof_unit_34088.cif
_audit_creation_date              2012-12-10T17:31:14-0500
_audit_creation_method            fapswitch 2.2
_symmetry_space_group_name_H-M    P1
_symmetry_Int_Tables_number       1
_space_group_crystal_system       triclinic
_cell_length_a                    12.016141
_cell_length_b                    12.789389
_cell_length_c                    15.500218
_cell_angle_alpha                 86.493365
_cell_angle_beta                  116.335322
_cell_angle_gamma                 95.083135
_cell_volume                      2125.79955699

loop_
_atom_site_label
_atom_site_type_symbol
_atom_type_description
_atom_site_fract_x
_atom_site_fract_y
_atom_site_fract_z
_atom_type_partial_charge
C1    C     C_R   0.475314 0.299317 0.498009 0.973938
C2    C     C_R   0.665397 0.970602 0.581594 0.427131
C3    C     C_R   0.342521 0.138477 0.428874 0.359668
C4    C     C_R   0.657469 0.861483 0.571317 0.349615
C5    C     C_R   0.559186 0.130964 0.548095 -0.323818
C6    C     C_R   0.440839 0.869031 0.452047 -0.322230
C7    C     C_R   0.556478 0.025505 0.532928 -0.044679
C8    C     C_R   0.443532 0.974470 0.467263 -0.046400
C9    C     C_R   0.006214 0.602687 0.412681 -0.335357
C10   C     C_R   0.993821 0.397358 0.587370 -0.338455
C11   C     C_R   0.126315 0.592447 0.421074 0.023866
C12   C     C_R   0.524701 0.700680 0.502032 0.943842
C13   C     C_R   0.873702 0.407575 0.578950 0.025309
C14   C     C_R   0.159119 0.455207 0.537851 -0.007412
C15   C     C_R   0.840904 0.544820 0.462180 -0.004681
C16   C     C_R   0.577614 0.497469 0.680394 0.865394
C17   C     C_R   0.422509 0.503265 0.319627 0.932293
C18   C     C_R   0.038718 0.462597 0.531773 0.085809
C19   C     C_R   0.961314 0.537440 0.468271 0.085642
C20   C     C_R   0.627713 0.496459 0.784807 -0.166071
C21   C     C_R   0.372568 0.505617 0.215334 -0.084344
C22   C     C_R   0.767793 0.428698 0.940807 -0.199241
C23   C     C_R   0.634412 0.457055 0.110530 -0.224560
C24   C     C_R   0.229987 0.569408 0.058418 -0.187054
C25   C     C_R   0.734651 0.444253 0.843009 -0.243180
C26   C     C_R   0.266031 0.558247 0.156993 -0.287290
C27   C     C_R   0.558192 0.537664 0.825754 0.369058
C28   C     C_R   0.437976 0.459288 0.174404 0.366161
C29   C     C_R   0.573413 0.499757 0.916871 0.047191
C30   C     C_R   0.420378 0.491972 0.081107 -0.037286
C31   C     C_R   0.686394 0.454050 0.977776 0.102691
C32   C     C_R   0.308387 0.539195 0.020454 0.130239
C33   C     C_R   0.481615 0.507424 0.949874 0.094067
C34   C     C_R   0.359094 0.533959 0.887250 -0.143574
C35   C     C_R   0.511729 0.483099 0.047836 0.044759
C36   C     C_3   0.162846 0.924590 0.406266 0.084998
C37   C     C_3   0.061883 0.989092 0.405677 -0.866549
C38   C     C_3   0.837229 0.075313 0.594054 0.085965
C39   C     C_3   0.938196 0.010758 0.594706 -0.865986
C40   C     C_R   0.717697 0.436864 0.075010 -0.213898
C41   C     C_R   0.276264 0.554973 0.922965 -0.234281
C42   C     C_R   0.544097 0.812680 0.506315 -0.175436
C43   C     C_R   0.455926 0.187308 0.493803 -0.176139
C44   C     C_R   0.334598 0.029356 0.418626 0.425544
H1    H     H_    0.807839 0.409818 0.124156 0.157953
H2    H     H_    0.145282 0.607213 0.013085 0.157580
H3    H     H_    0.668342 0.451698 0.187701 0.204815
H4    H     H_    0.324705 0.538833 0.810046 0.207488
H5    H     H_    0.356145 0.828389 0.400799 0.200806
H6    H     H_    0.643891 0.171624 0.599309 0.199355
H7    H     H_    0.780468 0.602079 0.413608 0.123800
H8    H     H_    0.219565 0.397959 0.586433 0.124780
H9    H     H_    0.508552 0.328284 0.177108 0.336499
H10   H     H_    0.509617 0.656767 0.734981 0.345986
H11   H     H_    0.825022 0.843907 0.673853 0.374058
H12   H     H_    0.186514 0.582887 0.874020 0.156187
H13   H     H_    0.174887 0.156002 0.326435 0.373690
H14   H     H_    0.226313 0.901919 0.482013 0.142350
H15   H     H_    0.117472 0.850249 0.368792 0.165484
H16   H     H_    0.998463 0.012479 0.330692 0.269874
H17   H     H_    0.006891 0.941418 0.437472 0.221632
H18   H     H_    0.104554 0.060516 0.448833 0.258221
H19   H     H_    0.882617 0.149646 0.631543 0.164727
H20   H     H_    0.773824 0.097998 0.518291 0.144259
H21   H     H_    0.895517 0.939353 0.551516 0.259031
H22   H     H_    0.993277 0.058413 0.562976 0.221130
H23   H     H_    0.839958 0.357110 0.622128 0.116294
H24   H     H_    0.001538 0.987332 0.669706 0.270143
H25   H     H_    0.160059 0.642913 0.377897 0.117875
H26   H     H_    0.949067 0.661142 0.363105 0.146791
H27   H     H_    0.050981 0.338921 0.636965 0.144966
H28   H     H_    0.211534 0.590796 0.187523 0.174479
H29   H     H_    0.791343 0.414819 0.812869 0.173417
H30   H     H_    0.853125 0.391794 0.986255 0.157410
N1    N     N_R   0.799120 0.480200 0.517090 -0.090879
N2    N     N_R   0.200880 0.519800 0.482910 -0.090628
O1    O     O_R   0.580150 0.341050 0.504560 -0.631241
O2    O     O_3   0.482754 0.619421 0.781257 -0.777769
O3    O     O_3   0.755688 0.800338 0.625670 -0.759905
O4    O     O_3   0.244265 0.199597 0.374552 -0.755038
O5    O     O_3   0.223873 0.978733 0.354954 -0.634520
O6    O     O_3   0.776105 0.021207 0.645311 -0.635054
O7    O     O_R   0.419850 0.658950 0.495440 -0.644729
O8    O     O_R   0.388090 0.353760 0.493600 -0.572446
O9    O     O_R   0.611910 0.646240 0.506400 -0.573244
O10   O     O_R   0.650890 0.490020 0.640860 -0.613422
O11   O     O_R   0.349110 0.509980 0.359140 -0.628008
O12   O     O_R   0.458830 0.502730 0.629890 -0.606025
O13   O     O_R   0.541170 0.497270 0.370110 -0.577569
O14   O     O_3   0.510065 0.377623 0.224623 -0.769970
Zn1   Zn    Zn3+2 0.628240 0.491510 0.507320 0.985309
Zn2   Zn    Zn3+2 0.371760 0.508490 0.492680 0.968802

loop_
_geom_bond_atom_site_label_1
_geom_bond_atom_site_label_2
_ccdc_geom_bond_type
C15   N1    A    
C21   C26   A    
C27   C29   A    
C26   H28   S    
C39   H24   S    
C14   C18   A    
C2    C7    A    
C36   H15   S    
C37   H18   S    
O9    Zn1   S    
C7    C8    A    
C1    O8    A    
C15   C19   A    
O7    Zn2   S    
C3    C43   A    
C30   C35   A    
C36   C37   S    
C24   C26   A    
C36   H14   S    
O10   Zn1   S    
C38   C39   S    
C20   C25   A    
C23   C40   A    
C29   C33   A    
C1    O1    A    
C31   C40   A    
C18   C19   A    
C12   C42   S    
C1    C43   S    
C14   H8    S    
C13   N1    A    
C22   C25   A    
C32   C41   A    
C15   H7    S    
O13   Zn1   S    
N1    Zn1   S    
C10   H27   S    
C27   O2    S    
C5    C43   A    
O11   Zn2   S    
C38   O6    S    
C16   O10   A    
C39   H21   S    
H13   O4    S    
C34   C41   A    
C3    O4    S    
C9    C19   A    
C38   H20   S    
C40   H1    S    
C3    C44   A    
C23   H3    S    
C22   C31   A    
O12   Zn2   S    
C17   O13   A    
C9    H26   S    
C4    O3    S    
C44   O5    S    
C5    C7    A    
C6    C8    A    
C17   C21   S    
C12   O7    A    
C14   N2    A    
C2    C4    A    
C24   C32   A    
C41   H12   S    
H11   O3    S    
C36   O5    S    
C16   C20   S    
C33   C34   A    
C9    C11   A    
N2    Zn2   S    
C12   O9    A    
C21   C28   A    
C23   C35   A    
C39   H22   S    
C5    H6    S    
C2    O6    S    
C34   H4    S    
C22   H30   S    
C38   H19   S    
C13   H23   S    
O1    Zn1   S    
C17   O11   A    
C8    C44   A    
C10   C13   A    
C37   H17   S    
C11   H25   S    
C20   C27   A    
C11   N2    A    
C24   H2    S    
C28   C30   A    
C29   C31   A    
C30   C32   A    
C4    C42   A    
C10   C18   A    
C33   C35   A    
C25   H29   S    
C6    H5    S    
C37   H16   S    
C6    C42   A    
H9    O14   S    
C16   O12   A    
C28   O14   S    
O8    Zn2   S    
H10   O2    S    
