data_mof_unit_12574.cif
_audit_creation_date              2012-12-11T15:29:12-0500
_audit_creation_method            fapswitch 2.2
_symmetry_space_group_name_H-M    P1
_symmetry_Int_Tables_number       1
_space_group_crystal_system       triclinic
_cell_length_a                    13.481004
_cell_length_b                    13.505979
_cell_length_c                    27.556357
_cell_angle_alpha                 90.390103
_cell_angle_beta                  89.976841
_cell_angle_gamma                 59.978823
_cell_volume                      4344.03938483

loop_
_atom_site_label
_atom_site_type_symbol
_atom_type_description
_atom_site_fract_x
_atom_site_fract_y
_atom_site_fract_z
_atom_type_partial_charge
C1    C     C_R   0.620414 0.101080 0.569883 0.540641
C2    C     C_1   0.649798 0.704360 0.657816 -0.057410
C3    C     C_3   0.110986 0.108337 0.738685 -0.096125
C4    C     C_R   0.599888 0.779029 0.568404 0.541973
C5    C     C_3   0.208403 0.053332 0.776925 -0.134615
C6    C     C_1   0.099049 0.199551 0.900603 -0.001635
C7    C     C_1   0.229701 0.137378 0.617059 -0.011467
C8    C     C_3   0.056345 0.219701 0.768699 0.270614
C9    C     C_3   0.151325 0.165691 0.806453 0.084198
C10   C     C_3   0.122888 0.266065 0.740779 -0.089155
C11   C     C_3   0.180050 0.153398 0.711393 0.014571
C12   C     C_1   0.631423 0.731486 0.615880 -0.010308
C13   C     C_3   0.220208 0.210351 0.778844 -0.134232
C14   C     C_3   0.277990 0.097727 0.748650 -0.122018
C15   C     C_1   0.127860 0.179690 0.858670 -0.016305
C16   C     C_R   0.277685 0.121605 0.569343 0.544678
C17   C     C_1   0.202051 0.146015 0.659110 -0.056245
C18   C     C_3   0.687716 0.244796 0.737352 -0.094635
C19   C     C_3   0.585940 0.285095 0.773295 -0.098111
C20   C     C_1   0.691214 0.207057 0.901396 -0.008363
C21   C     C_1   0.635710 0.132853 0.617829 -0.013109
C22   C     C_3   0.764338 0.145553 0.771822 -0.089886
C23   C     C_3   0.679161 0.568972 0.767778 -0.090026
C24   C     C_3   0.662426 0.185537 0.806971 0.054115
C25   C     C_3   0.727099 0.067252 0.746074 -0.109332
C26   C     C_3   0.650651 0.166699 0.712346 0.049674
C27   C     C_3   0.625404 0.107405 0.781948 -0.109265
C28   C     C_R   0.622784 0.101341 0.431948 0.530535
C29   C     C_3   0.548654 0.206671 0.747433 -0.103065
C30   C     C_1   0.674112 0.196210 0.859308 -0.048854
C31   C     C_1   0.643912 0.151703 0.659992 -0.057522
C32   C     C_R   0.639624 0.726464 0.381466 0.093604
C33   C     C_R   0.719004 0.746430 0.355533 0.192973
C34   C     C_3   0.679309 0.655256 0.804471 0.056543
C35   C     C_R   0.726135 0.733231 0.305358 -0.123527
C36   C     C_R   0.661407 0.694516 0.281008 -0.026622
C37   C     C_R   0.593506 0.661835 0.307115 -0.123739
C38   C     C_R   0.581586 0.677790 0.357478 0.204070
C39   C     C_R   0.570312 0.712595 0.200783 -0.113625
C40   C     C_R   0.601968 0.777631 0.430005 0.593139
C41   C     C_R   0.580905 0.686857 0.151544 -0.130151
C42   C     C_R   0.784964 0.618979 0.155967 -0.127603
C43   C     C_R   0.774849 0.642115 0.205156 -0.120396
C44   C     C_R   0.668376 0.684629 0.228203 0.043407
C45   C     C_3   0.577497 0.668949 0.741342 -0.107524
C46   C     C_R   0.689456 0.634331 0.129590 0.023276
C47   C     C_R   0.253030 0.126915 0.379293 -0.011799
C48   C     C_R   0.158560 0.121371 0.362129 -0.146828
C49   C     C_R   0.140130 0.123711 0.312215 -0.098492
C50   C     C_R   0.218018 0.127939 0.279426 0.060704
C51   C     C_R   0.317544 0.126014 0.296970 0.233060
C52   C     C_R   0.280701 0.119562 0.430523 0.533148
C53   C     C_R   0.332507 0.127489 0.346722 -0.053618
C54   C     C_R   0.172367 0.249287 0.207207 -0.172140
C55   C     C_R   0.134354 0.276616 0.159802 -0.146613
C56   C     C_3   0.663563 0.683360 0.709983 0.046421
C57   C     C_R   0.129445 0.099944 0.152553 -0.122184
C58   C     C_R   0.168382 0.071500 0.200478 0.240932
C59   C     C_R   0.187226 0.148401 0.228000 0.052510
C60   C     C_R   0.109309 0.203925 0.132561 -0.007933
C61   C     C_R   0.642592 0.143304 0.385842 0.010031
C62   C     C_R   0.546208 0.229050 0.361613 -0.159061
C63   C     C_R   0.551233 0.247196 0.312510 -0.103466
C64   C     C_3   0.765094 0.583768 0.735634 -0.089188
C65   C     C_R   0.653335 0.181770 0.286802 -0.003698
C66   C     C_R   0.753061 0.104913 0.311720 -0.061822
C67   C     C_3   0.577827 0.754796 0.778767 -0.108404
C68   C     C_R   0.749543 0.086833 0.361299 0.243549
C69   C     C_R   0.719245 0.096190 0.204670 -0.105913
C70   C     C_R   0.732261 0.108096 0.155394 -0.123372
C71   C     C_R   0.609750 0.313694 0.163364 -0.125336
C72   C     C_R   0.597931 0.301884 0.212718 -0.113960
C73   C     C_R   0.655930 0.193415 0.233985 0.045503
C74   C     C_R   0.681193 0.217322 0.134853 0.022134
C75   C     C_R   0.050120 0.234803 0.948073 0.548098
C76   C     C_3   0.765509 0.669622 0.773184 -0.091676
C77   C     C_R   0.711861 0.562106 0.946464 0.547907
C78   C     C_3   0.663709 0.769693 0.746644 -0.106879
C79   C     C_R   0.722460 0.224209 0.949110 0.548643
C80   C     C_R   0.047879 0.243624 0.086459 0.545898
C81   C     C_R   0.708605 0.573350 0.083789 0.540710
C82   C     C_R   0.719585 0.233112 0.087426 0.541301
C83   C     C_1   0.697088 0.608050 0.898714 -0.007639
C84   C     C_1   0.688045 0.634468 0.856675 -0.046224
Cr1   Cr    Cr6+3 0.417550 0.169090 0.500530 1.027801
Cr2   Cr    Cr6+3 0.669180 0.913420 0.499920 1.077694
Cr3   Cr    Cr6+3 0.413260 0.917540 0.499520 1.063529
Cr4   Cr    Cr6+3 0.909770 0.175810 0.018240 1.024307
Cr5   Cr    Cr6+3 0.913300 0.427650 0.016090 1.024818
Cr6   Cr    Cr6+3 0.657770 0.431010 0.016900 1.023688
H1    H     H_    0.842550 0.670262 0.786964 0.109427
H2    H     H_    0.841707 0.513633 0.717335 0.107150
H3    H     H_    0.486725 0.749217 0.217822 0.135494
H4    H     H_    0.505921 0.700808 0.131505 0.128151
H5    H     H_    0.851907 0.619402 0.225534 0.105765
H6    H     H_    0.869737 0.578825 0.139834 0.131372
H7    H     H_    0.186806 0.308804 0.228372 0.136458
H8    H     H_    0.119204 0.357425 0.145409 0.138958
H9    H     H_    0.063514 0.125418 0.299124 0.152269
H10   H     H_    0.110945 0.042951 0.131623 0.113041
H11   H     H_    0.409041 0.125293 0.360170 0.146245
H12   H     H_    0.265942 0.250986 0.795705 0.106480
H13   H     H_    0.463690 0.276311 0.379520 0.143440
H14   H     H_    0.761753 0.011357 0.220170 0.111285
H15   H     H_    0.787046 0.032563 0.133929 0.125883
H16   H     H_    0.473421 0.307865 0.294176 0.138146
H17   H     H_    0.548709 0.378169 0.234609 0.101889
H18   H     H_    0.501142 0.825136 0.796957 0.101666
H19   H     H_    0.570139 0.399052 0.148448 0.134086
H20   H     H_    0.834169 0.058640 0.292626 0.134343
H21   H     H_    0.500414 0.668270 0.727633 0.109105
H22   H     H_    0.685296 0.486248 0.777155 0.125702
H23   H     H_    0.085592 0.353513 0.725723 0.103309
H24   H     H_    0.244460 0.966261 0.792240 0.105125
H25   H     H_    0.064071 0.068787 0.721973 0.102403
H26   H     H_    0.370687 0.046787 0.739648 0.112989
H27   H     H_    0.899308 0.304492 0.748964 0.302489
H28   H     H_    0.833747 0.794975 0.355511 0.339079
H29   H     H_    0.779735 0.757182 0.285129 0.105004
H30   H     H_    0.548283 0.625808 0.288189 0.102931
H31   H     H_    0.477885 0.616749 0.361176 0.323015
H32   H     H_    0.098517 0.117711 0.387150 0.131518
H33   H     H_    0.657366 0.852507 0.737263 0.103195
H34   H     H_    0.527707 0.374771 0.785123 0.105096
H35   H     H_    0.169817 0.926904 0.197018 0.315284
H36   H     H_    0.392759 0.100114 0.233955 0.335417
H37   H     H_    0.844751 0.034672 0.418456 0.337079
H38   H     H_    0.713252 0.301082 0.718536 0.099681
H39   H     H_    0.459714 0.231867 0.736772 0.107155
H40   H     H_    0.599718 0.051112 0.800669 0.101882
H41   H     H_    0.785424 0.977539 0.734303 0.105432
H42   H     H_    0.853377 0.120100 0.782420 0.139415
O1    O     O_R   0.301780 0.195490 0.553940 -0.503361
O2    O     O_R   0.636050 0.541380 0.962520 -0.508570
O3    O     O_R   0.666480 0.323610 0.968170 -0.493676
O4    O     O_R   0.522450 0.158840 0.550250 -0.493493
O5    O     O_R   0.817280 0.156800 0.072180 -0.518682
O6    O     O_R   0.005110 0.187160 0.067410 -0.503280
O7    O     O_R   0.026450 0.340060 0.069950 -0.521041
O8    O     O_R   0.808300 0.527240 0.065170 -0.507111
O9    O     O_R   0.634070 0.548770 0.069460 -0.522482
O10   O     O_R   0.664650 0.330470 0.067300 -0.503833
O11   O     O_3   0.826940 0.344820 0.017080 -0.243797
O12   O     O_R   0.658840 0.818280 0.449970 -0.445968
O13   O     O_R   0.694460 0.003360 0.553820 -0.510072
O14   O     O_R   0.657750 0.819520 0.549120 -0.499140
O15   O     O_R   0.501990 0.803120 0.552700 -0.505124
O16   O     O_R   0.318230 0.023430 0.549370 -0.495709
O17   O     O_R   0.302950 0.194150 0.446980 -0.516206
O18   O     O_R   0.523540 0.157600 0.451100 -0.517451
O19   O     O_R   0.695630 0.002030 0.446860 -0.460628
O20   O     O_3   0.939898 0.283882 0.780475 -0.712993
O21   O     O_3   0.784288 0.784637 0.379192 -0.648565
O22   O     O_3   0.511957 0.649306 0.383570 -0.673068
O23   O     O_R   0.503160 0.801780 0.445740 -0.458779
O24   O     O_3   0.186986 0.970839 0.221241 -0.709624
O25   O     O_3   0.401647 0.122715 0.267189 -0.713793
O26   O     O_3   0.851018 0.012291 0.383802 -0.684941
O27   O     O_R   0.319320 0.022190 0.450230 -0.487518
O28   O     O_3   0.499990 0.000010 0.499990 -0.268407
O29   O     O_R   0.819250 0.149410 0.965240 -0.505924
O30   O     O_R   0.006940 0.180310 0.968270 -0.494175
O31   O     O_R   0.028420 0.332670 0.963010 -0.504355
O32   O     O_R   0.810130 0.520390 0.966030 -0.491372

loop_
_geom_bond_atom_site_label_1
_geom_bond_atom_site_label_2
_ccdc_geom_bond_type
C81   O8    A    
C66   C68   A    
C63   C65   A    
C28   O18   A    
C23   C45   S    
C5    H24   S    
C27   C29   S    
C1    O13   A    
C35   C36   A    
C18   C26   S    
C24   C27   S    
C82   O10   A    
C2    C12   T    
Cr2   O12   S    
C6    C75   S    
C39   C41   A    
C20   C30   T    
C1    C21   S    
C23   H22   S    
C21   C31   T    
C5    C9    S    
C62   C63   A    
Cr3   O15   S    
C75   O30   A    
C42   H6    S    
C50   C59   S    
C36   C37   A    
C8    O20   S    
C74   C82   S    
C82   O5    A    
C48   H32   S    
Cr6   O2    S    
C11   C14   S    
C33   O21   S    
C67   H18   S    
C69   H14   S    
C77   C83   S    
Cr4   O29   S    
C65   C73   S    
Cr3   O28   S    
H28   O21   S    
C75   O31   A    
C18   C19   S    
C42   C46   A    
C9    C13   S    
Cr1   O18   S    
C39   H3    S    
C18   H38   S    
C6    C15   T    
C35   H29   S    
C29   H39   S    
C47   C48   A    
C45   C56   S    
C53   H11   S    
C52   O17   A    
C7    C17   T    
C22   C25   S    
C70   C74   A    
C43   H5    S    
C41   C46   A    
C56   C64   S    
C54   H7    S    
C69   C73   A    
Cr4   O30   S    
Cr1   O28   S    
C32   C38   A    
C4    C12   S    
C1    O4    A    
Cr5   O32   S    
Cr6   O11   S    
C56   C78   S    
H35   O24   S    
C47   C53   A    
C22   H42   S    
C28   C61   S    
C23   C34   S    
C77   O32   A    
C81   O9    A    
C26   C31   S    
C55   C60   A    
C61   C62   A    
C67   C78   S    
C34   C84   S    
C79   O29   A    
C68   O26   S    
C16   O1    A    
Cr2   O14   S    
C24   C30   S    
C54   C59   A    
C19   H34   S    
Cr3   O16   S    
C3    C11   S    
C3    C8    S    
H31   O22   S    
C8    C9    S    
C57   C60   A    
Cr1   O4    S    
Cr5   O7    S    
C25   C26   S    
Cr5   O11   S    
C57   H10   S    
C10   C13   S    
C51   C53   A    
C47   C52   S    
C43   C44   A    
C45   C67   S    
C37   C38   A    
C49   H9    S    
C46   C81   S    
C41   H4    S    
C72   H17   S    
Cr5   O8    S    
C4    O14   A    
C50   C51   A    
C64   C76   S    
C40   O23   A    
C66   H20   S    
C63   H16   S    
C78   H33   S    
H37   O26   S    
Cr4   O6    S    
C5    C14   S    
Cr6   O10   S    
C10   H23   S    
C58   O24   S    
C26   C29   S    
C23   C64   S    
C49   C50   A    
C40   O12   A    
C22   C24   S    
C83   C84   T    
C42   C43   A    
C64   H2    S    
C19   C29   S    
Cr2   O13   S    
C62   H13   S    
H36   O25   S    
C54   C55   A    
C48   C49   A    
Cr4   O11   S    
C20   C79   S    
C60   C80   S    
C18   C22   S    
C7    C16   S    
C76   C78   S    
C72   C73   A    
C3    C5    S    
C70   H15   S    
C11   C17   S    
C34   C67   S    
C71   C74   A    
C45   H21   S    
C39   C44   A    
C25   C27   S    
C80   O7    A    
C79   O3    A    
C80   O6    A    
C16   O16   A    
C32   C33   A    
C19   C24   S    
C58   C59   A    
C71   C72   A    
C3    H25   S    
Cr2   O19   S    
Cr6   O3    S    
C4    O15   A    
C61   C68   A    
C57   C58   A    
C37   H30   S    
C52   O27   A    
C14   H26   S    
C71   H19   S    
C55   H8    S    
C33   C35   A    
Cr3   O27   S    
H27   O20   S    
Cr3   O23   S    
C32   C40   S    
C9    C15   S    
C69   C70   A    
Cr1   O17   S    
Cr4   O5    S    
Cr6   O9    S    
C36   C44   S    
C10   C11   S    
C76   H1    S    
C28   O19   A    
C8    C10   S    
C65   C66   A    
C77   O2    A    
Cr1   O1    S    
C27   H40   S    
C38   O22   S    
C2    C56   S    
C13   H12   S    
C13   C14   S    
Cr2   O28   S    
Cr5   O31   S    
C51   O25   S    
C34   C76   S    
C25   H41   S    
