data_mof_unit_35350.cif
_audit_creation_date              2012-12-10T17:28:31-0500
_audit_creation_method            fapswitch 2.2
_symmetry_space_group_name_H-M    P1
_symmetry_Int_Tables_number       1
_space_group_crystal_system       triclinic
_cell_length_a                    10.627886
_cell_length_b                    12.086898
_cell_length_c                    12.792306
_cell_angle_alpha                 94.611225
_cell_angle_beta                  90.887306
_cell_angle_gamma                 87.189916
_cell_volume                      1635.87762931

loop_
_atom_site_label
_atom_site_type_symbol
_atom_type_description
_atom_site_fract_x
_atom_site_fract_y
_atom_site_fract_z
_atom_type_partial_charge
C1    C     C_R   0.499770 0.522951 0.700322 0.846221
C2    C     C_R   0.446643 0.546432 0.132090 -0.285336
C3    C     C_R   0.535753 0.455308 0.974298 0.187174
C4    C     C_R   0.464247 0.544692 0.025702 0.187173
C5    C     C_R   0.405968 0.946709 0.385232 -0.307249
C6    C     C_R   0.594033 0.053291 0.614768 -0.307248
C7    C     C_R   0.412334 0.832705 0.398315 -0.011406
C8    C     C_R   0.587667 0.167295 0.601685 -0.011407
C9    C     C_R   0.536286 0.863156 0.553326 0.182887
C10   C     C_R   0.463713 0.136844 0.446674 0.182888
C11   C     C_R   0.533093 0.978877 0.542520 0.072633
C12   C     C_R   0.500230 0.477049 0.299678 0.846221
C13   C     C_R   0.466907 0.021123 0.457480 0.072631
C14   C     C_R   0.738766 0.500899 0.499902 0.873940
C15   C     C_R   0.261234 0.499101 0.500097 0.873941
C16   C     C_R   0.866059 0.497558 0.306015 -0.142363
C17   C     C_R   0.133942 0.502433 0.693986 -0.142362
C18   C     C_R   0.930056 0.493296 0.211379 -0.139975
C19   C     C_R   0.069944 0.506691 0.788622 -0.139973
C20   C     C_R   0.060967 0.490385 0.211359 -0.144591
C21   C     C_R   0.939033 0.509603 0.788641 -0.144591
C22   C     C_R   0.127921 0.491647 0.305970 -0.159272
C23   C     C_R   0.502547 0.462144 0.187795 -0.047568
C24   C     C_R   0.872078 0.508349 0.694030 -0.159270
C25   C     C_R   0.064206 0.496168 0.402982 0.070063
C26   C     C_R   0.935794 0.503831 0.597018 0.070062
C27   C     C_R   0.932731 0.499112 0.403006 0.071918
C28   C     C_R   0.067270 0.500885 0.596995 0.071918
C29   C     C_R   0.128851 0.497293 0.499980 -0.186947
C30   C     C_R   0.871149 0.502707 0.500020 -0.186946
C31   C     C_R   0.497452 0.537856 0.812205 -0.047569
C32   C     C_R   0.412919 0.631577 0.970224 -0.225537
C33   C     C_R   0.587081 0.368422 0.029776 -0.225538
C34   C     C_R   0.429601 0.628149 0.862878 -0.219704
C35   C     C_R   0.570398 0.371850 0.137122 -0.219707
C36   C     C_R   0.553357 0.453567 0.867909 -0.285338
H1    H     H_    0.889142 0.513020 0.862081 0.135741
H2    H     H_    0.770417 0.511343 0.697780 0.119825
H3    H     H_    0.392537 0.615223 0.172193 0.146373
H4    H     H_    0.607463 0.384777 0.827807 0.146372
H5    H     H_    0.614543 0.307016 0.180862 0.157579
H6    H     H_    0.385457 0.692983 0.819138 0.157579
H7    H     H_    0.358474 0.700530 0.009382 0.141178
H8    H     H_    0.641526 0.299469 0.990618 0.141178
H9    H     H_    0.634046 0.223764 0.657954 0.140261
H10   H     H_    0.365955 0.776236 0.342046 0.140261
H11   H     H_    0.466729 0.202156 0.306462 0.204778
H12   H     H_    0.110858 0.486965 0.137920 0.135741
H13   H     H_    0.338792 0.245199 0.381881 0.233774
H14   H     H_    0.533270 0.797846 0.693537 0.204777
H15   H     H_    0.661204 0.754800 0.618119 0.233776
H16   H     H_    0.353820 0.975752 0.318571 0.175173
H17   H     H_    0.646181 0.024248 0.681429 0.175173
H18   H     H_    0.764358 0.499641 0.302311 0.132474
H19   H     H_    0.235643 0.500348 0.697689 0.132477
H20   H     H_    0.877870 0.492126 0.137953 0.139766
H21   H     H_    0.122131 0.507855 0.862048 0.139764
H22   H     H_    0.229583 0.488654 0.302219 0.119824
N1    N     N_R   0.523130 0.207800 0.519340 -0.112140
N2    N     N_R   0.476870 0.792200 0.480660 -0.112140
N3    N     N_3   0.399594 0.178196 0.357673 -0.479504
N4    N     N_3   0.600404 0.821805 0.642326 -0.479506
O1    O     O_R   0.506170 0.421700 0.658830 -0.621429
O2    O     O_R   0.493830 0.578300 0.341170 -0.621428
O3    O     O_R   0.491330 0.609310 0.646410 -0.642447
O4    O     O_R   0.508670 0.390690 0.353590 -0.642447
O5    O     O_R   0.690650 0.406190 0.506220 -0.609675
O6    O     O_R   0.309350 0.593810 0.493780 -0.609674
O7    O     O_R   0.675800 0.593810 0.493800 -0.626399
O8    O     O_R   0.324200 0.406190 0.506200 -0.626400
Zn1   Zn    Zn3+2 0.509910 0.374730 0.508290 0.929784
Zn2   Zn    Zn3+2 0.490090 0.625270 0.491710 0.929785

loop_
_geom_bond_atom_site_label_1
_geom_bond_atom_site_label_2
_ccdc_geom_bond_type
C19   C21   A    
C22   H22   S    
O7    Zn2   S    
C2    C4    A    
C14   O5    A    
C5    H16   S    
H11   N3    S    
O8    Zn1   S    
C15   C29   S    
C25   C27   A    
O3    Zn2   S    
C11   C13   A    
C17   H19   S    
C24   H2    S    
O4    Zn1   S    
C34   H6    S    
C18   H20   S    
O6    Zn2   S    
C9    N2    A    
C16   C27   A    
C10   N1    A    
C14   O7    A    
C31   C34   A    
C6    C11   A    
C4    C32   A    
C19   H21   S    
C27   C30   A    
C9    C11   A    
C12   C23   S    
C20   H12   S    
H15   N4    S    
C12   O4    A    
C3    C36   A    
C14   C30   S    
C35   H5    S    
C15   O6    A    
C1    O1    A    
C26   C28   A    
C17   C19   A    
C32   H7    S    
O1    Zn1   S    
C26   C30   A    
O5    Zn1   S    
O2    Zn2   S    
C8    N1    A    
C25   C29   A    
H14   N4    S    
C23   C35   A    
C16   H18   S    
C1    O3    A    
C10   N3    S    
H13   N3    S    
C3    C33   A    
C6    H17   S    
C9    N4    S    
C15   O8    A    
C7    H10   S    
C7    N2    A    
C1    C31   S    
C21   H1    S    
C18   C20   A    
C16   C18   A    
C21   C24   A    
N1    Zn1   S    
C2    C23   A    
C5    C7    A    
C12   O2    A    
N2    Zn2   S    
C8    H9    S    
C28   C29   A    
C36   H4    S    
C6    C8    A    
C33   C35   A    
C31   C36   A    
C17   C28   A    
C5    C13   A    
C2    H3    S    
C10   C13   A    
C3    C4    A    
C24   C26   A    
C20   C22   A    
C33   H8    S    
C22   C25   A    
C32   C34   A    
