data_mof_unit_29017.cif
_audit_creation_date              2012-12-11T15:48:06-0500
_audit_creation_method            fapswitch 2.2
_symmetry_space_group_name_H-M    P1
_symmetry_Int_Tables_number       1
_space_group_crystal_system       triclinic
_cell_length_a                    6.925666
_cell_length_b                    17.615492
_cell_length_c                    19.481092
_cell_angle_alpha                 108.597803
_cell_angle_beta                  89.684285
_cell_angle_gamma                 90.616421
_cell_volume                      2252.42983649

loop_
_atom_site_label
_atom_site_type_symbol
_atom_type_description
_atom_site_fract_x
_atom_site_fract_y
_atom_site_fract_z
_atom_type_partial_charge
O1    O     O_R   0.494330 0.415710 0.413720 -0.539998
O2    O     O_R   0.819360 0.430070 0.560210 -0.544417
O3    O     O_R   0.994320 0.584290 0.586280 -0.541385
C1    C     C_R   0.650285 0.415675 0.582123 0.707446
O4    O     O_R   0.823740 0.406290 0.412670 -0.544630
O5    O     O_R   0.998730 0.560340 0.437690 -0.538295
C2    C     C_R   0.654578 0.382980 0.384925 0.703192
O6    O     O_R   0.489920 0.439660 0.562310 -0.541131
O7    O     O_3   0.662330 0.550570 0.508380 -0.367617
V1    V     V_3+5 0.935370 0.490620 0.498440 1.404559
O8    O     O_R   0.328720 0.569930 0.439790 -0.539596
C3    C     C_R   0.160596 0.585023 0.418063 0.717423
O9    O     O_R   0.324340 0.593710 0.587330 -0.544934
C4    C     C_R   0.155489 0.616433 0.615513 0.697048
V2    V     V_3+5 0.435940 0.509380 0.501560 1.410841
O10   O     O_3   0.159110 0.449430 0.491620 -0.371954
C5    C     C_R   0.305896 0.731898 0.712961 -0.168876
H1    H     H_    0.442263 0.721672 0.684131 0.133493
C6    C     C_R   0.293091 0.794940 0.778182 -0.221181
H2    H     H_    0.420433 0.831436 0.797432 0.160246
C7    C     C_R   0.118878 0.811575 0.817575 -0.064505
C8    C     C_R   0.956976 0.760769 0.790955 0.212190
C9    C     C_R   0.971019 0.698333 0.724626 -0.186550
H3    H     H_    0.846258 0.660203 0.704636 0.116496
C10   C     C_R   0.144367 0.683459 0.684941 -0.074769
C11   C     C_R   0.996873 0.625189 0.320381 -0.166324
C12   C     C_R   0.152511 0.634098 0.368474 -0.136024
C13   C     C_R   0.300504 0.689389 0.368571 -0.170091
C14   C     C_R   0.293645 0.736371 0.321991 0.098145
C15   C     C_R   0.136868 0.726352 0.273370 -0.070195
C16   C     C_R   0.988126 0.670142 0.272176 0.103949
C17   C     C_R   0.440454 0.792986 0.322701 0.190418
C18   C     C_R   0.432547 0.837398 0.274342 -0.247402
C19   C     C_R   0.278287 0.827705 0.225946 0.077047
C20   C     C_R   0.128863 0.772608 0.225824 0.043681
C21   C     C_R   0.971412 0.763843 0.178133 0.076333
C22   C     C_R   0.825646 0.707639 0.176957 -0.248672
C23   C     C_R   0.833837 0.660207 0.222775 0.189949
C24   C     C_R   0.270518 0.872834 0.178078 -0.202697
C25   C     C_R   0.112578 0.865387 0.131083 -0.086901
C26   C     C_R   0.962861 0.810966 0.131902 -0.208328
H4    H     H_    0.883672 0.582160 0.320089 0.163395
H5    H     H_    0.420137 0.696168 0.405705 0.169397
H6    H     H_    0.547251 0.880043 0.275123 0.132208
H7    H     H_    0.386018 0.914993 0.178390 0.121774
H8    H     H_    0.841069 0.804298 0.095649 0.125148
H9    H     H_    0.705060 0.699984 0.140027 0.134137
C27   C     C_R   0.773834 0.191093 0.873598 0.123949
C28   C     C_R   0.623151 0.133604 0.867322 -0.210641
C29   C     C_R   0.478901 0.124072 0.813400 0.230472
C30   C     C_R   0.480776 0.173262 0.768863 0.066166
C31   C     C_R   0.633219 0.228789 0.774073 -0.120648
C32   C     C_R   0.782745 0.237502 0.825727 0.091621
C33   C     C_R   0.330495 0.167864 0.718778 -0.141601
C34   C     C_R   0.330542 0.216129 0.674422 -0.217243
C35   C     C_R   0.482696 0.269744 0.677541 0.114349
C36   C     C_R   0.635338 0.275841 0.727010 0.078737
C37   C     C_R   0.790023 0.328937 0.729073 0.070411
C38   C     C_R   0.938352 0.336886 0.779055 -0.274191
C39   C     C_R   0.935788 0.293119 0.827812 0.237017
C40   C     C_R   0.485321 0.316896 0.631469 -0.226974
C41   C     C_R   0.642238 0.368163 0.632282 -0.085288
C42   C     C_R   0.794244 0.373715 0.681124 -0.205874
H10   H     H_    0.209720 0.127012 0.714188 0.166585
H11   H     H_    0.211842 0.210939 0.637118 0.132752
H12   H     H_    0.367920 0.312150 0.593671 0.126689
H13   H     H_    0.914827 0.414006 0.682571 0.122762
H14   H     H_    0.057346 0.378035 0.780926 0.133871
C43   C     C_R   0.801947 0.297758 0.268403 -0.205649
H15   H     H_    0.932687 0.333657 0.282178 0.125783
C44   C     C_R   0.791183 0.236249 0.201355 0.286135
C45   C     C_R   0.623119 0.187356 0.182987 -0.080687
C46   C     C_R   0.466993 0.204101 0.231833 -0.219897
H16   H     H_    0.338896 0.166567 0.220418 0.120640
C47   C     C_R   0.475783 0.267925 0.296843 -0.155262
H17   H     H_    0.352088 0.279265 0.332839 0.127183
C48   C     C_R   0.644057 0.315050 0.316127 -0.082103
O11   O     O_R   0.774940 0.060470 0.937800 -0.544086
O12   O     O_R   0.440880 0.093730 0.087350 -0.547349
O13   O     O_R   0.266130 0.939630 0.062280 -0.541288
C49   C     C_R   0.610512 0.117935 0.114730 0.711790
O14   O     O_R   0.445480 0.069960 0.939820 -0.542752
O15   O     O_R   0.270770 0.915690 0.913690 -0.542184
C50   C     C_R   0.614472 0.084462 0.917459 0.733815
O16   O     O_R   0.770300 0.084410 0.086380 -0.520447
O17   O     O_3   0.602600 0.949510 0.991670 -0.364652
V3    V     V_3+5 0.329470 0.009370 0.001550 1.409641
O18   O     O_R   0.940760 0.906160 0.912560 -0.521233
C51   C     C_R   0.109500 0.881814 0.885371 0.703878
O19   O     O_R   0.936150 0.929930 0.060100 -0.544627
C52   C     C_R   0.104303 0.914755 0.081755 0.698823
V4    V     V_3+5 0.828930 0.990450 0.998310 1.435222
O20   O     O_3   0.105670 0.050490 0.008320 -0.366959
N1    N     N_3   0.685566 0.601491 0.218469 -0.682968
H18   H     H_    0.552429 0.630350 0.226785 0.242441
H19   H     H_    0.685844 0.561024 0.165842 0.229137
N2    N     N_3   0.913878 0.204998 0.930397 -0.612182
H20   H     H_    0.842491 0.214066 0.979672 0.228602
H21   H     H_    0.004657 0.155617 0.919577 0.251902
N3    N     N_2   0.335001 0.062638 0.800391 -0.532284
H22   H     H_    0.244197 0.064064 0.842717 0.271594
C53   C     C_3   0.398060 0.983900 0.757267 -0.541708
H23   H     H_    0.506811 0.961102 0.787309 0.187169
H24   H     H_    0.462001 0.986003 0.705457 0.205863
H25   H     H_    0.272087 0.942351 0.744441 0.197052
N4    N     N_3   0.090643 0.306112 0.878925 -0.621272
H26   H     H_    0.090319 0.366428 0.910765 0.224802
H27   H     H_    0.221110 0.295137 0.850439 0.232179
N5    N     N_2   0.949348 0.224251 0.152369 -0.507550
H28   H     H_    0.072618 0.207331 0.172646 0.252542
C54   C     C_3   0.985745 0.289304 0.123595 -0.537872
H29   H     H_    0.095503 0.270566 0.079816 0.214198
H30   H     H_    0.042011 0.342848 0.166569 0.185254
H31   H     H_    0.851081 0.305260 0.100854 0.198373
N6    N     N_3   0.780281 0.770984 0.831847 -0.658381
H32   H     H_    0.808047 0.755887 0.878564 0.217561
H33   H     H_    0.674508 0.730595 0.803334 0.214286
N7    N     N_3   0.597190 0.806319 0.373032 -0.679043
H34   H     H_    0.726521 0.797832 0.343830 0.241557
H35   H     H_    0.593668 0.866238 0.405815 0.230049

loop_
_geom_bond_atom_site_label_1
_geom_bond_atom_site_label_2
_ccdc_geom_bond_type
O15   V3    S    
C34   C35   A    
C53   H23   S    
C46   H16   S    
V3    O20   S    
C43   C48   A    
C20   C21   A    
C1    O6    A    
O12   V3    S    
N2    H20   S    
C36   C37   A    
C7    C51   S    
C27   N2    S    
C13   C14   A    
C11   C12   A    
C14   C15   A    
N4    H27   S    
C15   C20   A    
C28   C50   S    
C21   C22   A    
C6    C7    A    
O13   V3    S    
N5    C54   S    
O5    C3    A    
C15   C16   A    
N4    H26   S    
O14   V3    S    
C1    C41   S    
C35   C36   A    
C53   H25   S    
C19   C20   A    
C43   C44   A    
N7    H34   S    
V4    O20   S    
N1    H19   S    
C29   C30   A    
C34   H11   S    
O8    V2    S    
C40   H12   S    
C32   C39   A    
O18   V4    S    
N6    H33   S    
C26   H8    S    
O1    V2    S    
C22   H9    S    
O7    V1    S    
C45   C49   S    
C24   H7    S    
C38   C39   A    
C4    C10   S    
O9    C4    A    
C46   C47   A    
C21   C26   A    
C43   H15   S    
O4    V1    S    
N2    H21   S    
O16   V4    S    
C18   C19   A    
C8    C9    A    
C27   C32   A    
O15   C51   A    
C42   H13   S    
V2    O10   S    
C3    C12   S    
C19   C24   A    
C24   C25   A    
O12   C49   A    
O17   V3    S    
O11   V4    S    
C37   C38   A    
C30   C31   A    
O2    C1    A    
C47   H17   S    
C22   C23   A    
C38   H14   S    
O19   V4    S    
C9    H3    S    
C23   N1    S    
C41   C42   A    
N3    C53   S    
C5    H1    S    
N1    H18   S    
C54   H30   S    
C53   H24   S    
C47   C48   A    
O3    C4    A    
C8    N6    S    
O6    V2    S    
O14   C50   A    
O9    V2    S    
O2    V1    S    
C39   N4    S    
C31   C32   A    
C11   H4    S    
O4    C2    A    
C37   C42   A    
C33   C34   A    
C25   C26   A    
C54   H29   S    
O1    C2    A    
C18   H6    S    
C17   N7    S    
C45   C46   A    
O5    V1    S    
O8    C3    A    
C14   C17   A    
C13   H5    S    
C29   N3    S    
C16   C23   A    
C2    C48   S    
C30   C33   A    
C5    C10   A    
C17   C18   A    
C6    H2    S    
O7    V2    S    
C44   C45   A    
O3    V1    S    
V1    O10   S    
N5    H28   S    
O19   C52   A    
C33   H10   S    
O13   C52   A    
C27   C28   A    
C44   N5    S    
N3    H22   S    
C5    C6    A    
C54   H31   S    
C9    C10   A    
C25   C52   S    
C40   C41   A    
N7    H35   S    
C31   C36   A    
O11   C50   A    
C11   C16   A    
O18   C51   A    
C28   C29   A    
C12   C13   A    
C35   C40   A    
O17   V4    S    
C7    C8    A    
C49   O16   A    
N6    H32   S    
