data_mof_unit_60103.cif
_audit_creation_date              2012-12-10T19:26:56-0500
_audit_creation_method            fapswitch 2.2
_symmetry_space_group_name_H-M    P1
_symmetry_Int_Tables_number       1
_space_group_crystal_system       triclinic
_cell_length_a                    30.524388
_cell_length_b                    30.526486
_cell_length_c                    27.719745
_cell_angle_alpha                 90.002415
_cell_angle_beta                  89.997388
_cell_angle_gamma                 90.006359
_cell_volume                      25829.3220191

loop_
_atom_site_label
_atom_site_type_symbol
_atom_type_description
_atom_site_fract_x
_atom_site_fract_y
_atom_site_fract_z
_atom_type_partial_charge
C1    C     C_R   0.118380 0.381707 0.250046 -0.245199
C2    C     C_R   0.881620 0.618293 0.749954 -0.245199
C3    C     C_R   0.381679 0.881680 0.250004 -0.239270
C4    C     C_R   0.618321 0.118320 0.749996 -0.239272
C5    C     C_R   0.881662 0.618337 0.250000 -0.245196
C6    C     C_R   0.118338 0.381662 0.750000 -0.245196
C7    C     C_R   0.618321 0.118318 0.250002 -0.239556
C8    C     C_R   0.381679 0.881682 0.749998 -0.239556
C9    C     C_R   0.118322 0.618317 0.750001 -0.239391
C10   C     C_R   0.881678 0.381683 0.249999 -0.239391
C11   C     C_R   0.381662 0.118338 0.749999 -0.245182
C12   C     C_R   0.618338 0.881662 0.250001 -0.245182
C13   C     C_R   0.881676 0.381683 0.749999 -0.239465
C14   C     C_R   0.118324 0.618317 0.250001 -0.239465
C15   C     C_R   0.618247 0.881563 0.749810 -0.247364
C16   C     C_R   0.381753 0.118437 0.250190 -0.247364
C17   C     C_R   0.282566 0.217853 0.250791 0.128438
C18   C     C_R   0.717434 0.782147 0.749209 0.128438
C19   C     C_R   0.217656 0.717643 0.250008 0.116681
C20   C     C_R   0.782344 0.282357 0.749992 0.116681
C21   C     C_R   0.717656 0.782344 0.250001 0.117598
C22   C     C_R   0.282344 0.217656 0.749999 0.117599
C23   C     C_R   0.782347 0.282354 0.250000 0.116688
C24   C     C_R   0.217653 0.717646 0.750000 0.116688
C25   C     C_R   0.282351 0.782349 0.749998 0.116678
C26   C     C_R   0.717649 0.217651 0.250002 0.116677
C27   C     C_R   0.217656 0.282344 0.750000 0.117615
C28   C     C_R   0.782344 0.717656 0.250000 0.117615
C29   C     C_R   0.717646 0.217655 0.749989 0.116676
C30   C     C_R   0.282353 0.782345 0.250011 0.116676
C31   C     C_R   0.782184 0.717505 0.749601 0.118518
C32   C     C_R   0.217816 0.282495 0.250399 0.118518
C33   C     C_R   0.243409 0.275495 0.209142 -0.178534
C34   C     C_R   0.756591 0.724505 0.790858 -0.178534
C35   C     C_R   0.239619 0.792671 0.264571 -0.179234
C36   C     C_R   0.760380 0.207329 0.735426 -0.179234
C37   C     C_R   0.757142 0.724848 0.208494 -0.180028
C38   C     C_R   0.242858 0.275152 0.791505 -0.180028
C39   C     C_R   0.760376 0.207332 0.264589 -0.179283
C40   C     C_R   0.239624 0.792668 0.735410 -0.179283
C41   C     C_R   0.207327 0.760369 0.735411 -0.179294
C42   C     C_R   0.792673 0.239631 0.264588 -0.179293
C43   C     C_R   0.275150 0.242860 0.791505 -0.180032
C44   C     C_R   0.724849 0.757140 0.208495 -0.180032
C45   C     C_R   0.792677 0.239628 0.735427 -0.179290
C46   C     C_R   0.207322 0.760373 0.264570 -0.179290
C47   C     C_R   0.724252 0.756753 0.790650 -0.184467
C48   C     C_R   0.275748 0.243247 0.209350 -0.184467
C49   C     C_R   0.742995 0.775107 0.707943 -0.181951
C50   C     C_R   0.257005 0.224893 0.292057 -0.181952
C51   C     C_R   0.739610 0.292683 0.764555 -0.179332
C52   C     C_R   0.260390 0.707317 0.235448 -0.179332
C53   C     C_R   0.257143 0.224848 0.708494 -0.179952
C54   C     C_R   0.742857 0.775152 0.291506 -0.179952
C55   C     C_R   0.260380 0.707327 0.764588 -0.179331
C56   C     C_R   0.739619 0.292673 0.235413 -0.179331
C57   C     C_R   0.707323 0.260374 0.235414 -0.179346
C58   C     C_R   0.292677 0.739626 0.764586 -0.179347
C59   C     C_R   0.775150 0.742859 0.291506 -0.179984
C60   C     C_R   0.224850 0.257141 0.708494 -0.179984
C61   C     C_R   0.292687 0.739615 0.235450 -0.179355
C62   C     C_R   0.707314 0.260384 0.764553 -0.179355
C63   C     C_R   0.224676 0.257147 0.291862 -0.177455
C64   C     C_R   0.775324 0.742853 0.708138 -0.177454
C65   C     C_R   0.500000 0.999999 0.120830 0.829237
C66   C     C_R   0.500000 0.000001 0.879170 0.829237
C67   C     C_R   0.000001 0.500000 0.120829 0.829708
C68   C     C_R   0.999999 0.500000 0.879171 0.829708
C69   C     C_R   1.000000 0.499999 0.620830 0.829696
C70   C     C_R   0.000000 0.500001 0.379170 0.829696
C71   C     C_R   0.500001 1.000000 0.620829 0.829910
C72   C     C_R   0.499999 0.000000 0.379171 0.829910
C73   C     C_R   0.415841 0.915842 0.250001 0.940821
C74   C     C_R   0.584159 0.084158 0.749999 0.940822
C75   C     C_R   0.915835 0.584165 0.250000 0.907064
C76   C     C_R   0.084165 0.415835 0.750000 0.907064
C77   C     C_R   0.584158 0.084158 0.250001 0.941539
C78   C     C_R   0.415842 0.915842 0.749999 0.941540
C79   C     C_R   0.084167 0.415839 0.250000 0.907302
C80   C     C_R   0.915833 0.584161 0.750000 0.907302
C81   C     C_R   0.415835 0.084165 0.750000 0.907089
C82   C     C_R   0.584165 0.915835 0.250000 0.907088
C83   C     C_R   0.915841 0.415842 0.750000 0.941345
C84   C     C_R   0.084159 0.584158 0.250000 0.941343
C85   C     C_R   0.584182 0.915850 0.750017 0.904241
C86   C     C_R   0.415818 0.084150 0.249983 0.904242
C87   C     C_R   0.084158 0.584157 0.750000 0.941256
C88   C     C_R   0.915841 0.415843 0.249999 0.941256
C89   C     C_1   0.499998 0.000000 0.430987 -0.119273
C90   C     C_1   0.500002 1.000000 0.569013 -0.119273
C91   C     C_1   0.000000 0.500002 0.430986 -0.119502
C92   C     C_1   1.000000 0.499998 0.569014 -0.119501
C93   C     C_1   0.999998 0.500000 0.930987 -0.119519
C94   C     C_1   0.000002 0.500000 0.069013 -0.119519
C95   C     C_1   0.500000 0.000002 0.930986 -0.119411
C96   C     C_1   0.500000 0.999998 0.069014 -0.119412
C97   C     C_1   0.499999 1.000000 0.474508 0.029997
C98   C     C_1   0.500001 1.000000 0.525492 0.029997
C99   C     C_1   0.000000 0.500001 0.474508 0.029708
C100  C     C_1   1.000000 0.499999 0.525492 0.029708
C101  C     C_1   0.999999 0.500000 0.974508 0.029695
C102  C     C_1   0.000001 0.500000 0.025492 0.029695
C103  C     C_1   0.500000 0.000001 0.974508 0.029659
C104  C     C_1   0.500000 0.999999 0.025492 0.029659
C105  C     C_R   0.106482 0.337219 0.244178 -0.051606
C106  C     C_R   0.893518 0.662780 0.755822 -0.051606
C107  C     C_R   0.369335 0.861559 0.293913 -0.054305
C108  C     C_R   0.630664 0.138442 0.706087 -0.054306
C109  C     C_R   0.893633 0.662818 0.244237 -0.051723
C110  C     C_R   0.106367 0.337182 0.755763 -0.051724
C111  C     C_R   0.630644 0.138462 0.293906 -0.054219
C112  C     C_R   0.369356 0.861538 0.706094 -0.054219
C113  C     C_R   0.138471 0.630636 0.706098 -0.054093
C114  C     C_R   0.861529 0.369364 0.293902 -0.054094
C115  C     C_R   0.337177 0.106372 0.755761 -0.051706
C116  C     C_R   0.662823 0.893629 0.244239 -0.051705
C117  C     C_R   0.861539 0.369356 0.706093 -0.054156
C118  C     C_R   0.138460 0.630645 0.293907 -0.054156
C119  C     C_R   0.662771 0.893333 0.755837 -0.040855
C120  C     C_R   0.337229 0.106667 0.244163 -0.040855
C121  C     C_R   0.606139 0.837171 0.743412 -0.051497
C122  C     C_R   0.393861 0.162828 0.256588 -0.051497
C123  C     C_R   0.869344 0.361547 0.793903 -0.054115
C124  C     C_R   0.130657 0.638453 0.206097 -0.054116
C125  C     C_R   0.393633 0.162818 0.744237 -0.051710
C126  C     C_R   0.606367 0.837181 0.255763 -0.051710
C127  C     C_R   0.130642 0.638464 0.793904 -0.054139
C128  C     C_R   0.869358 0.361536 0.206096 -0.054139
C129  C     C_R   0.638467 0.130641 0.206098 -0.054091
C130  C     C_R   0.361533 0.869359 0.793902 -0.054091
C131  C     C_R   0.837177 0.606371 0.255762 -0.051729
C132  C     C_R   0.162823 0.393629 0.744238 -0.051729
C133  C     C_R   0.361556 0.869331 0.206097 -0.053913
C134  C     C_R   0.638445 0.130668 0.793903 -0.053913
C135  C     C_R   0.162833 0.393723 0.255976 -0.051605
C136  C     C_R   0.837166 0.606277 0.744024 -0.051606
C137  C     C_R   0.139228 0.304504 0.243762 0.101448
C138  C     C_R   0.860772 0.695496 0.756238 0.101448
C139  C     C_R   0.337003 0.828384 0.293935 0.094946
C140  C     C_R   0.662996 0.171617 0.706065 0.094947
C141  C     C_R   0.860933 0.695577 0.243769 0.101555
C142  C     C_R   0.139067 0.304423 0.756231 0.101554
C143  C     C_R   0.662976 0.171637 0.293925 0.095015
C144  C     C_R   0.337024 0.828362 0.706075 0.095016
C145  C     C_R   0.171646 0.662968 0.706079 0.095015
C146  C     C_R   0.828354 0.337032 0.293921 0.095015
C147  C     C_R   0.304419 0.139071 0.756230 0.101567
C148  C     C_R   0.695581 0.860928 0.243770 0.101566
C149  C     C_R   0.828364 0.337023 0.706072 0.095005
C150  C     C_R   0.171635 0.662978 0.293928 0.095005
C151  C     C_R   0.695346 0.860425 0.756379 0.104293
C152  C     C_R   0.304654 0.139575 0.243621 0.104293
C153  C     C_R   0.638765 0.804352 0.742342 0.103725
C154  C     C_R   0.361235 0.195648 0.257658 0.103725
C155  C     C_R   0.837008 0.328375 0.793920 0.095017
C156  C     C_R   0.162993 0.671624 0.206079 0.095017
C157  C     C_R   0.360933 0.195577 0.743769 0.101596
C158  C     C_R   0.639067 0.804423 0.256231 0.101597
C159  C     C_R   0.162976 0.671637 0.793923 0.095019
C160  C     C_R   0.837023 0.328363 0.206077 0.095019
C161  C     C_R   0.671640 0.162975 0.206080 0.095041
C162  C     C_R   0.328360 0.837025 0.793920 0.095041
C163  C     C_R   0.804419 0.639071 0.256231 0.101585
C164  C     C_R   0.195581 0.360929 0.743769 0.101585
C165  C     C_R   0.328383 0.836996 0.206080 0.095029
C166  C     C_R   0.671617 0.163003 0.793920 0.095029
C167  C     C_R   0.195629 0.361061 0.256553 0.101742
C168  C     C_R   0.804371 0.638939 0.743447 0.101742
C169  C     C_R   0.183672 0.316577 0.250211 0.059204
C170  C     C_R   0.816328 0.683423 0.749789 0.059204
C171  C     C_R   0.316469 0.816464 0.250009 0.061838
C172  C     C_R   0.683531 0.183536 0.749991 0.061837
C173  C     C_R   0.816453 0.683546 0.250000 0.060226
C174  C     C_R   0.183547 0.316454 0.750000 0.060227
C175  C     C_R   0.683533 0.183533 0.250002 0.061830
C176  C     C_R   0.316467 0.816467 0.749997 0.061831
C177  C     C_R   0.183537 0.683528 0.750001 0.061820
C178  C     C_R   0.816463 0.316472 0.249999 0.061820
C179  C     C_R   0.316454 0.183547 0.749999 0.060239
C180  C     C_R   0.683546 0.816453 0.250001 0.060238
C181  C     C_R   0.816461 0.316474 0.749995 0.061824
C182  C     C_R   0.183539 0.683526 0.250005 0.061824
C183  C     C_R   0.683203 0.816201 0.748991 0.049717
C184  C     C_R   0.316796 0.183799 0.251009 0.049717
H1    H     H_    0.238266 0.295009 0.177004 0.158743
H2    H     H_    0.761734 0.704991 0.822996 0.158743
H3    H     H_    0.231455 0.825643 0.275863 0.159161
H4    H     H_    0.768544 0.174358 0.724132 0.159161
H5    H     H_    0.762564 0.705458 0.176319 0.159117
H6    H     H_    0.237436 0.294542 0.823680 0.159117
H7    H     H_    0.768534 0.174366 0.275903 0.159141
H8    H     H_    0.231466 0.825633 0.724096 0.159141
H9    H     H_    0.174358 0.768522 0.724097 0.159133
H10   H     H_    0.825642 0.231478 0.275901 0.159133
H11   H     H_    0.294539 0.237439 0.823680 0.159119
H12   H     H_    0.705461 0.762561 0.176320 0.159119
H13   H     H_    0.825651 0.231470 0.724133 0.159135
H14   H     H_    0.174347 0.768531 0.275861 0.159134
H15   H     H_    0.704553 0.762015 0.822629 0.157495
H16   H     H_    0.295447 0.237985 0.177371 0.157495
H17   H     H_    0.737806 0.794569 0.675777 0.155570
H18   H     H_    0.262194 0.205430 0.324223 0.155570
H19   H     H_    0.731447 0.325653 0.775850 0.159097
H20   H     H_    0.268554 0.674345 0.224155 0.159097
H21   H     H_    0.262564 0.205458 0.676319 0.159209
H22   H     H_    0.737436 0.794542 0.323681 0.159209
H23   H     H_    0.268538 0.674362 0.775902 0.159099
H24   H     H_    0.731461 0.325639 0.224100 0.159099
H25   H     H_    0.674353 0.268527 0.224101 0.159105
H26   H     H_    0.325646 0.731473 0.775900 0.159106
H27   H     H_    0.794538 0.737439 0.323680 0.159169
H28   H     H_    0.205461 0.262561 0.676319 0.159169
H29   H     H_    0.325662 0.731457 0.224158 0.159095
H30   H     H_    0.674339 0.268542 0.775847 0.159096
H31   H     H_    0.205010 0.262435 0.323861 0.158441
H32   H     H_    0.794990 0.737565 0.676139 0.158441
O1    O     O_3   0.500000 0.000000 0.250000 -0.516254
O2    O     O_3   0.500000 0.000000 0.750000 -0.516254
O3    O     O_3   0.000000 0.500000 0.250000 -0.516131
O4    O     O_3   0.000000 0.500000 0.750000 -0.516131
O5    O     O_R   0.500000 0.036340 0.143790 -0.625709
O6    O     O_R   0.500000 0.963660 0.856210 -0.625709
O7    O     O_R   0.036340 0.500000 0.143790 -0.625450
O8    O     O_R   0.963660 0.500000 0.856210 -0.625450
O9    O     O_R   0.500000 0.963660 0.143790 -0.625451
O10   O     O_R   0.500000 0.036340 0.856210 -0.625451
O11   O     O_R   0.963660 0.500000 0.143790 -0.625446
O12   O     O_R   0.036340 0.500000 0.856210 -0.625446
O13   O     O_R   0.000000 0.536340 0.643790 -0.625424
O14   O     O_R   0.000000 0.463660 0.356210 -0.625424
O15   O     O_R   0.536340 0.000000 0.643790 -0.624862
O16   O     O_R   0.463660 1.000000 0.356210 -0.624862
O17   O     O_R   0.000000 0.463660 0.643790 -0.625443
O18   O     O_R   0.000000 0.536340 0.356210 -0.625443
O19   O     O_R   0.463660 0.000000 0.643790 -0.625468
O20   O     O_R   0.536340 1.000000 0.356210 -0.625468
O21   O     O_R   0.448830 0.912520 0.222210 -0.621221
O22   O     O_R   0.551170 0.087480 0.777790 -0.621221
O23   O     O_R   0.912520 0.551170 0.222210 -0.624347
O24   O     O_R   0.087480 0.448830 0.777790 -0.624347
O25   O     O_R   0.551170 0.087480 0.222210 -0.620959
O26   O     O_R   0.448830 0.912520 0.777790 -0.620959
O27   O     O_R   0.087480 0.448830 0.222210 -0.624358
O28   O     O_R   0.912520 0.551170 0.777790 -0.624358
O29   O     O_R   0.448830 0.087480 0.777790 -0.624307
O30   O     O_R   0.551170 0.912520 0.222210 -0.624307
O31   O     O_R   0.912520 0.448830 0.777790 -0.621139
O32   O     O_R   0.087480 0.551170 0.222210 -0.621138
O33   O     O_R   0.551170 0.912520 0.777790 -0.624739
O34   O     O_R   0.448830 0.087480 0.222210 -0.624739
O35   O     O_R   0.087480 0.551170 0.777790 -0.621107
O36   O     O_R   0.912520 0.448830 0.222210 -0.621107
O37   O     O_R   0.948830 0.412520 0.722210 -0.621087
O38   O     O_R   0.051170 0.587480 0.277790 -0.621087
O39   O     O_R   0.412520 0.051170 0.722210 -0.624323
O40   O     O_R   0.587480 0.948830 0.277790 -0.624324
O41   O     O_R   0.051170 0.587480 0.722210 -0.621132
O42   O     O_R   0.948830 0.412520 0.277790 -0.621132
O43   O     O_R   0.587480 0.948830 0.722210 -0.622924
O44   O     O_R   0.412520 0.051170 0.277790 -0.622924
O45   O     O_R   0.948830 0.587480 0.277790 -0.624343
O46   O     O_R   0.051170 0.412520 0.722210 -0.624342
O47   O     O_R   0.412520 0.948830 0.277790 -0.621215
O48   O     O_R   0.587480 0.051170 0.722210 -0.621215
O49   O     O_R   0.051170 0.412520 0.277790 -0.624292
O50   O     O_R   0.948830 0.587480 0.722210 -0.624292
O51   O     O_R   0.587480 0.051170 0.277790 -0.621037
O52   O     O_R   0.412520 0.948830 0.722210 -0.621037
Zn1   Zn    Zn3+2 0.448040 0.000000 0.289870 1.070665
Zn2   Zn    Zn3+2 0.551960 1.000000 0.710130 1.070664
Zn3   Zn    Zn3+2 0.000000 0.551960 0.289870 1.069727
Zn4   Zn    Zn3+2 0.000000 0.448040 0.710130 1.069727
Zn5   Zn    Zn3+2 0.551960 0.000000 0.289870 1.069993
Zn6   Zn    Zn3+2 0.448040 1.000000 0.710130 1.069994
Zn7   Zn    Zn3+2 0.000000 0.448040 0.289870 1.069718
Zn8   Zn    Zn3+2 0.000000 0.551960 0.710130 1.069718
Zn9   Zn    Zn3+2 0.948040 0.500000 0.789870 1.069714
Zn10  Zn    Zn3+2 0.051960 0.500000 0.210130 1.069714
Zn11  Zn    Zn3+2 0.500000 0.051960 0.789870 1.069253
Zn12  Zn    Zn3+2 0.500000 0.948040 0.210130 1.069254
Zn13  Zn    Zn3+2 0.051960 0.500000 0.789870 1.069673
Zn14  Zn    Zn3+2 0.948040 0.500000 0.210130 1.069673
Zn15  Zn    Zn3+2 0.500000 0.948040 0.789870 1.069052
Zn16  Zn    Zn3+2 0.500000 0.051960 0.210130 1.069052
C185  C     C_2   0.059787 0.325062 0.236141 0.946395
O53   O     O_2   0.038801 0.342803 0.204026 -0.616390
O54   O     O_R   0.039884 0.293557 0.265441 -0.788879
H33   H     H_    0.008112 0.288277 0.256495 0.354063
C186  C     C_2   0.940213 0.674938 0.763860 0.946394
O55   O     O_2   0.961199 0.657197 0.795974 -0.616389
O56   O     O_R   0.960116 0.706443 0.734559 -0.788880
H34   H     H_    0.991888 0.711723 0.743505 0.354064
C187  C     C_2   0.392065 0.873800 0.339536 0.938361
O57   O     O_2   0.370818 0.884159 0.375146 -0.602936
O58   O     O_R   0.437853 0.873858 0.341413 -0.790254
H35   H     H_    0.449496 0.883209 0.374084 0.348150
C188  C     C_2   0.607933 0.126201 0.660464 0.938358
O59   O     O_2   0.629180 0.115843 0.624854 -0.602936
O60   O     O_R   0.562145 0.126143 0.658588 -0.790254
H36   H     H_    0.550501 0.116792 0.625918 0.348151
C189  C     C_2   0.940361 0.674926 0.236345 0.946640
O61   O     O_2   0.961377 0.657247 0.204210 -0.616280
O62   O     O_R   0.960260 0.706311 0.265805 -0.788862
H37   H     H_    0.992057 0.711566 0.256948 0.354034
C190  C     C_2   0.059639 0.325074 0.763655 0.946640
O63   O     O_2   0.038623 0.342753 0.795790 -0.616278
O64   O     O_R   0.039740 0.293689 0.734195 -0.788862
H38   H     H_    0.007943 0.288434 0.743052 0.354035
C191  C     C_2   0.607893 0.126243 0.339525 0.937979
O65   O     O_2   0.629124 0.115909 0.375152 -0.603044
O66   O     O_R   0.562104 0.126178 0.341379 -0.789933
H39   H     H_    0.550446 0.116844 0.374049 0.348382
C192  C     C_2   0.392107 0.873757 0.660475 0.937979
O67   O     O_2   0.370876 0.884091 0.624848 -0.603044
O68   O     O_R   0.437896 0.873822 0.658621 -0.789934
H40   H     H_    0.449554 0.883156 0.625950 0.348382
C193  C     C_2   0.126258 0.607880 0.660481 0.938154
O69   O     O_2   0.115927 0.629104 0.624849 -0.603182
O70   O     O_R   0.126195 0.562093 0.658634 -0.790266
H41   H     H_    0.116865 0.550432 0.625964 0.348152
C194  C     C_2   0.873742 0.392120 0.339519 0.938156
O71   O     O_2   0.884073 0.370895 0.375151 -0.603182
O72   O     O_R   0.873805 0.437906 0.341366 -0.790266
H42   H     H_    0.883136 0.449568 0.374036 0.348152
C195  C     C_2   0.325064 0.059648 0.763653 0.946651
O73   O     O_2   0.342741 0.038635 0.795788 -0.616251
O74   O     O_R   0.293679 0.039750 0.734192 -0.788795
H43   H     H_    0.288421 0.007956 0.743049 0.354049
C196  C     C_2   0.674936 0.940352 0.236347 0.946651
O75   O     O_2   0.657259 0.961365 0.204212 -0.616251
O76   O     O_R   0.706321 0.960250 0.265808 -0.788795
H44   H     H_    0.711579 0.992044 0.256951 0.354049
C197  C     C_2   0.873764 0.392102 0.660475 0.938125
O77   O     O_2   0.884107 0.370870 0.624850 -0.603168
O78   O     O_R   0.873824 0.437888 0.658620 -0.790193
H45   H     H_    0.883162 0.449543 0.625951 0.348209
C198  C     C_2   0.126235 0.607899 0.339525 0.938126
O79   O     O_2   0.115890 0.629132 0.375150 -0.603167
O80   O     O_R   0.126175 0.562114 0.341381 -0.790194
H46   H     H_    0.116836 0.550459 0.374050 0.348209
C199  C     C_2   0.674981 0.940123 0.762085 0.936150
O81   O     O_2   0.658987 0.961551 0.794947 -0.614808
O82   O     O_R   0.704362 0.959660 0.729925 -0.780579
H47   H     H_    0.709899 0.991641 0.737692 0.352514
C200  C     C_2   0.325019 0.059877 0.237915 0.936150
O83   O     O_2   0.341013 0.038449 0.205053 -0.614809
O84   O     O_R   0.295638 0.040340 0.270075 -0.780579
H48   H     H_    0.290101 0.008359 0.262308 0.352514
C201  C     C_2   0.559391 0.825262 0.735322 0.946864
O85   O     O_2   0.538388 0.843451 0.703528 -0.615847
O86   O     O_R   0.539466 0.793445 0.764191 -0.789275
H49   H     H_    0.507660 0.788365 0.755252 0.354054
C202  C     C_2   0.440609 0.174738 0.264678 0.946864
O87   O     O_2   0.461612 0.156549 0.296472 -0.615847
O88   O     O_R   0.460534 0.206555 0.235809 -0.789276
H50   H     H_    0.492340 0.211635 0.244748 0.354054
C203  C     C_2   0.892090 0.373768 0.839523 0.938176
O89   O     O_2   0.870854 0.384110 0.875147 -0.603207
O90   O     O_R   0.937878 0.373826 0.841381 -0.790254
H51   H     H_    0.949532 0.383162 0.874052 0.348152
C204  C     C_2   0.107912 0.626231 0.160476 0.938178
O91   O     O_2   0.129148 0.615887 0.124853 -0.603206
O92   O     O_R   0.062123 0.626173 0.158617 -0.790255
H52   H     H_    0.050470 0.616836 0.125947 0.348152
C205  C     C_2   0.440361 0.174926 0.736346 0.946655
O93   O     O_2   0.461378 0.157247 0.704211 -0.616254
O94   O     O_R   0.460260 0.206311 0.765807 -0.788911
H53   H     H_    0.492057 0.211566 0.756950 0.354013
C206  C     C_2   0.559639 0.825074 0.263654 0.946655
O95   O     O_2   0.538622 0.842753 0.295788 -0.616255
O96   O     O_R   0.539740 0.793689 0.234193 -0.788911
H54   H     H_    0.507942 0.788434 0.243049 0.354013
C207  C     C_2   0.107884 0.626252 0.839521 0.938134
O97   O     O_2   0.129110 0.615920 0.875152 -0.603192
O98   O     O_R   0.062095 0.626190 0.841368 -0.790343
H55   H     H_    0.050433 0.616860 0.874038 0.348186
C208  C     C_2   0.892115 0.373749 0.160479 0.938135
O99   O     O_2   0.870889 0.384080 0.124847 -0.603192
O100  O     O_R   0.937905 0.373811 0.158631 -0.790343
H56   H     H_    0.949567 0.383140 0.125962 0.348185
C209  C     C_2   0.626252 0.107888 0.160480 0.938163
O101  O     O_2   0.615918 0.129115 0.124851 -0.603205
O102  O     O_R   0.626191 0.062102 0.158629 -0.790236
H57   H     H_    0.616860 0.050442 0.125960 0.348190
C210  C     C_2   0.373748 0.892112 0.839520 0.938164
O103  O     O_2   0.384082 0.870885 0.875149 -0.603204
O104  O     O_R   0.373809 0.937898 0.841370 -0.790236
H58   H     H_    0.383140 0.949558 0.874040 0.348189
C211  C     C_2   0.825065 0.559648 0.263654 0.946646
O105  O     O_2   0.842741 0.538635 0.295789 -0.616268
O106  O     O_R   0.793679 0.539749 0.234194 -0.788911
H59   H     H_    0.788421 0.507956 0.243051 0.354018
C212  C     C_2   0.174935 0.440352 0.736345 0.946646
O107  O     O_2   0.157259 0.461365 0.704210 -0.616268
O108  O     O_R   0.206321 0.460251 0.765806 -0.788911
H60   H     H_    0.211579 0.492044 0.756949 0.354018
C213  C     C_2   0.373793 0.892058 0.160471 0.938673
O109  O     O_2   0.384149 0.870811 0.124861 -0.603296
O110  O     O_R   0.373850 0.937844 0.158591 -0.790147
H61   H     H_    0.383199 0.949484 0.125919 0.347931
C214  C     C_2   0.626208 0.107940 0.839528 0.938672
O111  O     O_2   0.615853 0.129187 0.875139 -0.603296
O112  O     O_R   0.626151 0.062155 0.841407 -0.790148
H62   H     H_    0.616803 0.050514 0.874079 0.347932
C215  C     C_2   0.174868 0.440458 0.263942 0.946488
O113  O     O_2   0.157060 0.461441 0.296016 -0.616335
O114  O     O_R   0.206336 0.460397 0.234621 -0.788894
H63   H     H_    0.211531 0.492193 0.243516 0.354032
C216  C     C_2   0.825132 0.559542 0.736058 0.946488
O115  O     O_2   0.842940 0.538559 0.703984 -0.616333
O116  O     O_R   0.793664 0.539603 0.765378 -0.788895
H64   H     H_    0.788469 0.507806 0.756484 0.354032
C217  C     C_3   0.126342 0.257113 0.234614 -0.827226
H65   H     H_    0.154481 0.234984 0.228184 0.238310
H66   H     H_    0.108056 0.244205 0.266147 0.275535
H67   H     H_    0.105433 0.254964 0.201919 0.242246
C218  C     C_3   0.873657 0.742887 0.765386 -0.827227
H68   H     H_    0.891944 0.755795 0.733853 0.275535
H69   H     H_    0.845519 0.765016 0.771816 0.238310
H70   H     H_    0.894567 0.745036 0.798081 0.242246
C219  C     C_3   0.326007 0.804942 0.340797 -0.818093
H71   H     H_    0.304851 0.775783 0.336147 0.236632
H72   H     H_    0.356544 0.793123 0.358248 0.244057
H73   H     H_    0.308775 0.827753 0.365519 0.272089
C220  C     C_3   0.673991 0.195060 0.659203 -0.818093
H74   H     H_    0.643453 0.206879 0.641754 0.244057
H75   H     H_    0.695146 0.224219 0.663855 0.236632
H76   H     H_    0.691223 0.172250 0.634481 0.272089
C221  C     C_3   0.873915 0.742970 0.234798 -0.827361
H77   H     H_    0.845830 0.765177 0.228423 0.237209
H78   H     H_    0.892190 0.755757 0.266398 0.275643
H79   H     H_    0.894868 0.745166 0.202138 0.242319
C222  C     C_3   0.126085 0.257030 0.765202 -0.827363
H80   H     H_    0.107810 0.244243 0.733602 0.275643
H81   H     H_    0.154170 0.234823 0.771577 0.237210
H82   H     H_    0.105132 0.254834 0.797862 0.242319
C223  C     C_3   0.673948 0.195106 0.340779 -0.818142
H83   H     H_    0.695103 0.224264 0.336121 0.236631
H84   H     H_    0.643401 0.206933 0.358208 0.244009
H85   H     H_    0.691170 0.172310 0.365522 0.272111
C224  C     C_3   0.326053 0.804894 0.659221 -0.818143
H86   H     H_    0.356599 0.793067 0.641792 0.244009
H87   H     H_    0.304897 0.775736 0.663879 0.236631
H88   H     H_    0.308831 0.827690 0.634478 0.272110
C225  C     C_3   0.195119 0.673938 0.659226 -0.818117
H89   H     H_    0.224276 0.695096 0.663884 0.236628
H90   H     H_    0.206951 0.643394 0.641801 0.244056
H91   H     H_    0.172321 0.691154 0.634479 0.272072
C226  C     C_3   0.804881 0.326062 0.340774 -0.818118
H92   H     H_    0.793049 0.356606 0.358199 0.244057
H93   H     H_    0.775724 0.304904 0.336116 0.236628
H94   H     H_    0.827679 0.308845 0.365521 0.272072
C227  C     C_3   0.257020 0.126094 0.765200 -0.827322
H95   H     H_    0.234813 0.154179 0.771575 0.237203
H96   H     H_    0.244234 0.107819 0.733600 0.275662
H97   H     H_    0.254820 0.105145 0.797859 0.242322
C228  C     C_3   0.742980 0.873906 0.234801 -0.827323
H98   H     H_    0.755765 0.892181 0.266401 0.275662
H99   H     H_    0.765187 0.845821 0.228425 0.237203
H100  H     H_    0.745180 0.894855 0.202141 0.242323
C229  C     C_3   0.804906 0.326041 0.659215 -0.818124
H101  H     H_    0.775750 0.304880 0.663869 0.236632
H102  H     H_    0.793076 0.356580 0.641782 0.244043
H103  H     H_    0.827713 0.308822 0.634477 0.272080
C230  C     C_3   0.195091 0.673961 0.340785 -0.818124
H104  H     H_    0.206922 0.643422 0.358219 0.244043
H105  H     H_    0.224247 0.695122 0.336132 0.236632
H106  H     H_    0.172284 0.691181 0.365523 0.272080
C231  C     C_3   0.743052 0.871291 0.766604 -0.816241
H107  H     H_    0.755435 0.850346 0.796381 0.232654
H108  H     H_    0.763010 0.865244 0.733803 0.249405
H109  H     H_    0.748586 0.905504 0.778282 0.255252
C232  C     C_3   0.256948 0.128709 0.233395 -0.816242
H110  H     H_    0.236990 0.134756 0.266197 0.249405
H111  H     H_    0.244565 0.149654 0.203619 0.232654
H112  H     H_    0.251414 0.094496 0.221718 0.255252
C233  C     C_3   0.625800 0.757122 0.732473 -0.826872
H113  H     H_    0.653946 0.735068 0.725748 0.236944
H114  H     H_    0.607480 0.743846 0.763796 0.275419
H115  H     H_    0.604902 0.755426 0.699737 0.242363
C234  C     C_3   0.374200 0.242878 0.267527 -0.826872
H116  H     H_    0.392520 0.256153 0.236204 0.275419
H117  H     H_    0.346054 0.264932 0.274252 0.236944
H118  H     H_    0.395098 0.244574 0.300263 0.242363
C235  C     C_3   0.826022 0.304917 0.840775 -0.818113
H119  H     H_    0.804859 0.275764 0.836119 0.236637
H120  H     H_    0.856562 0.293085 0.858209 0.244075
H121  H     H_    0.808801 0.327721 0.865514 0.272049
C236  C     C_3   0.173980 0.695081 0.159224 -0.818112
H122  H     H_    0.143440 0.706913 0.141789 0.244074
H123  H     H_    0.195144 0.724234 0.163880 0.236637
H124  H     H_    0.191201 0.672276 0.134487 0.272049
C237  C     C_3   0.373916 0.242970 0.734799 -0.827410
H125  H     H_    0.345831 0.265178 0.728423 0.237211
H126  H     H_    0.392190 0.255757 0.766399 0.275603
H127  H     H_    0.394869 0.245167 0.702139 0.242344
C238  C     C_3   0.626084 0.757030 0.265201 -0.827411
H128  H     H_    0.607810 0.744243 0.233601 0.275603
H129  H     H_    0.654169 0.734822 0.271577 0.237211
H130  H     H_    0.605131 0.754833 0.297861 0.242344
C239  C     C_3   0.173947 0.695108 0.840775 -0.818132
H131  H     H_    0.195107 0.724263 0.836118 0.236634
H132  H     H_    0.143400 0.706940 0.858200 0.244068
H133  H     H_    0.191164 0.672311 0.865523 0.272050
C240  C     C_3   0.826053 0.304892 0.159224 -0.818131
H134  H     H_    0.856599 0.293061 0.141799 0.244067
H135  H     H_    0.804893 0.275738 0.163882 0.236633
H136  H     H_    0.808836 0.327689 0.134477 0.272050
C241  C     C_3   0.695110 0.173949 0.159226 -0.818100
H137  H     H_    0.724267 0.195108 0.163884 0.236628
H138  H     H_    0.706942 0.143406 0.141798 0.244087
H139  H     H_    0.672310 0.191167 0.134482 0.272049
C242  C     C_3   0.304890 0.826051 0.840773 -0.818101
H140  H     H_    0.293058 0.856594 0.858202 0.244087
H141  H     H_    0.275733 0.804893 0.836116 0.236628
H142  H     H_    0.327690 0.808833 0.865518 0.272049
C243  C     C_3   0.757020 0.626094 0.265201 -0.827431
H143  H     H_    0.734813 0.654178 0.271576 0.237213
H144  H     H_    0.744234 0.607818 0.233601 0.275611
H145  H     H_    0.754820 0.605145 0.297861 0.242331
C244  C     C_3   0.242979 0.373906 0.734799 -0.827430
H146  H     H_    0.255766 0.392182 0.766398 0.275611
H147  H     H_    0.265187 0.345822 0.728424 0.237212
H148  H     H_    0.245180 0.394855 0.702139 0.242330
C245  C     C_3   0.304939 0.825995 0.159221 -0.817948
H149  H     H_    0.275780 0.804838 0.163875 0.236613
H150  H     H_    0.293115 0.856527 0.141767 0.244239
H151  H     H_    0.327752 0.808764 0.134499 0.271979
C246  C     C_3   0.695063 0.174003 0.840778 -0.817948
H152  H     H_    0.706887 0.143470 0.858231 0.244240
H153  H     H_    0.724222 0.195159 0.836123 0.236613
H154  H     H_    0.672251 0.191234 0.865501 0.271978
C247  C     C_3   0.242972 0.374087 0.265785 -0.827676
H155  H     H_    0.265175 0.346025 0.272294 0.237148
H156  H     H_    0.255886 0.392372 0.234255 0.275591
H157  H     H_    0.245001 0.395041 0.298456 0.242382
C248  C     C_3   0.757028 0.625913 0.734215 -0.827675
H158  H     H_    0.744114 0.607628 0.765745 0.275591
H159  H     H_    0.734825 0.653975 0.727706 0.237148
H160  H     H_    0.754998 0.604959 0.701544 0.242382

loop_
_geom_bond_atom_site_label_1
_geom_bond_atom_site_label_2
_ccdc_geom_bond_type
C8    C78   S    
C203  O89   D    
C127  C207  S    
O14   Zn7   S    
C196  O76   S    
C220  H74   S    
O56   H34   S    
C17   C48   A    
C143  C175  A    
C66   O6    A    
C152  C232  S    
C198  O79   D    
C19   C46   A    
O7    Zn10  S    
C197  O77   D    
C232  H112  S    
C217  H65   S    
C157  C237  S    
C52   C61   A    
C213  O110  S    
C211  O106  S    
C28   C173  S    
C231  H109  S    
C12   C126  A    
C230  H106  S    
C56   C57   A    
C157  C179  A    
O44   Zn1   S    
C34   H2    S    
C16   C122  A    
C234  H117  S    
C41   H9    S    
C160  C240  S    
C65   C96   S    
C59   H27   S    
C226  H93   S    
C67   C94   S    
C139  C171  A    
C79   O27   A    
C69   C92   S    
C11   C115  A    
C133  C213  S    
C20   C45   A    
C196  O75   D    
C137  C217  S    
C15   C85   S    
C126  C158  A    
C217  H66   S    
C18   C47   A    
C24   C41   A    
C62   H30   S    
C118  C198  S    
C124  C204  S    
C202  O88   S    
C119  C199  S    
C138  C218  S    
C117  C197  S    
C50   H18   S    
C57   H25   S    
C44   H12   S    
O72   H42   S    
O18   Zn3   S    
C6    C132  A    
C106  C186  S    
C93   C101  T    
C241  H138  S    
C224  H88   S    
C231  H107  S    
C72   O20   A    
C36   H4    S    
C227  H97   S    
C243  H145  S    
C4    C108  A    
O2    Zn6   S    
O88   H50   S    
C40   H8    S    
C222  H82   S    
O3    Zn7   S    
C65   O9    A    
C9    C127  A    
C67   O7    A    
C60   H28   S    
C160  C178  A    
O43   Zn2   S    
C247  H156  S    
C211  O105  D    
C1    C79   S    
C228  H100  S    
O102  H57   S    
O11   Zn14  S    
C223  H85   S    
C112  C192  S    
C96   C104  T    
C76   O46   A    
O51   Zn5   S    
C110  C190  S    
O5    Zn16  S    
C22   C179  S    
O98   H55   S    
C68   O12   A    
C31   C170  S    
C235  H121  S    
C212  O107  D    
C3    C107  A    
C37   C44   A    
C207  O98   S    
O2    Zn15  S    
C38   C43   A    
C185  O54   S    
C205  O93   D    
C141  C221  S    
C17   C184  S    
C243  H143  S    
C18   C183  S    
O28   Zn9   S    
O9    Zn12  S    
C148  C228  S    
O3    Zn3   S    
C225  H89   S    
O4    Zn4   S    
C26   C57   A    
C147  C227  S    
O78   H45   S    
C239  H132  S    
C147  C179  A    
C125  C205  S    
C94   C102  T    
C233  H114  S    
C194  O71   D    
C30   C61   A    
C83   O31   A    
O90   H51   S    
O19   Zn6   S    
C71   O15   A    
O16   Zn1   S    
C117  C149  A    
C242  H141  S    
C216  O115  D    
C215  O113  D    
C18   C49   A    
C1    C105  A    
C66   C95   S    
C210  O104  S    
C158  C238  S    
O12   Zn13  S    
C165  C171  A    
C75   O45   A    
O13   Zn8   S    
C85   O33   A    
C201  O85   D    
O86   H49   S    
C156  C236  S    
C87   O41   A    
C214  O111  D    
C167  C169  A    
C221  H77   S    
C146  C226  S    
O1    Zn5   S    
C10   C88   S    
C235  H119  S    
C77   O25   A    
C16   C120  A    
C192  O68   S    
O37   Zn4   S    
C45   H13   S    
O110  H61   S    
O38   Zn3   S    
C146  C178  A    
C43   H11   S    
C5    C131  A    
C195  O74   S    
C134  C214  S    
C69   O17   A    
C158  C180  A    
C145  C225  S    
O1    Zn12  S    
C22   C43   A    
C190  O64   S    
C71   O19   A    
O32   Zn10  S    
C123  C203  S    
C111  C143  A    
C7    C77   S    
C130  C162  A    
C49   C64   A    
C245  H149  S    
C50   C63   A    
C188  O60   S    
C47   H15   S    
C68   O8    A    
C51   C62   A    
C61   H29   S    
C10   C128  A    
C27   C174  S    
C218  H69   S    
C53   C60   A    
C95   C103  T    
C186  O55   D    
C197  O78   S    
C54   C59   A    
C199  O82   S    
C49   H17   S    
C240  H135  S    
C14   C124  A    
C82   O30   A    
O39   Zn6   S    
C156  C182  A    
C54   H22   S    
C2    C106  A    
C105  C185  S    
C238  H129  S    
C74   O22   A    
C225  H91   S    
C187  O57   D    
C69   O13   A    
C21   C44   A    
C244  H147  S    
C128  C208  S    
C67   O11   A    
C144  C176  A    
C161  C241  S    
C234  H116  S    
C31   C34   A    
C129  C161  A    
C85   O43   A    
C236  H123  S    
C86   O44   A    
C143  C223  S    
C227  H96   S    
C219  H73   S    
C236  H122  S    
C168  C248  S    
C247  H157  S    
O52   Zn6   S    
C163  C173  A    
O116  H64   S    
C4    C134  A    
C229  H103  S    
C228  H98   S    
O48   Zn2   S    
C72   O16   A    
C162  C242  S    
C155  C181  A    
C6    C76   S    
C232  H111  S    
C55   H23   S    
C88   O36   A    
C21   C54   A    
C84   O32   A    
C9    C113  A    
C126  C206  S    
C245  H150  S    
C213  O109  D    
C9    C87   S    
C71   C90   S    
C28   C37   A    
C168  C170  A    
C230  H105  S    
C15   C119  A    
O10   Zn11  S    
C107  C139  A    
C3    C73   S    
O45   Zn3   S    
O46   Zn4   S    
C150  C230  S    
O47   Zn1   S    
O3    Zn14  S    
C148  C180  A    
C226  H92   S    
C245  H151  S    
O4    Zn9   S    
C135  C167  A    
C120  C200  S    
C109  C141  A    
C91   C99   T    
C132  C212  S    
C135  C215  S    
C155  C235  S    
C223  H83   S    
C73   O47   A    
C20   C181  S    
C206  O96   S    
C74   O48   A    
C189  O62   S    
C16   C86   S    
C32   C169  S    
C101  C102  S    
C113  C193  S    
C75   O23   A    
C244  H148  S    
C14   C84   S    
O82   H47   S    
C163  C243  S    
O17   Zn4   S    
C65   O5    A    
C202  O87   D    
O100  H56   S    
C150  C182  A    
C123  C155  A    
C166  C172  A    
C204  O92   S    
C92   C100  T    
O2    Zn2   S    
C121  C153  A    
C48   H16   S    
C11   C125  A    
C20   C51   A    
C27   C60   A    
C8    C112  A    
C25   C40   A    
C241  H137  S    
C13   C123  A    
C125  C157  A    
C26   C39   A    
C224  H87   S    
O4    Zn8   S    
C219  H72   S    
C27   C38   A    
O96   H54   S    
O15   Zn2   S    
C115  C147  A    
C246  H154  S    
O20   Zn5   S    
O35   Zn13  S    
C113  C145  A    
C118  C150  A    
C121  C201  S    
C19   C52   A    
O49   Zn7   S    
C70   C91   S    
O50   Zn8   S    
O2    Zn11  S    
C222  H81   S    
O3    Zn10  S    
O92   H52   S    
C134  C166  A    
C164  C174  A    
O4    Zn13  S    
C114  C194  S    
C200  O84   S    
C10   C114  A    
C88   O42   A    
C6    C110  A    
C231  H108  S    
O68   H40   S    
C203  O90   S    
C247  H155  S    
C149  C181  A    
C220  H75   S    
C82   O40   A    
C237  H127  S    
C19   C182  S    
C198  O80   S    
C193  O70   S    
C97   C98   S    
C39   C42   A    
C223  H84   S    
O23   Zn14  S    
C109  C189  S    
C51   H19   S    
O64   H38   S    
O106  H59   S    
O84   H48   S    
C116  C148  A    
O1    Zn16  S    
C229  H101  S    
C52   H20   S    
C5    C75   S    
C87   O35   A    
O76   H44   S    
C132  C164  A    
C140  C220  S    
C133  C165  A    
O80   H46   S    
C56   H24   S    
C131  C163  A    
C226  H94   S    
C66   O10   A    
O29   Zn11  S    
C78   O26   A    
C151  C183  A    
C217  H67   S    
C8    C130  A    
C80   O50   A    
O40   Zn5   S    
C142  C222  S    
C248  H159  S    
O25   Zn16  S    
O26   Zn15  S    
O58   H35   S    
C221  H79   S    
C243  H144  S    
C210  O103  D    
C139  C219  S    
C159  C239  S    
O41   Zn8   S    
C81   O39   A    
O42   Zn7   S    
O34   Zn16  S    
C189  O61   D    
C241  H139  S    
C13   C117  A    
O108  H60   S    
C107  C187  S    
C108  C188  S    
C13   C83   S    
C229  H102  S    
C76   O24   A    
C32   C33   A    
C242  H142  S    
C215  O114  S    
O74   H43   S    
C192  O67   D    
C5    C109  A    
O8    Zn9   S    
C7    C111  A    
C219  H71   S    
C195  O73   D    
C7    C129  A    
C154  C234  S    
O70   H41   S    
C111  C191  S    
C130  C210  S    
C35   H3    S    
C190  O63   D    
C55   C58   A    
C103  C104  S    
C209  O102  S    
C33   C48   A    
C33   H1    S    
C34   C47   A    
C63   H31   S    
C35   C46   A    
C86   O34   A    
C37   H5    S    
O66   H39   S    
C166  C246  S    
O31   Zn9   S    
C138  C170  A    
C188  O59   D    
O112  H62   S    
O60   H36   S    
C218  H68   S    
C23   C56   A    
C142  C174  A    
C191  O65   D    
C11   C81   S    
C24   C55   A    
C212  O108  S    
C29   C36   A    
C240  H134  S    
C185  O53   D    
C23   C42   A    
C30   C35   A    
C83   O37   A    
C242  H140  S    
C233  H115  S    
O36   Zn14  S    
C205  O94   S    
C161  C175  A    
C106  C138  A    
C162  C176  A    
C39   H7    S    
C42   H10   S    
C238  H128  S    
C70   O18   A    
C228  H99   S    
C110  C142  A    
C23   C178  S    
C186  O56   S    
C21   C180  S    
C153  C183  A    
O33   Zn15  S    
C194  O72   S    
C154  C184  A    
C53   H21   S    
O114  H63   S    
C220  H76   S    
C152  C184  A    
C244  H146  S    
C4    C74   S    
C187  O58   S    
C201  O86   S    
O62   H37   S    
C141  C173  A    
C136  C216  S    
C122  C154  A    
C227  H95   S    
C159  C177  A    
O27   Zn10  S    
C214  O112  S    
C129  C209  S    
C22   C53   A    
C58   H26   S    
C119  C151  A    
C38   H6    S    
C120  C152  A    
C46   H14   S    
C208  O100  S    
C221  H78   S    
C81   O29   A    
O21   Zn12  S    
C114  C146  A    
C233  H113  S    
O22   Zn11  S    
C151  C231  S    
C108  C140  A    
C80   O28   A    
C136  C168  A    
C131  C211  S    
C232  H110  S    
C105  C137  A    
C234  H118  S    
C2    C136  A    
C77   O51   A    
C89   C97   T    
C3    C133  A    
C78   O52   A    
O30   Zn12  S    
C70   O14   A    
C73   O21   A    
O94   H53   S    
C99   C100  S    
C248  H158  S    
C246  H152  S    
C230  H104  S    
C12   C82   S    
C36   C45   A    
C24   C177  S    
C208  O99   D    
C165  C245  S    
C40   C41   A    
O24   Zn13  S    
C124  C156  A    
O54   H33   S    
C84   O38   A    
C239  H133  S    
C216  O116  S    
C25   C58   A    
C145  C177  A    
C127  C159  A    
C218  H70   S    
C128  C160  A    
C14   C118  A    
C206  O95   D    
C164  C244  S    
C28   C59   A    
C29   C62   A    
C79   O49   A    
C240  H136  S    
C15   C121  A    
C122  C202  S    
C137  C169  A    
C31   C64   A    
C64   H32   S    
C32   C63   A    
O6    Zn15  S    
C17   C50   A    
C225  H90   S    
C204  O91   D    
C167  C247  S    
C68   C93   S    
C238  H130  S    
C237  H125  S    
C112  C144  A    
C237  H126  S    
C116  C196  S    
C235  H120  S    
C1    C135  A    
C207  O97   D    
C72   C89   S    
C115  C195  S    
C25   C176  S    
C224  H86   S    
C209  O101  D    
C191  O66   S    
C26   C175  S    
O1    Zn1   S    
C246  H153  S    
C144  C224  S    
C29   C172  S    
C193  O69   D    
C236  H124  S    
C30   C171  S    
C2    C80   S    
C248  H160  S    
C140  C172  A    
C222  H80   S    
C149  C229  S    
C199  O81   D    
C153  C233  S    
C12   C116  A    
C200  O83   D    
C239  H131  S    
C90   C98   T    
O104  H58   S    
