data_mof_unit_58283.cif
_audit_creation_date              2013-03-05T16:01:07-0500
_audit_creation_method            fapswitch 2.2
_symmetry_space_group_name_H-M    P1
_symmetry_Int_Tables_number       1
_space_group_crystal_system       triclinic
_cell_length_a                    8.265633
_cell_length_b                    12.78597
_cell_length_c                    18.708739
_cell_angle_alpha                 99.446476
_cell_angle_beta                  91.33516
_cell_angle_gamma                 98.840139
_cell_volume                      1924.84609269

loop_
_atom_site_label
_atom_site_type_symbol
_atom_site_description
_atom_site_fract_x
_atom_site_fract_y
_atom_site_fract_z
_atom_type_partial_charge
P1    P     P_3+3 0.041040 0.394770 0.336330 0.467029
O1    O     O_2   0.873090 0.425890 0.325140 -0.368685
O2    O     O_3   0.122420 0.434370 0.414380 -0.400769
O3    O     O_3   0.659500 0.627100 0.368810 -0.383010
O4    O     O_2   0.787146 0.557804 0.244185 -0.442302
O5    O     O_3   0.001906 0.254326 0.318767 -0.572068
O6    O     O_3   0.666940 0.736973 0.248839 -0.540142
H1    H     H_    0.789089 0.839670 0.336911 0.124508
C1    C     C_3   0.615792 0.917467 0.285758 -0.994567
H2    H     H_    0.626722 0.983876 0.332769 0.241661
H3    H     H_    0.694705 0.943728 0.242881 0.261481
P2    P     P_3+3 0.672880 0.754030 0.556100 0.482617
P3    P     P_3+3 0.126210 0.826394 0.410365 0.500967
O7    O     O_2   0.848200 0.768190 0.534530 -0.330021
O8    O     O_3   0.081160 0.685950 0.404810 -0.348067
O9    O     O_2   0.995797 0.878924 0.454371 -0.411145
O10   O     O_3   0.698950 0.789736 0.650635 -0.555217
O11   O     O_3   0.110432 0.869173 0.325846 -0.571016
C2    C     C_3   0.082957 0.782293 0.267881 0.495356
H4    H     H_    0.987674 0.718253 0.280313 0.154207
C3    C     C_3   0.024080 0.822008 0.200557 -1.044608
H5    H     H_    0.917616 0.863398 0.212498 0.291893
H6    H     H_    0.122357 0.880375 0.182703 0.257888
C4    C     C_3   0.335696 0.794452 0.690890 0.246138
H7    H     H_    0.409971 0.752098 0.722885 0.033346
H8    H     H_    0.393818 0.802469 0.639003 0.111406
C5    C     C_3   0.333488 0.905825 0.734131 -0.122922
H9    H     H_    0.456084 0.954483 0.732173 0.119138
Ba1   Ba    Ba6+2 0.852780 0.548340 0.465070 1.597312
C6    C     C_3   0.958756 0.212666 0.381362 0.362640
H10   H     H_    0.829901 0.220220 0.390661 0.101315
H11   H     H_    0.037647 0.252601 0.430001 0.137204
C7    C     C_3   0.976633 0.094705 0.368247 -0.909185
H12   H     H_    0.918920 0.054670 0.314732 0.268245
H13   H     H_    0.917936 0.053920 0.410981 0.225447
H14   H     H_    0.108327 0.087142 0.368300 0.271909
C8    C     C_3   0.731881 0.701924 0.681107 0.446128
H15   H     H_    0.838358 0.670443 0.656170 0.115028
H16   H     H_    0.623861 0.637350 0.673252 0.120707
C9    C     C_3   0.770306 0.738933 0.762188 -0.984355
H17   H     H_    0.889671 0.793415 0.771435 0.289522
H18   H     H_    0.776719 0.669310 0.789736 0.214890
H19   H     H_    0.673320 0.782281 0.786826 0.257654
P4    P     P_3+3 0.148670 0.605320 0.663680 0.480885
O12   O     O_2   0.316610 0.574140 0.674900 -0.390051
O13   O     O_3   0.067290 0.565720 0.585630 -0.356660
O14   O     O_3   0.530210 0.372990 0.631200 -0.370638
O15   O     O_3   0.172624 0.744879 0.674893 -0.542983
P5    P     P_3+3 0.066602 0.176955 0.596939 0.515863
O16   O     O_3   0.611340 0.366290 0.463630 -0.380411
O17   O     O_3   0.108550 0.314140 0.595200 -0.407680
O18   O     O_2   0.202192 0.125762 0.555566 -0.354052
O19   O     O_3   0.098182 0.160249 0.686789 -0.459953
Ba2   Ba    Ba6+2 0.337060 0.451750 0.534940 1.577645
P6    P     P_3+3 0.640101 0.609224 0.274503 0.446936
C10   C     C_3   0.665250 0.818022 0.309841 0.446077
H20   H     H_    0.577837 0.794220 0.350391 0.126015
H21   H     H_    0.487128 0.900865 0.263933 0.273343
O20   O     O_3   0.578370 0.633800 0.536380 -0.405819
C11   C     C_3   0.429825 0.255956 0.313884 0.383902
H22   H     H_    0.334956 0.290976 0.346612 0.116044
H23   H     H_    0.523803 0.321946 0.302038 0.072988
C12   C     C_3   0.345274 0.193098 0.243378 -0.884050
H24   H     H_    0.249000 0.128233 0.254994 0.266971
H25   H     H_    0.287013 0.247153 0.213851 0.237612
H26   H     H_    0.435763 0.156146 0.208780 0.272230
P7    P     P_3+3 0.522188 0.230088 0.442073 0.419129
O21   O     O_2   0.341510 0.231850 0.465510 -0.387921
O22   O     O_3   0.506880 0.185951 0.348257 -0.574315
H27   H     H_    0.987577 0.753245 0.155566 0.237809
C13   C     C_3   0.039635 0.242805 0.733133 0.479868
H28   H     H_    0.119923 0.320902 0.732960 0.123526
H29   H     H_    0.911970 0.249284 0.716727 0.051963
C14   C     C_3   0.041728 0.218692 0.810213 -0.897096
H30   H     H_    0.999498 0.284214 0.847831 0.204546
H31   H     H_    0.959614 0.142094 0.812493 0.290020
H32   H     H_    0.167296 0.212118 0.828944 0.271630
P8    P     P_3+3 0.554821 0.393089 0.726263 0.427432
C15   C     C_3   0.479680 0.193416 0.755785 0.383942
O23   O     O_2   0.470869 0.490588 0.751874 -0.387197
O24   O     O_3   0.425764 0.294215 0.762463 -0.549019
H33   H     H_    0.369182 0.135435 0.761470 0.132456
H34   H     H_    0.715017 0.238292 0.815280 0.237350
C16   C     C_3   0.596357 0.187366 0.819008 -0.903445
H35   H     H_    0.618983 0.103730 0.817693 0.278344
H36   H     H_    0.541806 0.213075 0.871354 0.256474
C17   C     C_R   0.992243 0.453555 0.049737 0.022674
C18   C     C_R   0.886963 0.404309 0.097616 0.011840
C19   C     C_R   0.718933 0.367559 0.075382 -0.041617
C20   C     C_R   0.661792 0.379360 0.006283 -0.178408
C21   C     C_R   0.766759 0.424690 0.958318 0.081717
C22   C     C_R   0.932266 0.461732 0.979547 0.022225
C23   C     C_R   0.708098 0.430343 0.888466 -0.242740
C24   C     C_R   0.816020 0.461199 0.835948 -0.029922
C25   C     C_R   0.979565 0.507407 0.858240 0.003614
C26   C     C_R   0.037174 0.507355 0.930460 -0.010163
C27   C     C_R   0.766904 0.444948 0.761615 0.182299
C28   C     C_R   0.875206 0.483195 0.712034 -0.521623
C29   C     C_R   0.028730 0.543493 0.734403 0.230918
C30   C     C_R   0.084867 0.553650 0.808694 -0.055531
C31   C     C_R   0.158096 0.493309 0.071372 0.005331
C32   C     C_R   0.219216 0.487338 0.141956 0.017623
C33   C     C_R   0.113149 0.441416 0.191274 -0.038485
C34   C     C_R   0.952596 0.393519 0.166016 -0.125575
H37   H     H_    0.533600 0.352691 0.989407 0.174790
H38   H     H_    0.834317 0.472535 0.655557 0.175653
H39   H     H_    0.578997 0.404706 0.874588 0.196491
H40   H     H_    0.878765 0.347551 0.199918 0.148434
C35   C     C_R   0.242780 0.605923 0.835325 -0.160581
C36   C     C_R   0.303416 0.600093 0.905235 0.129469
C37   C     C_R   0.200722 0.549651 0.952848 0.004479
C38   C     C_R   0.261638 0.542176 0.022995 0.008606
C39   C     C_R   0.466859 0.642339 0.927874 -0.150512
C40   C     C_R   0.528161 0.633365 0.996559 -0.183614
C41   C     C_R   0.426540 0.583579 0.044498 0.113765
C42   C     C_R   0.385406 0.529641 0.163507 -0.040390
C43   C     C_R   0.487639 0.575508 0.113576 -0.218526
C44   C     C_R   0.442392 0.529583 0.235532 0.273231
C45   C     C_R   0.334802 0.488070 0.284409 -0.434149
C46   C     C_R   0.170578 0.446350 0.264569 0.237262
H41   H     H_    0.322915 0.648488 0.801767 0.144892
H42   H     H_    0.548228 0.680849 0.891984 0.142373
H43   H     H_    0.655428 0.665499 0.012223 0.142873
H44   H     H_    0.615806 0.605628 0.127720 0.181643
H45   H     H_    0.378263 0.492739 0.340044 0.169802
C47   C     C_R   0.767932 0.181572 0.527477 -0.519308
C48   C     C_R   0.419148 0.812402 0.481948 -0.422733
C49   C     C_R   0.396772 0.986676 0.453716 -0.197930
C50   C     C_R   0.329364 0.880152 0.453253 0.344432
C51   C     C_R   0.575616 0.850642 0.513995 0.203152
C52   C     C_R   0.643939 0.961349 0.518699 -0.075309
C53   C     C_R   0.552295 0.029667 0.487213 -0.069415
C54   C     C_R   0.617514 0.139608 0.491005 0.256725
C55   C     C_R   0.861799 0.115731 0.556162 0.243606
C56   C     C_R   0.799709 0.006423 0.553122 -0.030135
H46   H     H_    0.325010 0.034856 0.428091 0.180746
H47   H     H_    0.872870 0.959209 0.579157 0.212911
H48   H     H_    0.816317 0.265866 0.530373 0.162814
H49   H     H_    0.365463 0.729219 0.480142 0.183415
N1    N     N_R   0.209810 0.955258 0.700354 0.263576
O25   O     O_R   0.223224 0.967219 0.632961 -0.374843
O26   O     O_R   0.071797 0.966030 0.730757 -0.369877
C57   C     C_2   0.298910 0.898583 0.812201 0.494758
H50   H     H_    0.186315 0.851277 0.825317 0.055051
O27   O     O_2   0.397559 0.944740 0.861073 -0.586035
C58   C     C_2   0.540535 0.153761 0.682800 0.465134
H51   H     H_    0.478171 0.165189 0.633846 0.111277
O28   O     O_2   0.655406 0.104103 0.678220 -0.633716
C59   C     C_2   0.597334 0.320446 0.123234 0.504157
H52   H     H_    0.620850 0.331416 0.181230 -0.001447
O29   O     O_2   0.465165 0.269998 0.097993 -0.588103
C60   C     C_2   0.237565 0.738257 0.251710 0.390924
H53   H     H_    0.286327 0.732737 0.198063 0.051261
O30   O     O_2   0.310588 0.708066 0.299499 -0.622528

loop_
_geom_bond_atom_site_label_1
_geom_bond_atom_site_label_2
_geom_bond_distance
_ccdc_geom_bond_type
C17   C18   1.417448 A    
C12   H25   1.109034 S    
C23   C24   1.405941 A    
P2    Ba1   3.446435 S    
C25   C26   1.422229 A    
C2    H4    1.103488 S    
C4    C5    1.520905 S    
O6    P6    1.760327 S    
P5    C55   1.843077 S    
C49   C50   1.388616 A    
H1    C10   1.106169 S    
C15   H33   1.103350 S    
C40   C41   1.404740 A    
C10   H20   1.106314 S    
C31   C38   1.413987 A    
O16   Ba2   2.921883 S    
P2    C51   1.840615 S    
P3    O11   1.764278 S    
C11   C12   1.520106 S    
C3    H5    1.103560 S    
C2    C3    1.529203 S    
C43   H44   1.081070 S    
C4    H8    1.105845 S    
C1    H21   1.106666 S    
C8    C9    1.523674 S    
C52   C56   1.419898 A    
C59   O29   1.221446 D    
C6    H10   1.099416 S    
O2    Ba2   2.795024 S    
P8    O23   1.533126 D    
Ba2   O21   2.903290 S    
Ba1   Ba2   4.589390 S    
C57   H50   1.085608 S    
C27   C28   1.397852 A    
C22   C26   1.411756 A    
C7    H14   1.107515 S    
C42   C43   1.412406 A    
C11   H23   1.110139 S    
P1    O1    1.520809 D    
O2    Ba1   2.938238 S    
C44   C45   1.400329 A    
C7    H13   1.106192 S    
C36   C37   1.409076 A    
P2    O20   1.593998 S    
C9    H19   1.110051 S    
C39   H42   1.083243 S    
Ba1   O20   2.922790 S    
C47   C54   1.390874 A    
C42   C44   1.417209 A    
C53   C54   1.415702 A    
P5    O17   1.740763 S    
C14   H32   1.107538 S    
P2    O10   1.752107 S    
C5    C57   1.509732 S    
C4    H7    1.104518 S    
C1    H2    1.109177 S    
O3    Ba1   2.786631 S    
C6    C7    1.518397 S    
Ba2   O20   2.819064 S    
C19   C59   1.485738 S    
C12   H26   1.110146 S    
C30   C35   1.410985 A    
C17   C31   1.412070 A    
C17   C22   1.418370 A    
C32   C33   1.421972 A    
C48   H49   1.082447 S    
O6    C10   1.411941 S    
C49   C53   1.406980 A    
C18   C34   1.414038 A    
P4    O13   1.564582 S    
O8    Ba1   2.767607 S    
C15   C58   1.502578 S    
C58   O28   1.217872 D    
Ba1   O16   2.819690 S    
C3    H6    1.111996 S    
C26   C37   1.403528 A    
C14   H30   1.107603 S    
C58   H51   1.082101 S    
P7    O21   1.568657 D    
C4    O15   1.401598 S    
C31   C32   1.420826 A    
N1    O25   1.299993 A    
C21   C22   1.402609 A    
C15   O24   1.414754 S    
C25   C30   1.423282 A    
O11   C2    1.406119 S    
C24   C27   1.412409 A    
C41   C43   1.401894 A    
P1    O5    1.749291 S    
C11   H22   1.109320 S    
P1    O2    1.564582 S    
P1    C46   1.877343 S    
C48   C50   1.386004 A    
C8    H15   1.104827 S    
C21   C23   1.400161 A    
H34   C16   1.101185 S    
P5    O18   1.543767 D    
O13   Ba2   2.939143 S    
P8    C27   1.842516 S    
P1    Ba1   3.411661 S    
C2    C60   1.491614 S    
C1    C10   1.525142 S    
O10   C8    1.398745 S    
C16   H35   1.110026 S    
C1    H3    1.107775 S    
C36   C39   1.403633 A    
C14   H31   1.110144 S    
O14   Ba2   2.785973 S    
C40   H43   1.083762 S    
C45   H45   1.082387 S    
C9    H17   1.108989 S    
O5    C6    1.395782 S    
P2    O7    1.505391 D    
O12   Ba2   2.844414 S    
P3    O8    1.762235 S    
O3    P6    1.741878 S    
C56   H47   1.078127 S    
O7    Ba1   2.903063 S    
C52   C53   1.426627 A    
O19   C13   1.405805 S    
C34   H40   1.072529 S    
P4    O12   1.521147 D    
C13   H29   1.111168 S    
C39   C40   1.398968 A    
O16   P7    1.760564 S    
C57   O27   1.220407 D    
C47   H48   1.082515 S    
C37   C38   1.417794 A    
P7    C54   1.841590 S    
O4    P6    1.544836 D    
C20   H37   1.084755 S    
C60   O30   1.213433 D    
C13   C14   1.523602 S    
C45   C46   1.397809 A    
C55   C56   1.404298 A    
N1    O26   1.302561 A    
C3    H27   1.111862 S    
C5    N1    1.464057 S    
C28   H38   1.082197 S    
C29   C30   1.433926 A    
Ba1   O13   2.794375 S    
O17   Ba2   2.768247 S    
C49   H46   1.075722 S    
C51   C52   1.428783 A    
C48   C51   1.394442 A    
C13   H28   1.111306 S    
C8    H16   1.108130 S    
C59   H52   1.080085 S    
C23   H39   1.079448 S    
C6    H11   1.109712 S    
P8    O24   1.759265 S    
C35   H41   1.072304 S    
C20   C21   1.395130 A    
C15   C16   1.528048 S    
C11   O22   1.401933 S    
P5    O19   1.747567 S    
C9    H18   1.106667 S    
P4    C29   1.876714 S    
C33   C46   1.428895 A    
C7    H12   1.107458 S    
C24   C25   1.413413 A    
C32   C42   1.419976 A    
C12   H24   1.110270 S    
P4    Ba2   3.412264 S    
O1    Ba1   2.844069 S    
C18   C19   1.425171 A    
C47   C55   1.388637 A    
C28   C29   1.395875 A    
P3    O9    1.540545 D    
C33   C34   1.409060 A    
P3    C50   1.826852 S    
C16   H36   1.109458 S    
C60   H53   1.085877 S    
O14   P8    1.757140 S    
P7    O22   1.748639 S    
C19   C20   1.405185 A    
C35   C36   1.407265 A    
C38   C41   1.408070 A    
P4    O15   1.741811 S    
C5    H9    1.109365 S    
P6    C44   1.851580 S    
