data_mof_unit_9503.cif
_audit_creation_date              2012-12-11T15:55:51-0500
_audit_creation_method            fapswitch 2.2
_symmetry_space_group_name_H-M    P1
_symmetry_Int_Tables_number       1
_space_group_crystal_system       triclinic
_cell_length_a                    11.335332
_cell_length_b                    11.3189
_cell_length_c                    18.829234
_cell_angle_alpha                 89.498917
_cell_angle_beta                  89.346701
_cell_angle_gamma                 58.049468
_cell_volume                      2049.72326433

loop_
_atom_site_label
_atom_site_type_symbol
_atom_type_description
_atom_site_fract_x
_atom_site_fract_y
_atom_site_fract_z
_atom_type_partial_charge
C1    C     C_R   0.358601 0.768941 0.398014 0.541289
C2    C     C_R   0.571075 0.060495 0.181822 0.091890
C3    C     C_R   0.360945 0.314061 0.167942 0.025398
C4    C     C_R   0.472515 0.210982 0.282869 0.015790
C5    C     C_R   0.476705 0.204258 0.208846 0.031907
C6    C     C_R   0.079983 0.691733 0.298452 -0.110008
C7    C     C_R   0.984860 0.798336 0.343168 -0.066273
C8    C     C_R   0.515572 0.978737 0.174187 0.347470
C9    C     C_R   0.603526 0.847007 0.138772 -0.067998
C10   C     C_R   0.254979 0.431151 0.203699 -0.176909
C11   C     C_R   0.252267 0.438747 0.277587 -0.052790
C12   C     C_R   0.386495 0.352749 0.389480 0.556366
C13   C     C_R   0.938925 0.767775 0.406584 0.322483
C14   C     C_R   0.976965 0.630538 0.419662 -0.060149
C15   C     C_R   0.070003 0.524199 0.374110 -0.125098
C16   C     C_R   0.127315 0.553266 0.314630 0.034122
C17   C     C_R   0.364716 0.331792 0.316390 -0.005034
C18   C     C_R   0.948403 0.303112 0.193299 0.022393
C19   C     C_R   0.916300 0.215808 0.227016 -0.010257
C20   C     C_R   0.875513 0.230254 0.297418 -0.045442
C21   C     C_R   0.898419 0.427073 0.304702 -0.170285
C22   C     C_R   0.944942 0.408142 0.233851 -0.167255
C23   C     C_R   0.779410 0.378613 0.403863 0.515819
C24   C     C_3   0.818725 0.177567 0.203361 -0.032400
C25   C     C_3   0.764378 0.203792 0.279533 -0.243076
C26   C     C_R   0.863625 0.336525 0.338153 -0.004159
C27   C     C_R   0.324892 0.839083 0.177311 0.081694
C28   C     C_R   0.450677 0.747108 0.208182 -0.025132
C29   C     C_R   0.462306 0.732570 0.281603 0.049636
C30   C     C_R   0.217645 0.889364 0.295378 -0.192050
C31   C     C_R   0.206005 0.895645 0.222198 -0.134399
C32   C     C_3   0.525360 0.595873 0.196931 -0.290398
C33   C     C_3   0.535775 0.579154 0.275757 -0.250393
C34   C     C_R   0.343913 0.767791 0.604106 0.543565
C35   C     C_R   0.348289 0.811718 0.325749 0.029209
C36   C     C_R   0.320402 0.329112 0.816868 0.010909
C37   C     C_R   0.445413 0.238073 0.781144 -0.006035
C38   C     C_R   0.451165 0.240545 0.708903 0.097580
C39   C     C_R   0.219011 0.440755 0.703997 -0.180307
C40   C     C_R   0.211100 0.438716 0.778362 -0.174388
C41   C     C_3   0.538820 0.081605 0.781589 -0.230875
C42   C     C_3   0.538184 0.086743 0.701225 0.150702
C43   C     C_R   0.338330 0.336039 0.668613 -0.013641
C44   C     C_R   0.811364 0.337493 0.837369 0.017603
C45   C     C_R   0.370521 0.351077 0.595977 0.544992
C46   C     C_R   0.769017 0.462306 0.801196 0.027778
C47   C     C_R   0.758240 0.468817 0.728532 0.046724
C48   C     C_R   0.801671 0.237640 0.724227 -0.148066
C49   C     C_R   0.815867 0.228582 0.798808 -0.149987
C50   C     C_3   0.827959 0.554000 0.800127 -0.269670
C51   C     C_3   0.818393 0.557321 0.720343 -0.277408
C52   C     C_R   0.783388 0.355423 0.687922 0.012376
C53   C     C_R   0.296743 0.856095 0.823421 0.026231
C54   C     C_R   0.181403 0.885030 0.783340 0.034744
C55   C     C_R   0.189346 0.873462 0.710222 0.012326
C56   C     C_R   0.756156 0.379646 0.611691 0.534527
C57   C     C_R   0.422561 0.825523 0.713023 -0.163710
C58   C     C_R   0.415932 0.832944 0.787071 -0.162167
C59   C     C_3   0.093435 0.823458 0.789560 -0.264976
C60   C     C_3   0.099068 0.814400 0.709346 -0.279237
C61   C     C_R   0.313547 0.832968 0.674079 0.018997
C62   C     C_R   0.973687 0.289212 0.116812 0.580515
C63   C     C_R   0.327817 0.289610 0.094615 0.599390
C64   C     C_R   0.306664 0.892236 0.102983 0.572376
C65   C     C_R   0.882992 0.310783 0.905446 0.562013
C66   C     C_R   0.297100 0.289488 0.886452 0.558718
C67   C     C_R   0.739108 0.798684 0.119285 -0.144326
C68   C     C_R   0.274720 0.897390 0.897673 0.537834
C69   C     C_R   0.797539 0.870961 0.140634 0.065788
C70   C     C_R   0.716470 0.991398 0.180011 -0.085754
Cr1   Cr    Cr6+3 0.601740 0.606840 0.505840 1.028636
Cr2   Cr    Cr6+3 0.291500 0.601560 0.495070 0.995020
Cr3   Cr    Cr6+3 0.606780 0.291630 0.499130 1.059034
Cr4   Cr    Cr6+3 0.062440 0.063060 0.008240 1.073271
Cr5   Cr    Cr6+3 0.062950 0.375000 0.998920 1.024527
Cr6   Cr    Cr6+3 0.374550 0.061770 0.992470 1.037443
H1    H     H_    0.938523 0.605300 0.466642 0.126346
H2    H     H_    0.104850 0.417467 0.387881 0.110071
H3    H     H_    0.867859 0.525012 0.328902 0.166749
H4    H     H_    0.963834 0.483542 0.209342 0.148875
H5    H     H_    0.886716 0.069100 0.186571 0.151799
H6    H     H_    0.658943 0.297754 0.285326 0.169489
H7    H     H_    0.779365 0.113764 0.310041 0.148154
H8    H     H_    0.125311 0.945149 0.328191 0.119200
H9    H     H_    0.572991 0.779991 0.117987 0.122306
H10   H     H_    0.103972 0.959281 0.201483 0.154075
H11   H     H_    0.627219 0.558010 0.170288 0.179895
H12   H     H_    0.456817 0.564242 0.173131 0.181854
H13   H     H_    0.476109 0.535050 0.298648 0.141970
H14   H     H_    0.641135 0.533452 0.294304 0.164905
H15   H     H_    0.132305 0.521942 0.674318 0.118184
H16   H     H_    0.117806 0.517407 0.805030 0.119180
H17   H     H_    0.487275 0.028253 0.802263 0.126359
H18   H     H_    0.641947 0.046127 0.805222 0.149290
H19   H     H_    0.951168 0.903562 0.329244 0.088800
H20   H     H_    0.479312 0.045659 0.675022 0.099386
H21   H     H_    0.812629 0.150615 0.695060 0.181486
H22   H     H_    0.842077 0.132656 0.825169 0.135807
H23   H     H_    0.936866 0.499843 0.817978 0.168295
H24   H     H_    0.757170 0.656837 0.825228 0.128174
H25   H     H_    0.743003 0.661084 0.698696 0.126526
H26   H     H_    0.921401 0.502205 0.693132 0.136815
H27   H     H_    0.517367 0.802708 0.686906 0.123784
H28   H     H_    0.504630 0.818556 0.815900 0.120951
H29   H     H_    0.987699 0.897618 0.810624 0.139794
H30   H     H_    0.799104 0.703297 0.089189 0.155024
H31   H     H_    0.148488 0.720190 0.816356 0.148330
H32   H     H_    0.154341 0.706359 0.689542 0.168617
H33   H     H_    0.998033 0.887500 0.684034 0.135367
H34   H     H_    0.765930 0.001138 0.224343 0.122900
H35   H     H_    0.123640 0.716037 0.253773 0.150613
H36   H     H_    0.165661 0.509779 0.174688 0.163397
O1    O     O_R   0.748670 0.497520 0.427970 -0.524917
O2    O     O_R   0.300170 0.471020 0.567120 -0.517856
O3    O     O_R   0.491630 0.259030 0.574940 -0.460533
O4    O     O_R   0.718640 0.304340 0.577850 -0.504870
O5    O     O_3   0.500010 0.500010 0.500020 -0.273335
O6    O     O_R   0.186620 0.923750 0.087000 -0.508966
O7    O     O_R   0.957350 0.194160 0.084660 -0.457508
O8    O     O_R   0.935120 0.407280 0.085350 -0.526011
O9    O     O_R   0.203800 0.365060 0.067090 -0.511922
O10   O     O_R   0.417470 0.174910 0.067830 -0.478897
O11   O     O_R   0.375160 0.946380 0.070880 -0.471085
O12   O     O_R   0.476470 0.723930 0.429450 -0.479120
O13   O     O_R   0.160500 0.919670 0.926690 -0.500321
O14   O     O_R   0.933140 0.190380 0.936050 -0.485596
O15   O     O_R   0.909010 0.403210 0.925030 -0.526450
O16   O     O_R   0.179590 0.361290 0.918480 -0.509809
O17   O     O_R   0.391360 0.170840 0.907510 -0.524646
O18   O     O_R   0.350950 0.942600 0.922260 -0.525022
O19   O     O_3   0.166650 0.166610 0.999880 -0.292171
O20   O     O_R   0.264730 0.744140 0.416740 -0.538667
O21   O     O_R   0.309440 0.472410 0.418220 -0.505834
O22   O     O_R   0.501630 0.260530 0.414310 -0.475607
O23   O     O_R   0.727920 0.305730 0.428950 -0.513879
O24   O     O_R   0.738670 0.496020 0.588600 -0.524122
O25   O     O_R   0.467190 0.722540 0.578350 -0.505158
O26   O     O_R   0.254720 0.742640 0.577370 -0.540904
I1    I     I_    0.594124 0.012458 0.343855 -0.392748
O27   O     O_3   0.850266 0.869705 0.454436 -0.564747
C71   C     C_3   0.906524 0.948963 0.475925 -0.093683
H37   H     H_    0.899210 0.020581 0.433126 0.123812
H38   H     H_    0.015847 0.881378 0.494085 0.131785
H39   H     H_    0.844396 0.014772 0.521531 0.161992
I2    I     I_    0.668329 0.296045 0.120918 -0.398967
O28   O     O_3   0.668555 0.045780 0.670678 -0.554221
C72   C     C_3   0.742055 0.901772 0.657024 -0.132258
H40   H     H_    0.679068 0.870084 0.627101 0.128478
H41   H     H_    0.780745 0.842657 0.707579 0.100961
H42   H     H_    0.833074 0.874470 0.622829 0.142397
I3    I     I_    0.004548 0.793642 0.111519 -0.442622
O29   O     O_3   0.370316 0.044851 0.178688 -0.567657
C73   C     C_3   0.305951 0.092597 0.245811 -0.125737
H43   H     H_    0.266656 0.201996 0.254715 0.127791
H44   H     H_    0.365700 0.023093 0.289884 0.157772
H45   H     H_    0.203367 0.105780 0.244619 0.129059

loop_
_geom_bond_atom_site_label_1
_geom_bond_atom_site_label_2
_ccdc_geom_bond_type
C44   C49   A    
C7    C13   A    
C21   C26   A    
C29   C33   S    
C41   C42   S    
C72   H40   S    
C1    O20   A    
Cr2   O21   S    
Cr1   O25   S    
C53   C54   A    
C51   H26   S    
C48   H21   S    
C50   H23   S    
C59   H29   S    
Cr3   O4    S    
C30   C35   A    
C42   H20   S    
C65   O15   A    
C21   C22   A    
C28   C29   A    
C8    O29   S    
C38   C42   S    
C24   I2    S    
C71   H38   S    
C30   C31   A    
Cr6   O19   S    
C36   C66   S    
C23   C26   S    
C15   H2    S    
C20   C25   S    
C15   C16   A    
C32   H12   S    
Cr2   O2    S    
C64   O6    A    
Cr1   O1    S    
Cr5   O16   S    
C6    H35   S    
C14   H1    S    
C53   C68   S    
C60   H33   S    
C70   H34   S    
C9    H9    S    
C49   H22   S    
C54   C55   A    
Cr6   O18   S    
C45   O2    A    
C41   H17   S    
Cr3   O23   S    
C44   C46   A    
C8    C9    A    
C12   C17   S    
C10   H36   S    
C13   C14   A    
C73   H44   S    
C62   O8    A    
C60   H32   S    
C66   O17   A    
Cr2   O26   S    
C59   C60   S    
C31   H10   S    
C12   O22   A    
Cr4   O19   S    
C30   H8    S    
C44   C65   S    
Cr4   O6    S    
C39   H15   S    
C56   O24   A    
Cr5   O19   S    
Cr2   O20   S    
C54   C59   S    
C56   O4    A    
C57   H27   S    
Cr3   O5    S    
Cr1   O5    S    
C27   C31   A    
C69   I3    S    
C13   O27   S    
Cr1   O12   S    
C28   C32   S    
C72   H42   S    
O27   C71   S    
C10   C11   A    
C71   H39   S    
Cr1   O24   S    
C18   C19   A    
C39   C43   A    
C32   H11   S    
C34   O26   A    
C34   C61   S    
C59   H31   S    
C67   C69   A    
Cr2   O5    S    
C24   H5    S    
C9    C67   A    
C37   C38   A    
Cr4   O7    S    
C33   H13   S    
C23   O1    A    
Cr6   O17   S    
C45   O3    A    
C41   H18   S    
C36   C40   A    
C21   H3    S    
C50   C51   S    
C63   O9    A    
C24   C25   S    
C73   H45   S    
C68   O18   A    
C43   C45   S    
C62   O7    A    
C47   C52   A    
C4    C17   A    
C48   C49   A    
C12   O21   A    
C71   H37   S    
C25   H6    S    
C2    C5    S    
C58   H28   S    
C42   O28   S    
C39   C40   A    
C63   O10   A    
C1    C35   S    
O28   C72   S    
C46   C50   S    
C46   C47   A    
C36   C37   A    
C72   H41   S    
Cr5   O9    S    
Cr6   O11   S    
C2    C8    A    
Cr5   O8    S    
C4    C5    A    
C3    C5    A    
C11   C17   A    
C47   C51   S    
C53   C58   A    
C67   H30   S    
C57   C61   A    
C6    C7    A    
C3    C63   S    
C51   H25   S    
C64   O11   A    
C7    H19   S    
C29   C35   A    
C34   O25   A    
C50   H24   S    
Cr3   O3    S    
C23   O23   A    
Cr6   O10   S    
C32   C33   S    
C19   C20   A    
C18   C22   A    
C19   C24   S    
C1    O12   A    
C22   H4    S    
C38   C43   A    
C3    C10   A    
C2    C70   A    
C33   H14   S    
C65   O14   A    
C4    I1    S    
C57   C58   A    
Cr4   O14   S    
C20   C26   A    
C55   C61   A    
C66   O16   A    
Cr5   O15   S    
C37   C41   S    
C69   C70   A    
C40   H16   S    
C11   C16   S    
C27   C64   S    
C6    C16   A    
Cr4   O13   S    
C48   C52   A    
Cr3   O22   S    
C27   C28   A    
C25   H7    S    
C14   C15   A    
C18   C62   S    
O29   C73   S    
C73   H43   S    
C55   C60   S    
C68   O13   A    
C52   C56   S    
