data_mof_unit_21970.cif
_audit_creation_date              2012-12-11T16:29:35-0500
_audit_creation_method            fapswitch 2.2
_symmetry_space_group_name_H-M    P1
_symmetry_Int_Tables_number       1
_space_group_crystal_system       triclinic
_cell_length_a                    6.952569
_cell_length_b                    17.255345
_cell_length_c                    18.865808
_cell_angle_alpha                 106.103425
_cell_angle_beta                  90.138763
_cell_angle_gamma                 90.760411
_cell_volume                      2174.26978082

loop_
_atom_site_label
_atom_site_type_symbol
_atom_type_description
_atom_site_fract_x
_atom_site_fract_y
_atom_site_fract_z
_atom_type_partial_charge
O1    O     O_R   0.494360 0.415680 0.413760 -0.510308
O2    O     O_R   0.818810 0.432910 0.557230 -0.534245
O3    O     O_R   0.994290 0.584320 0.586240 -0.539882
C1    C     C_R   0.650166 0.416349 0.580957 0.806868
O4    O     O_R   0.823740 0.406440 0.412520 -0.541277
O5    O     O_R   0.999250 0.557660 0.440500 -0.528917
C2    C     C_R   0.653493 0.383002 0.385362 0.811454
O6    O     O_R   0.489400 0.442340 0.559500 -0.504064
O7    O     O_3   0.662500 0.549650 0.509350 -0.371884
V1    V     V_3+5 0.935340 0.490790 0.498270 1.487232
O8    O     O_R   0.329270 0.567090 0.442770 -0.527915
C3    C     C_R   0.161000 0.584309 0.419603 0.705432
O9    O     O_R   0.324340 0.593560 0.587480 -0.544439
C4    C     C_R   0.156280 0.617411 0.614228 0.674226
V2    V     V_3+5 0.435970 0.509210 0.501730 1.513971
O10   O     O_3   0.158940 0.450350 0.490650 -0.346197
C5    C     C_R   0.983347 0.591856 0.743084 -0.359545
C6    C     C_R   0.895772 0.575269 0.802882 0.604341
C7    C     C_R   0.896728 0.632778 0.870183 0.562621
C8    C     C_R   0.982758 0.708943 0.878177 -0.315898
C9    C     C_R   0.052487 0.731840 0.815072 -0.035278
C10   C     C_R   0.058811 0.669712 0.746788 -0.002376
C11   C     C_R   0.113332 0.812713 0.816749 -0.082963
C12   C     C_R   0.181131 0.828458 0.750247 -0.052468
C13   C     C_R   0.217712 0.762633 0.687234 0.057438
C14   C     C_R   0.147483 0.684194 0.684072 -0.070378
C15   C     C_R   0.213509 0.908384 0.743647 -0.178254
C16   C     C_R   0.323469 0.920412 0.685137 0.624524
C17   C     C_R   0.379693 0.854752 0.627105 -0.127051
C18   C     C_R   0.317134 0.777352 0.626833 -0.312408
H1    H     H_    0.992086 0.541542 0.694303 0.167954
H2    H     H_    0.348812 0.728629 0.578704 0.181837
C19   C     C_1   0.112324 0.867220 0.135491 -0.015280
C20   C     C_1   0.119217 0.824406 0.178846 0.106597
C21   C     C_1   0.127856 0.773594 0.230218 0.047168
C22   C     C_1   0.135738 0.730797 0.273586 0.049794
C23   C     C_1   0.145239 0.679958 0.324930 0.062971
C24   C     C_1   0.152889 0.636851 0.368036 -0.161864
C25   C     C_1   0.641974 0.364319 0.632922 -0.112861
C26   C     C_1   0.637787 0.321622 0.676413 0.092648
C27   C     C_1   0.634223 0.271268 0.728210 0.078181
C28   C     C_1   0.631490 0.228873 0.771973 0.074570
C29   C     C_1   0.627865 0.178622 0.823848 0.080880
C30   C     C_1   0.623540 0.136073 0.867454 -0.129552
H3    H     H_    0.453185 0.136633 0.448364 0.199881
C31   C     C_R   0.726540 0.403904 0.241833 -0.262289
C32   C     C_R   0.760889 0.417068 0.173358 0.707714
C33   C     C_R   0.748169 0.353314 0.109564 -0.173760
C34   C     C_R   0.702410 0.275913 0.113831 -0.257491
C35   C     C_R   0.668690 0.260344 0.182714 0.091011
C36   C     C_R   0.679515 0.325892 0.247984 -0.030324
C37   C     C_R   0.626903 0.180959 0.186911 -0.114475
C38   C     C_R   0.598804 0.166726 0.257706 -0.068614
C39   C     C_R   0.588965 0.234433 0.321992 -0.039655
C40   C     C_R   0.639060 0.313373 0.317563 -0.130278
C41   C     C_R   0.584095 0.087030 0.267352 -0.073074
C42   C     C_R   0.527508 0.076107 0.336144 -0.124912
C43   C     C_R   0.497720 0.143612 0.395425 -0.189225
C44   C     C_R   0.533264 0.220748 0.389830 0.564550
H4    H     H_    0.736030 0.455736 0.289738 0.122512
H5    H     H_    0.774083 0.363754 0.056373 0.169090
H6    H     H_    0.694788 0.228586 0.062411 0.117438
O11   O     O_R   0.775690 0.057750 0.940570 -0.522738
O12   O     O_R   0.441200 0.093570 0.087490 -0.534183
O13   O     O_R   0.265840 0.942320 0.059480 -0.507061
C45   C     C_R   0.610953 0.114270 0.116758 0.701339
O14   O     O_R   0.446270 0.067110 0.942790 -0.521423
O15   O     O_R   0.270950 0.915660 0.913750 -0.527460
C46   C     C_R   0.615087 0.084145 0.919486 0.742607
O16   O     O_R   0.770580 0.084400 0.086300 -0.534277
O17   O     O_3   0.602640 0.950400 0.990690 -0.357012
V3    V     V_3+5 0.329740 0.009200 0.001730 1.524436
O18   O     O_R   0.940900 0.906360 0.912450 -0.530381
C47   C     C_R   0.108663 0.881028 0.886341 0.718745
O19   O     O_R   0.935830 0.932820 0.057160 -0.526087
C48   C     C_R   0.103961 0.918697 0.082889 0.827078
V4    V     V_3+5 0.829130 0.990680 0.998180 1.512833
O20   O     O_3   0.106100 0.049590 0.009310 -0.373900
C49   C     C_2   0.493394 0.866258 0.563843 0.876260
O21   O     O_2   0.559243 0.932724 0.565148 -0.467969
O22   O     O_R   0.527018 0.800604 0.502493 -0.682774
H7    H     H_    0.605773 0.816004 0.463169 0.305580
F1    F     F_    0.805595 0.492308 0.168904 -0.650847
C50   C     C_2   0.669692 0.017372 0.213506 0.772436
O23   O     O_2   0.844310 0.010334 0.211999 -0.576048
O24   O     O_R   0.552117 0.959441 0.166012 -0.638843
H8    H     H_    0.627629 0.913088 0.133875 0.308865
C51   C     C_2   0.507568 0.995127 0.349743 0.828565
O25   O     O_2   0.531836 0.988281 0.411985 -0.525530
O26   O     O_R   0.457395 0.927011 0.292580 -0.651630
H9    H     H_    0.450556 0.876092 0.309366 0.295187
F2    F     F_    0.509019 0.281294 0.452317 -0.712437
F3    F     F_    0.821399 0.500554 0.796649 -0.647911
F4    F     F_    0.828193 0.611291 0.929584 -0.604112
C52   C     C_2   0.023522 0.754521 0.954795 0.849912
O27   O     O_2   0.190375 0.769992 0.974471 -0.551518
O28   O     O_R   0.876046 0.772220 0.006865 -0.633727
H10   H     H_    0.743001 0.760329 0.984039 0.304859
C53   C     C_2   0.104290 0.978884 0.786839 0.830202
O29   O     O_2   0.930225 0.972823 0.793324 -0.560313
O30   O     O_R   0.197492 0.053176 0.816155 -0.624384
H11   H     H_    0.106508 0.096667 0.843425 0.286629
F5    F     F_    0.361365 0.996851 0.681797 -0.616480

loop_
_geom_bond_atom_site_label_1
_geom_bond_atom_site_label_2
_ccdc_geom_bond_type
O30   H11   S    
O18   C47   A    
C52   O27   D    
C12   C15   A    
C2    C40   S    
C1    O6    A    
O28   H10   S    
C33   H5    S    
V4    O20   S    
C15   C53   S    
C23   C24   T    
O13   C48   A    
C16   C17   A    
C50   O24   S    
C20   C21   S    
O5    C3    A    
O15   C47   A    
V2    O10   S    
C41   C42   A    
O14   V3    S    
C27   C28   T    
V3    O20   S    
C39   C40   A    
O8    V2    S    
C50   O23   D    
O11   C46   A    
C35   C37   A    
C11   C12   A    
O1    V2    S    
C32   F1    S    
O7    V1    S    
C51   O25   D    
O9    C4    A    
O16   V4    S    
C3    C24   S    
C41   C50   S    
C39   C44   A    
H3    C43   S    
C12   C13   A    
C25   C26   T    
O4    C2    A    
O24   H8    S    
C6    C7    A    
C35   C36   A    
C43   C44   A    
C38   C39   A    
C31   C36   A    
O22   H7    S    
O14   C46   A    
C21   C22   T    
O12   C45   A    
O2    C1    A    
O19   C48   A    
C17   C18   A    
C19   C48   S    
C32   C33   A    
C17   C49   S    
C1    C25   S    
O15   V3    S    
C5    C6    A    
C30   C46   S    
C4    C14   S    
O19   V4    S    
C7    F4    S    
C26   C27   S    
C53   O30   S    
C8    C52   S    
C51   O26   S    
O6    V2    S    
C9    C11   A    
C29   C30   T    
C5    H1    S    
C28   C29   S    
C11   C47   S    
O26   H9    S    
O2    V1    S    
O17   V4    S    
C37   C45   S    
C37   C38   A    
C42   C51   S    
C49   O22   S    
O11   V4    S    
C38   C41   A    
C13   C18   A    
C31   C32   A    
C33   C34   A    
C34   H6    S    
C31   H4    S    
O1    C2    A    
O5    V1    S    
O8    C3    A    
C52   O28   S    
O3    C4    A    
O13   V3    S    
C5    C10   A    
C53   O29   D    
C7    C8    A    
O9    V2    S    
C13   C14   A    
O17   V3    S    
O3    V1    S    
V1    O10   S    
C18   H2    S    
C16   F5    S    
C42   C43   A    
C45   O16   A    
C19   C20   T    
C36   C40   A    
C44   F2    S    
O12   V3    S    
O7    V2    S    
C49   O21   D    
O4    V1    S    
C8    C9    A    
C22   C23   S    
C34   C35   A    
C10   C14   A    
C15   C16   A    
C6    F3    S    
O18   V4    S    
C9    C10   A    
