data_mof_unit_22354.cif
_audit_creation_date              2013-03-05T16:41:34-0500
_audit_creation_method            fapswitch 2.2
_symmetry_space_group_name_H-M    P1
_symmetry_Int_Tables_number       1
_space_group_crystal_system       triclinic
_cell_length_a                    12.803956
_cell_length_b                    10.698345
_cell_length_c                    9.936479
_cell_angle_alpha                 89.278745
_cell_angle_beta                  97.035807
_cell_angle_gamma                 90.600408
_cell_volume                      1350.69896514

loop_
_atom_site_label
_atom_site_type_symbol
_atom_site_description
_atom_site_fract_x
_atom_site_fract_y
_atom_site_fract_z
_atom_type_partial_charge
O1    O     O_R   0.500010 0.316790 0.614690 -0.653436
O2    O     O_R   0.500000 0.316760 0.385350 -0.578010
C1    C     C_R   0.502793 0.259966 0.501068 0.866270
O3    O     O_R   0.346360 0.499990 0.595720 -0.596869
O4    O     O_R   0.346350 0.499960 0.366370 -0.599161
C2    C     C_R   0.298610 0.500664 0.473528 0.950145
Zn1   Zn    Zn3+2 0.500010 0.500020 0.653130 0.966915
Zn2   Zn    Zn3+2 0.499990 0.499980 0.346870 1.056238
O5    O     O_R   0.500000 0.683240 0.614650 -0.612127
O6    O     O_R   0.499990 0.683210 0.385310 -0.598247
O7    O     O_R   0.653650 0.500040 0.633630 -0.643168
O8    O     O_R   0.653640 0.500010 0.404280 -0.568277
C3    C     C_R   0.504798 0.739609 0.500197 0.929733
C4    C     C_R   0.701256 0.501220 0.526735 0.867477
C5    C     C_R   0.812732 0.510853 0.543549 -0.025417
C6    C     C_R   0.186422 0.497303 0.458228 -0.160303
C7    C     C_R   0.028053 0.385425 0.378320 -0.160674
C8    C     C_R   0.134671 0.403963 0.378260 -0.235920
C9    C     C_R   0.132913 0.574742 0.539046 0.247071
C10   C     C_R   0.026010 0.552945 0.544242 0.043939
C11   C     C_R   0.973887 0.458017 0.461864 0.140708
C12   C     C_R   0.867492 0.438086 0.462194 -0.171665
C13   C     C_R   0.862822 0.601737 0.628675 -0.201240
C14   C     C_R   0.969337 0.624079 0.627926 -0.134975
H1    H     H_    0.826401 0.367929 0.396986 0.151648
H2    H     H_    0.818575 0.659204 0.690280 0.158389
H3    H     H_    0.988564 0.312428 0.316017 0.167995
H4    H     H_    0.005697 0.698136 0.690908 0.200473
H5    H     H_    0.177652 0.341834 0.320696 0.224799
C15   C     C_R   0.520819 0.061053 0.625619 0.046111
C16   C     C_R   0.518710 0.128165 0.504340 -0.092434
C17   C     C_R   0.540708 0.066406 0.387118 -0.146297
H6    H     H_    0.550612 0.116729 0.294515 0.222529
C18   C     C_R   0.541888 0.936966 0.386131 -0.167799
H7    H     H_    0.549902 0.889851 0.292137 0.202949
C19   C     C_R   0.523676 0.870733 0.503619 -0.075032
C20   C     C_R   0.525594 0.933530 0.625749 0.026275
C21   C     C_3   0.458867 0.916997 0.738223 -0.367546
C22   C     C_3   0.450261 0.058639 0.736065 0.161156
H8    H     H_    0.383505 0.867405 0.706085 0.264277
H9    H     H_    0.504365 0.877469 0.831292 0.184933
C23   C     C_R   0.407736 0.494734 0.056368 0.063836
N1    N     N_R   0.499290 0.499140 0.142710 -0.153678
C24   C     C_R   0.589457 0.527072 0.083691 0.349663
C25   C     C_R   0.589471 0.522507 0.940666 -0.200553
H10   H     H_    0.661342 0.541595 0.896853 0.187510
N2    N     N_R   0.499290 0.499180 0.857070 -0.129158
C26   C     C_R   0.407813 0.494929 0.914647 0.208647
C27   C     C_3   0.322633 0.398516 0.893729 -0.576443
C28   C     C_3   0.322019 0.397563 0.047488 0.331733
H11   H     H_    0.249828 0.436134 0.835557 0.218191
H12   H     H_    0.349976 0.310437 0.853969 0.207197
N3    N     N_3   0.342404 0.099203 0.691952 -0.403234
H13   H     H_    0.299010 0.089810 0.774143 0.227310
H14   H     H_    0.342535 0.193621 0.664676 0.189286
N4    N     N_3   0.497357 0.117024 0.862100 -0.388158
H15   H     H_    0.571983 0.079642 0.891683 0.193364
H16   H     H_    0.509813 0.211814 0.842949 0.222819
N5    N     N_R   0.682313 0.572788 0.162425 0.221068
O9    O     O_R   0.679296 0.679974 0.222160 -0.392109
O10   O     O_R   0.773266 0.526477 0.145356 -0.415097
N6    N     N_3   0.223984 0.444433 0.089764 -0.428109
H17   H     H_    0.162509 0.384798 0.051389 0.204990
H18   H     H_    0.207107 0.532705 0.046334 0.202319
N7    N     N_R   0.354927 0.278097 0.112752 0.247869
O11   O     O_R   0.446462 0.232041 0.098604 -0.430061
O12   O     O_R   0.291148 0.213488 0.179396 -0.397376
N8    N     N_R   0.187215 0.676063 0.612073 0.194362
O13   O     O_R   0.233804 0.761906 0.546515 -0.411234
O14   O     O_R   0.200179 0.675124 0.744031 -0.436389

loop_
_geom_bond_atom_site_label_1
_geom_bond_atom_site_label_2
_geom_bond_distance
_ccdc_geom_bond_type
O4    Zn2   2.000198 S    
C1    C16   1.426214 S    
C13   C14   1.383025 A    
Zn1   N2    2.027501 S    
Zn1   O5    1.992363 S    
N6    H17   1.045978 S    
C18   H7    1.083191 S    
C14   H4    1.081433 S    
N3    H14   1.042583 S    
Zn1   O7    2.000197 S    
C16   C17   1.405785 A    
Zn2   N1    2.027687 S    
Zn2   O8    1.980115 S    
C27   H12   1.103067 S    
C17   H6    1.080412 S    
C27   H11   1.111332 S    
C5    C13   1.395325 A    
O2    C1    1.290489 A    
C21   H9    1.112092 S    
C9    N8    1.437138 S    
C8    H5    1.079896 S    
C23   C26   1.408301 A    
C25   H10   1.081674 S    
C10   C11   1.421164 A    
C21   H8    1.110232 S    
C22   N3    1.465293 S    
C23   C28   1.499232 S    
O3    Zn1   1.980115 S    
O4    C2    1.291192 A    
C6    C8    1.394539 A    
C19   C20   1.391945 A    
C28   N7    1.468025 S    
C20   C21   1.495333 S    
N4    H16   1.043664 S    
C15   C22   1.504294 S    
C7    C8    1.377483 A    
C18   C19   1.400615 A    
N7    O11   1.300135 A    
N1    C24   1.385742 A    
C6    C9    1.401447 A    
C15   C16   1.392525 A    
C28   N6    1.466692 S    
O7    C4    1.287633 A    
O2    Zn2   1.992363 S    
N5    O10   1.301171 A    
O3    C2    1.290757 A    
C23   N1    1.365991 A    
C22   N4    1.465920 S    
C24   N5    1.426321 S    
C2    C6    1.425957 S    
C7    H3    1.084424 S    
N2    C26   1.365148 A    
C10   C14   1.404438 A    
N5    O9    1.300931 A    
C21   C22   1.520181 S    
N4    H15   1.046695 S    
C3    C19   1.421110 S    
Zn2   O6    2.001836 S    
C27   C28   1.528706 S    
C25   N2    1.360060 A    
C13   H2    1.084156 S    
N8    O14   1.301263 A    
O5    C3    1.288366 A    
C4    C5    1.419410 S    
C26   C27   1.490936 S    
O1    Zn1   2.001838 S    
N6    H18   1.046864 S    
N7    O12   1.300886 A    
C11   C12   1.377049 A    
N3    H13   1.045807 S    
O6    C3    1.292431 A    
C5    C12   1.384662 A    
C7    C11   1.393483 A    
C24   C25   1.422634 A    
C9    C10   1.393181 A    
C15   C20   1.366272 A    
O8    C4    1.292633 A    
N8    O13   1.300862 A    
O1    C1    1.293473 A    
C12   H1    1.086478 S    
C17   C18   1.385205 A    
