data_mof_unit_28242.cif
_audit_creation_date              2013-03-05T15:55:05-0500
_audit_creation_method            fapswitch 2.2
_symmetry_space_group_name_H-M    P1
_symmetry_Int_Tables_number       1
_space_group_crystal_system       triclinic
_cell_length_a                    13.579244
_cell_length_b                    14.129231
_cell_length_c                    29.935208
_cell_angle_alpha                 97.305863
_cell_angle_beta                  90.65544
_cell_angle_gamma                 118.837366
_cell_volume                      4972.87738496

loop_
_atom_site_label
_atom_site_type_symbol
_atom_site_description
_atom_site_fract_x
_atom_site_fract_y
_atom_site_fract_z
_atom_type_partial_charge
O1    O     O_R   0.493980 0.188910 0.559650 -0.551334
O2    O     O_R   0.678640 0.153520 0.554450 -0.535329
C1    C     C_R   0.725081 0.101088 0.568128 0.797735
O3    O     O_R   0.698130 0.004030 0.549500 -0.539345
O4    O     O_R   0.481060 0.827210 0.535360 -0.539729
C2    C     C_R   0.380474 0.781549 0.548677 0.731599
O5    O     O_R   0.309260 0.811560 0.537660 -0.541875
O6    O     O_R   0.341620 0.023400 0.546290 -0.525228
C3    C     C_R   0.398090 0.117593 0.569836 0.798330
O7    O     O_R   0.493030 0.185890 0.461780 -0.550866
O8    O     O_R   0.677760 0.150720 0.463730 -0.538484
C4    C     C_R   0.719542 0.095199 0.442781 0.775596
O9    O     O_R   0.697180 0.001010 0.451640 -0.547815
O10   O     O_R   0.480180 0.824400 0.444640 -0.533142
C5    C     C_R   0.381954 0.784615 0.424592 0.794642
O11   O     O_R   0.308310 0.808540 0.439800 -0.548419
O12   O     O_R   0.340740 0.020600 0.455570 -0.535847
C6    C     C_R   0.394540 0.115232 0.443757 0.760512
Cr1   Cr    Cr6+3 0.583430 0.162610 0.509470 0.930970
Cr2   Cr    Cr6+3 0.584210 0.916680 0.495400 0.933367
Cr3   Cr    Cr6+3 0.332380 0.920740 0.495100 0.949685
O13   O     O_3   0.500010 0.000010 0.499990 -0.330438
H1    H     H_    0.243087 0.750869 0.829928 0.160418
H2    H     H_    0.177212 0.673614 0.670931 0.133031
H3    H     H_    0.189838 0.704704 0.592752 0.157026
C7    C     C_R   0.354288 0.714987 0.586480 -0.094503
C8    C     C_R   0.434931 0.694327 0.607841 0.090396
C9    C     C_R   0.428693 0.683126 0.654024 -0.153907
C10   C     C_R   0.339119 0.681004 0.677253 0.076442
C11   C     C_R   0.248902 0.678839 0.653607 -0.148598
C12   C     C_R   0.256221 0.695515 0.608571 -0.166927
C13   C     C_R   0.280087 0.704559 0.841617 -0.198852
C14   C     C_R   0.262597 0.674425 0.885140 0.378154
C15   C     C_R   0.374963 0.583499 0.870425 -0.218584
C16   C     C_R   0.393471 0.616062 0.827897 -0.143957
C17   C     C_R   0.343114 0.673344 0.812797 0.060766
C18   C     C_1   0.345163 0.687056 0.765944 -0.037478
C19   C     C_1   0.343239 0.687740 0.725701 -0.059865
C20   C     C_R   0.305672 0.607777 0.898862 -0.164594
H4    H     H_    0.442076 0.591086 0.805757 0.119904
H5    H     H_    0.409272 0.532982 0.879773 0.160685
H6    H     H_    0.495352 0.679307 0.672368 0.116232
C21   C     C_3   0.221352 0.104773 0.723197 0.439478
C22   C     C_3   0.244094 0.044781 0.758141 -0.184333
H7    H     H_    0.181832 0.965919 0.768316 0.161645
H8    H     H_    0.379986 0.003557 0.732995 0.152512
C23   C     C_1   0.295575 0.196825 0.877382 -0.135330
C24   C     C_1   0.367857 0.129068 0.614936 -0.132159
C25   C     C_3   0.283244 0.213418 0.755150 0.017394
C26   C     C_3   0.308456 0.154753 0.789732 0.086637
C27   C     C_3   0.394816 0.237305 0.734419 -0.205311
C28   C     C_3   0.330812 0.128421 0.702106 0.057918
C29   C     C_3   0.419467 0.177710 0.769329 -0.129595
C30   C     C_3   0.355552 0.067997 0.736745 -0.224716
C31   C     C_1   0.301380 0.174010 0.838009 -0.027946
C32   C     C_1   0.347858 0.129686 0.653970 0.009987
H9    H     H_    0.501693 0.208260 0.788921 0.122622
H10   H     H_    0.457130 0.316802 0.724715 0.131624
C33   C     C_3   0.884718 0.292870 0.735187 -0.137277
C34   C     C_3   0.785117 0.241617 0.765365 -0.180760
H11   H     H_    0.739155 0.282266 0.781420 0.121300
H12   H     H_    0.922334 0.376324 0.725989 0.129421
C35   C     C_1   0.895825 0.207421 0.878265 -0.142259
C36   C     C_1   0.785724 0.141882 0.612159 -0.169277
C37   C     C_3   0.949224 0.249173 0.761558 -0.162597
C38   C     C_3   0.849241 0.197034 0.790551 0.116268
C39   C     C_3   0.896566 0.141638 0.727471 -0.167577
C40   C     C_3   0.832172 0.185476 0.701603 0.119761
C41   C     C_3   0.796539 0.090766 0.756887 0.088762
C42   C     C_3   0.732118 0.134355 0.731121 0.110307
C43   C     C_1   0.868323 0.201596 0.839213 -0.052003
C44   C     C_1   0.817601 0.168608 0.651892 -0.034297
H13   H     H_    0.941747 0.100627 0.711521 0.202287
H14   H     H_    0.036601 0.301029 0.776596 0.132712
C45   C     C_3   0.267502 0.583313 0.258615 -0.113089
C46   C     C_3   0.246469 0.653718 0.228097 -0.198653
H15   H     H_    0.162622 0.636543 0.213870 0.138711
H16   H     H_    0.201404 0.508721 0.270476 0.119619
H17   H     H_    0.319330 0.830243 0.271921 0.133454
C47   C     C_1   0.311170 0.608449 0.110890 -0.122524
C48   C     C_1   0.365653 0.736528 0.378417 -0.161425
C49   C     C_3   0.364797 0.589616 0.230167 -0.205782
C50   C     C_3   0.343670 0.660201 0.200177 0.063829
C51   C     C_3   0.450749 0.695364 0.261750 -0.200050
C52   C     C_3   0.352867 0.688545 0.289215 0.113004
C53   C     C_3   0.427079 0.763331 0.231415 0.452618
C54   C     C_3   0.331757 0.759572 0.259525 -0.189183
C55   C     C_1   0.330959 0.637605 0.150950 0.038316
C56   C     C_1   0.357879 0.709162 0.338339 -0.031959
H18   H     H_    0.534990 0.713515 0.275917 0.135630
H19   H     H_    0.378215 0.519640 0.217593 0.134265
H20   H     H_    0.195542 0.010740 0.156740 0.162209
H21   H     H_    0.243247 0.973870 0.298402 0.119476
H22   H     H_    0.272766 0.956175 0.375998 0.150787
C57   C     C_R   0.352819 0.130630 0.401259 -0.064766
C58   C     C_R   0.381046 0.234790 0.389813 0.080009
C59   C     C_R   0.367602 0.243003 0.344088 -0.149150
C60   C     C_R   0.320334 0.149458 0.311435 0.103163
C61   C     C_R   0.280565 0.046495 0.323709 -0.134416
C62   C     C_R   0.296765 0.036996 0.368242 -0.184997
C63   C     C_R   0.252945 0.088504 0.146462 -0.185697
C64   C     C_R   0.248450 0.103450 0.101233 0.373785
C65   C     C_R   0.403615 0.289882 0.121582 -0.209256
C66   C     C_R   0.408136 0.273120 0.165980 -0.135750
C67   C     C_R   0.329641 0.174524 0.178666 0.066442
C68   C     C_1   0.324367 0.164692 0.225311 -0.012310
C69   C     C_1   0.321105 0.158549 0.264732 -0.040437
C70   C     C_R   0.319505 0.208263 0.089414 -0.159566
H23   H     H_    0.468811 0.339297 0.190909 0.124984
H24   H     H_    0.460411 0.370317 0.113521 0.166439
H25   H     H_    0.396286 0.322383 0.333748 0.109210
H26   H     H_    0.940063 0.386473 0.110102 0.147796
H27   H     H_    0.894779 0.370508 0.188547 0.115526
H28   H     H_    0.823090 0.324918 0.335179 0.113299
H29   H     H_    0.776053 0.286902 0.411797 0.135801
C71   C     C_R   0.777939 0.132669 0.402247 -0.048371
C72   C     C_R   0.800919 0.062188 0.372204 -0.163288
C73   C     C_R   0.827417 0.084312 0.328571 -0.090152
C74   C     C_R   0.832102 0.177241 0.314909 0.130863
C75   C     C_R   0.819034 0.252551 0.345652 -0.141212
C76   C     C_R   0.792561 0.230708 0.389309 -0.159482
C77   C     C_R   0.880928 0.298462 0.165706 -0.147296
C78   C     C_R   0.906148 0.307081 0.120929 -0.156850
C79   C     C_R   0.853642 0.114818 0.107267 -0.142821
C80   C     C_R   0.827963 0.106354 0.151971 -0.069878
C81   C     C_R   0.845970 0.199141 0.181499 0.118493
C82   C     C_1   0.840601 0.194719 0.228738 -0.010180
C83   C     C_1   0.838212 0.188819 0.268282 -0.006876
C84   C     C_R   0.897888 0.216490 0.091955 -0.055156
H30   H     H_    0.790608 0.986259 0.381213 0.139568
H31   H     H_    0.800318 0.029058 0.164128 0.157012
H32   H     H_    0.845797 0.043596 0.085618 0.163915
H33   H     H_    0.837871 0.025903 0.304770 0.124636
O14   O     O_R   0.969650 0.150960 0.933380 -0.536795
O15   O     O_R   0.187740 0.180870 0.937580 -0.519796
C85   C     C_R   0.283752 0.232823 0.922393 0.820744
O16   O     O_R   0.358510 0.327410 0.940870 -0.550830
O17   O     O_R   0.324180 0.507870 0.953930 -0.545827
C86   C     C_R   0.267005 0.548971 0.938399 0.839192
O18   O     O_R   0.170560 0.527890 0.952050 -0.504849
O19   O     O_R   0.987620 0.318470 0.945550 -0.531810
C87   C     C_R   0.945538 0.222711 0.922847 0.792511
O20   O     O_R   0.976400 0.159270 0.031530 -0.535089
O21   O     O_R   0.194000 0.188570 0.028560 -0.503180
C88   C     C_R   0.293875 0.242487 0.048396 0.833639
O22   O     O_R   0.365260 0.335720 0.039020 -0.554437
O23   O     O_R   0.330440 0.515580 0.044910 -0.538563
C89   C     C_R   0.275566 0.558493 0.064956 0.822675
O24   O     O_R   0.177310 0.536200 0.050190 -0.528903
O25   O     O_R   0.993870 0.326170 0.036530 -0.541851
C90   C     C_R   0.954014 0.232686 0.049717 0.761762
Cr4   Cr    Cr6+3 0.086810 0.177030 0.983130 1.037899
Cr5   Cr    Cr6+3 0.337180 0.419300 0.994610 0.957696
Cr6   Cr    Cr6+3 0.084840 0.422330 0.995830 1.007253
O26   O     O_3   0.169610 0.339550 0.991190 -0.360844
N1    N     N_R   0.201926 0.712226 0.914691 0.113974
O27   O     O_R   0.124425 0.729961 0.898015 -0.356600
O28   O     O_R   0.235293 0.744642 0.957490 -0.335780
N2    N     N_R   0.112654 0.058783 0.697190 0.040244
O29   O     O_R   0.027316 0.970600 0.707077 -0.405143
O30   O     O_R   0.105912 0.092710 0.659460 -0.409456
C91   C     C_3   0.248502 0.300695 0.763702 -0.385035
C92   C     C_3   0.212449 0.320962 0.718580 -0.272662
C93   C     C_3   0.229013 0.435224 0.721573 -0.776509
H34   H     H_    0.186741 0.453419 0.750287 0.238555
H35   H     H_    0.321011 0.492836 0.726126 0.233572
H36   H     H_    0.193805 0.444152 0.689700 0.232690
H37   H     H_    0.262786 0.310726 0.691197 0.218670
H38   H     H_    0.122588 0.261756 0.708548 0.234461
H39   H     H_    0.178824 0.273121 0.786129 0.166053
H40   H     H_    0.321487 0.376261 0.781799 0.188782
C94   C     C_3   0.605373 0.074820 0.717781 -0.397226
C95   C     C_3   0.577464 0.028348 0.667700 -0.322444
C96   C     C_3   0.454512 0.948403 0.656262 -0.753714
H41   H     H_    0.426990 0.884116 0.677777 0.243257
H42   H     H_    0.402359 0.987472 0.660471 0.233766
H43   H     H_    0.443358 0.916293 0.620296 0.230465
H44   H     H_    0.597980 0.096162 0.648062 0.209836
H45   H     H_    0.625160 0.984824 0.657292 0.206301
H46   H     H_    0.562776 0.009462 0.739016 0.181237
H47   H     H_    0.574947 0.134711 0.724817 0.185604
C97   C     C_3   0.750068 0.977913 0.771474 -0.357840
C98   C     C_3   0.714230 0.886747 0.731035 -0.299881
C99   C     C_3   0.678894 0.776998 0.746764 -0.734838
H48   H     H_    0.748511 0.781831 0.768496 0.247720
H49   H     H_    0.603082 0.752979 0.766026 0.225329
H50   H     H_    0.658767 0.713210 0.717041 0.208130
H51   H     H_    0.642125 0.880248 0.710485 0.195402
H52   H     H_    0.785369 0.905290 0.709405 0.236891
H53   H     H_    0.817193 0.978963 0.793476 0.200245
H54   H     H_    0.676966 0.962307 0.791640 0.174543
N3    N     N_R   0.514930 0.862814 0.217301 0.077517
O31   O     O_R   0.580605 0.945644 0.247563 -0.388502
O32   O     O_R   0.528440 0.869520 0.174668 -0.375363
N4    N     N_R   0.171592 0.012966 0.068220 0.111481
O33   O     O_R   0.201799 0.999164 0.027868 -0.334413
O34   O     O_R   0.078193 0.936085 0.080075 -0.364073
C100  C     C_3   0.425010 0.337257 0.424594 -0.366719
C101  C     C_3   0.345722 0.386544 0.424987 -0.311784
C102  C     C_3   0.386613 0.486495 0.461411 -0.771471
H55   H     H_    0.387248 0.462986 0.495362 0.232870
H56   H     H_    0.472805 0.550121 0.455816 0.227279
H57   H     H_    0.328952 0.521383 0.460185 0.213795
H58   H     H_    0.340754 0.411892 0.391768 0.195583
H59   H     H_    0.259528 0.324260 0.431457 0.202023
H60   H     H_    0.432614 0.320040 0.459181 0.191396
H61   H     H_    0.510332 0.398078 0.416617 0.179339
C103  C     C_3   0.529443 0.687533 0.583552 -0.344092
C104  C     C_3   0.532786 0.582075 0.588651 -0.334568
C105  C     C_3   0.621514 0.571807 0.560751 -0.748621
H62   H     H_    0.602587 0.569431 0.524322 0.224931
H63   H     H_    0.706592 0.641988 0.572132 0.239803
H64   H     H_    0.621748 0.495036 0.565139 0.225445
H65   H     H_    0.553649 0.581272 0.624517 0.196755
H66   H     H_    0.448806 0.509921 0.577395 0.200677
H67   H     H_    0.518006 0.686860 0.546802 0.195524
H68   H     H_    0.611272 0.759872 0.597322 0.188133

loop_
_geom_bond_atom_site_label_1
_geom_bond_atom_site_label_2
_geom_bond_distance
_ccdc_geom_bond_type
H3    C12   1.082781 S    
C33   C34   1.555421 S    
C61   C62   1.382352 A    
C81   C82   1.424560 S    
H29   C76   1.083059 S    
C23   C85   1.417535 S    
C100  H60   1.108005 S    
C72   C73   1.392608 A    
C57   C58   1.420325 A    
O24   Cr6   2.037606 S    
C64   N4    1.438168 S    
H17   C54   1.110396 S    
C88   O22   1.273650 A    
C14   N1    1.437893 S    
O15   C85   1.273015 A    
C5    C48   1.424879 S    
O4    Cr2   1.925039 S    
C1    C36   1.439345 S    
C22   H7    1.110226 S    
C58   C100  1.518258 S    
O8    Cr1   1.932105 S    
C7    C8    1.425873 A    
C104  H66   1.111612 S    
C80   C81   1.396770 A    
C65   H24   1.083119 S    
O4    C2    1.291732 A    
C13   C17   1.398423 A    
C9    C10   1.397637 A    
C51   C53   1.537205 S    
C84   C90   1.469451 S    
C21   N2    1.458385 S    
C105  H62   1.110109 S    
C11   C12   1.394360 A    
C59   H25   1.084019 S    
C4    C71   1.470309 S    
C21   C28   1.521722 S    
C38   C41   1.531102 S    
C68   C69   1.193989 T    
C95   H45   1.111228 S    
O15   Cr4   1.931439 S    
C101  H59   1.112127 S    
C99   H48   1.110817 S    
C79   H32   1.083116 S    
C15   C16   1.392982 A    
C9    H6    1.080321 S    
C25   C26   1.536163 S    
C42   C94   1.526928 S    
C73   C74   1.397108 A    
C8    C103  1.519028 S    
C96   H41   1.098332 S    
C94   H47   1.106824 S    
C45   C52   1.536301 S    
C91   H40   1.111544 S    
O23   C89   1.279248 A    
C102  H55   1.109826 S    
C37   C39   1.549848 S    
C10   C19   1.439955 S    
C17   C18   1.438839 S    
N2    O30   1.300579 A    
C64   C70   1.418428 A    
C100  C101  1.538109 S    
C39   H13   1.104276 S    
N3    O31   1.300279 A    
H22   C62   1.083646 S    
Cr5   O26   1.987438 S    
C10   C11   1.393300 A    
H21   C61   1.084226 S    
C1    O3    1.281489 A    
C41   C97   1.531067 S    
C48   C56   1.199930 T    
C74   C83   1.424605 S    
C94   H46   1.110793 S    
O20   C90   1.276391 A    
C50   C55   1.457622 S    
O2    Cr1   1.914519 S    
O21   Cr4   1.914184 S    
C34   C38   1.535673 S    
C101  C102  1.526340 S    
C103  H67   1.107481 S    
Cr3   O13   1.987129 S    
C78   C84   1.407172 A    
C6    C57   1.469525 S    
C93   H34   1.109901 S    
C15   H5    1.083229 S    
C51   H18   1.110149 S    
O23   Cr5   1.930936 S    
C98   H52   1.111045 S    
C46   C50   1.541799 S    
C66   C67   1.390129 A    
C28   C30   1.552683 S    
C59   C60   1.397536 A    
C96   H42   1.087944 S    
C52   C54   1.541997 S    
C63   C67   1.396126 A    
C20   C86   1.486710 S    
O1    Cr1   2.050640 S    
C26   C29   1.533093 S    
C71   C76   1.407527 A    
H27   C77   1.083733 S    
C15   C20   1.408219 A    
C63   C64   1.401701 A    
O10   Cr2   1.916963 S    
Cr1   O13   1.989521 S    
O1    C3    1.274907 A    
C46   H15   1.110282 S    
H26   C78   1.083047 S    
C104  C105  1.526797 S    
C52   C56   1.456550 S    
C57   C62   1.409022 A    
C103  C104  1.539004 S    
N4    O33   1.301547 A    
C25   C27   1.541423 S    
C95   C96   1.500002 S    
C49   C50   1.542960 S    
C5    O11   1.272393 A    
O12   Cr3   1.917585 S    
C49   H19   1.110458 S    
C39   C40   1.541701 S    
C34   H11   1.110329 S    
C27   C29   1.549495 S    
C16   C17   1.395278 A    
N3    O32   1.300292 A    
C77   C81   1.396228 A    
C45   C46   1.550809 S    
C98   C99   1.526302 S    
C18   C19   1.206040 T    
C33   C40   1.540620 S    
O14   C87   1.278093 A    
C80   H31   1.083901 S    
N2    O29   1.300666 A    
C91   H39   1.105995 S    
Cr4   O26   1.989375 S    
C34   C42   1.549670 S    
O7    Cr1   2.030275 S    
C40   C44   1.472401 S    
O14   Cr4   2.031181 S    
C58   C59   1.405524 A    
H8    C30   1.103604 S    
O10   C5    1.275881 A    
O12   C6    1.276881 A    
O6    C3    1.273048 A    
O16   Cr5   2.049329 S    
C45   C49   1.552498 S    
C27   H10   1.110760 S    
C14   C20   1.421923 A    
C51   C52   1.540635 S    
C74   C75   1.395535 A    
C72   H30   1.082957 S    
C96   H43   1.092582 S    
Cr6   O26   1.993357 S    
C25   C91   1.514086 S    
C65   C70   1.408367 A    
C73   H33   1.083811 S    
C38   C43   1.464464 S    
H20   C63   1.083880 S    
O17   Cr5   1.917277 S    
C40   C42   1.546471 S    
O20   Cr4   2.046771 S    
Cr2   O13   1.993359 S    
C37   C38   1.537551 S    
C49   C51   1.556215 S    
C21   C22   1.542310 S    
C101  H58   1.110867 S    
N4    O34   1.301463 A    
C97   H54   1.111221 S    
C82   C83   1.196930 T    
C65   C66   1.385092 A    
C75   C76   1.392373 A    
C23   C31   1.195546 T    
C70   C88   1.471830 S    
C22   C26   1.539436 S    
C103  H68   1.111793 S    
C24   C32   1.202543 T    
N1    O27   1.301436 A    
C33   H12   1.109918 S    
C29   H9    1.110277 S    
O9    Cr2   2.041751 S    
C100  H61   1.111738 S    
C53   C54   1.535027 S    
C7    C12   1.413981 A    
C93   H36   1.110516 S    
C21   C25   1.530154 S    
C104  H65   1.110107 S    
C35   C43   1.203657 T    
O21   C88   1.281470 A    
O6    Cr3   1.929414 S    
C46   C54   1.552295 S    
C86   O18   1.279773 A    
O11   Cr3   2.044686 S    
C29   C30   1.551111 S    
C2    O5    1.283570 A    
C91   C92   1.537737 S    
C105  H64   1.110591 S    
C67   C68   1.419916 S    
C105  H63   1.110863 S    
C26   C31   1.449218 S    
O25   C90   1.281149 A    
C99   H50   1.109761 S    
C13   C14   1.409163 A    
C93   H35   1.108504 S    
C16   H4    1.083794 S    
C77   C78   1.393059 A    
C92   H37   1.112715 S    
C27   C28   1.539582 S    
C47   C55   1.200098 T    
O5    Cr3   2.035505 S    
O19   C87   1.276893 A    
H1    C13   1.083681 S    
C2    C7    1.499612 S    
O22   Cr5   2.032094 S    
C28   C32   1.463030 S    
C95   H44   1.109411 S    
O7    C6    1.278663 A    
C102  H57   1.110714 S    
C71   C72   1.405823 A    
N1    O28   1.301490 A    
C35   C87   1.431372 S    
C99   H49   1.110746 S    
C79   C84   1.405674 A    
O2    C1    1.279101 A    
C89   O24   1.272991 A    
C36   C44   1.208721 T    
C41   C42   1.537718 S    
C92   H38   1.105436 S    
C45   H16   1.110126 S    
H2    C11   1.083533 S    
C53   N3    1.456853 S    
C92   C93   1.509116 S    
O17   C86   1.285115 A    
C37   H14   1.101168 S    
C94   C95   1.522795 S    
O3    Cr2   2.032641 S    
C22   C30   1.550900 S    
C47   C89   1.425292 S    
C50   C53   1.522406 S    
H28   C75   1.083702 S    
C4    O9    1.278831 A    
C3    C24   1.427858 S    
C102  H56   1.110809 S    
C60   C61   1.387687 A    
O25   Cr6   1.921657 S    
C8    C9    1.410283 A    
C66   H23   1.084127 S    
C85   O16   1.270023 A    
C97   H53   1.111579 S    
C39   C41   1.543882 S    
O19   Cr6   1.919823 S    
C98   H51   1.109380 S    
C33   C37   1.549659 S    
C97   C98   1.531898 S    
O8    C4    1.281773 A    
O18   Cr6   2.038216 S    
C79   C80   1.392070 A    
C60   C69   1.419820 S    
