data_mof_unit_58440.cif
_audit_creation_date              2012-12-10T17:15:43-0500
_audit_creation_method            fapswitch 2.2
_symmetry_space_group_name_H-M    P1
_symmetry_Int_Tables_number       1
_space_group_crystal_system       triclinic
_cell_length_a                    17.338578
_cell_length_b                    13.001318
_cell_length_c                    11.642324
_cell_angle_alpha                 99.917863
_cell_angle_beta                  89.825865
_cell_angle_gamma                 90.777457
_cell_volume                      2585.00402273

loop_
_atom_site_label
_atom_site_type_symbol
_atom_type_description
_atom_site_fract_x
_atom_site_fract_y
_atom_site_fract_z
_atom_type_partial_charge
C1    C     C_R   0.498644 0.299010 0.478670 0.842380
C2    C     C_R   0.501205 0.700971 0.521334 0.837131
C3    C     C_R   0.501285 0.814334 0.533931 -0.131775
C4    C     C_R   0.496643 0.185622 0.466302 -0.132617
C5    C     C_R   0.485588 0.014693 0.344276 0.473111
C6    C     C_R   0.508608 0.985296 0.656648 0.473608
C7    C     C_R   0.489363 0.123367 0.355936 -0.283430
C8    C     C_R   0.510527 0.876539 0.643935 -0.285430
C9    C     C_R   0.502339 0.139546 0.565718 -0.238930
C10   C     C_R   0.492648 0.860408 0.435011 -0.245150
C11   C     C_R   0.501054 0.031429 0.556325 0.014790
C12   C     C_R   0.492830 0.968519 0.444604 0.016175
C13   C     C_R   0.422073 0.409977 0.030428 -0.341685
C14   C     C_R   0.576971 0.591478 0.969891 -0.330165
C15   C     C_R   0.430294 0.417338 0.151679 0.085762
C16   C     C_R   0.569205 0.583410 0.848474 0.085317
C17   C     C_R   0.533857 0.538446 0.153326 0.027328
C18   C     C_R   0.465778 0.462064 0.846772 0.022914
C19   C     C_R   0.527957 0.533165 0.031193 0.068347
C20   C     C_R   0.471365 0.467805 0.969005 0.070462
C21   C     C_R   0.350794 0.502694 0.515644 0.817227
C22   C     C_R   0.649316 0.497980 0.484599 0.828794
C23   C     C_R   0.267163 0.511357 0.525851 -0.083797
C24   C     C_R   0.733391 0.494078 0.476736 -0.100415
C25   C     C_R   0.223735 0.527024 0.429440 -0.203665
C26   C     C_R   0.776534 0.494323 0.578346 -0.201171
C27   C     C_R   0.144470 0.536022 0.438577 -0.235038
C28   C     C_R   0.856138 0.490010 0.573161 -0.207044
C29   C     C_R   0.107225 0.529043 0.544183 0.105481
C30   C     C_R   0.894491 0.487821 0.466551 0.075762
C31   C     C_R   0.150344 0.519144 0.643887 0.478482
C32   C     C_R   0.851578 0.486746 0.363595 0.483168
C33   C     C_R   0.230589 0.507198 0.632519 -0.302208
C34   C     C_R   0.771085 0.488175 0.369131 -0.262099
C35   C     C_2   0.022910 0.532324 0.550596 -0.191821
C36   C     C_2   0.979028 0.485156 0.461688 -0.220632
Cu1   Cu    Cu3+1 0.505800 0.507690 0.615350 0.938831
Cu2   Cu    Cu3+1 0.494200 0.492310 0.384650 0.938093
H1    H     H_    0.250929 0.532551 0.346772 0.164416
H2    H     H_    0.748846 0.496687 0.662282 0.168973
H3    H     H_    0.607247 0.628537 0.801909 0.125607
H4    H     H_    0.392118 0.372386 0.198242 0.122409
H5    H     H_    0.377430 0.359759 0.985294 0.146647
H6    H     H_    0.621011 0.642722 0.015286 0.143312
H7    H     H_    0.738386 0.485393 0.289498 0.164331
H8    H     H_    0.264379 0.493458 0.706166 0.155418
H9    H     H_    0.005708 0.445460 0.382009 0.186115
H10   H     H_    0.997042 0.572363 0.630667 0.172990
H11   H     H_    0.887283 0.486704 0.652815 0.162015
H12   H     H_    0.112281 0.548757 0.362791 0.146902
H13   H     H_    0.486244 0.811680 0.350129 0.200494
H14   H     H_    0.508401 0.188265 0.650670 0.202944
H15   H     H_    0.520285 0.840994 0.720146 0.163958
H16   H     H_    0.487181 0.158686 0.278251 0.164846
H17   H     H_    0.422734 0.411579 0.797883 0.113224
H18   H     H_    0.576923 0.588873 0.202218 0.120793
N1    N     N_R   0.514530 0.519260 0.788680 -0.180776
N2    N     N_R   0.485470 0.480740 0.211320 -0.181763
O1    O     O_R   0.504120 0.354440 0.581590 -0.590721
O2    O     O_R   0.495880 0.645560 0.418410 -0.593817
O3    O     O_R   0.494320 0.341440 0.386760 -0.587892
O4    O     O_R   0.505680 0.658560 0.613240 -0.590743
O5    O     O_R   0.391870 0.507230 0.608700 -0.593536
O6    O     O_R   0.608130 0.492770 0.391300 -0.590232
O7    O     O_R   0.382070 0.494240 0.413880 -0.596320
O8    O     O_R   0.617930 0.505760 0.586120 -0.592082
O9    O     O_3   0.111775 0.508877 0.746436 -0.622881
C37   C     C_3   0.145424 0.571446 0.846028 0.038110
H19   H     H_    0.098941 0.619229 0.893602 0.158991
H20   H     H_    0.190154 0.628312 0.825868 0.127489
C38   C     C_3   0.178254 0.501498 0.926881 -0.324035
H21   H     H_    0.130666 0.454320 0.956701 0.227826
H22   H     H_    0.220718 0.446817 0.879079 0.209774
C39   C     C_3   0.217724 0.565753 0.033167 -0.940362
H23   H     H_    0.266822 0.611621 0.005523 0.265525
H24   H     H_    0.240271 0.512772 0.090132 0.255840
H25   H     H_    0.176006 0.619710 0.084034 0.250736
O10   O     O_3   0.887563 0.478288 0.256191 -0.621083
C40   C     C_3   0.911867 0.578284 0.236705 0.036629
H26   H     H_    0.966391 0.568124 0.185842 0.168343
H27   H     H_    0.925454 0.634307 0.318403 0.128919
C41   C     C_3   0.851437 0.624478 0.165149 -0.349511
H28   H     H_    0.837734 0.567557 0.084881 0.233292
H29   H     H_    0.797707 0.640159 0.217045 0.206887
C42   C     C_3   0.880346 0.726303 0.130718 -0.905625
H30   H     H_    0.893481 0.784887 0.209769 0.259174
H31   H     H_    0.835165 0.757998 0.079641 0.258481
H32   H     H_    0.933116 0.712426 0.076183 0.251788
O11   O     O_3   0.484508 0.953384 0.234249 -0.621250
C43   C     C_3   0.412609 0.960699 0.178964 0.031593
H33   H     H_    0.423599 0.952357 0.083772 0.167672
H34   H     H_    0.383708 0.037319 0.205312 0.124506
C44   C     C_3   0.358593 0.871738 0.200397 -0.346764
H35   H     H_    0.387783 0.795704 0.173746 0.228901
H36   H     H_    0.344740 0.881094 0.294870 0.211334
C45   C     C_3   0.283739 0.870904 0.131617 -0.921865
H37   H     H_    0.253374 0.946121 0.156959 0.259050
H38   H     H_    0.245448 0.806698 0.150443 0.258052
H39   H     H_    0.295975 0.858118 0.036515 0.251321
O12   O     O_3   0.524221 0.046707 0.764021 -0.615312
C46   C     C_3   0.463749 0.038591 0.844173 0.050181
H40   H     H_    0.489319 0.053115 0.932978 0.179402
H41   H     H_    0.435900 0.959715 0.833152 0.119813
C47   C     C_3   0.402931 0.121691 0.837526 -0.363933
H42   H     H_    0.431406 0.199814 0.847308 0.224416
H43   H     H_    0.374099 0.105380 0.751052 0.211106
C48   C     C_3   0.342261 0.123004 0.933037 -0.939330
H44   H     H_    0.313283 0.045392 0.925477 0.259630
H45   H     H_    0.298143 0.182300 0.924376 0.255919
H46   H     H_    0.369451 0.143463 0.020431 0.247646

loop_
_geom_bond_atom_site_label_1
_geom_bond_atom_site_label_2
_ccdc_geom_bond_type
C44   H35   S    
C27   C29   A    
C19   C20   A    
C47   H43   S    
Cu1   O4    S    
C42   H30   S    
C31   O9    S    
C46   H40   S    
C39   H24   S    
C24   C26   A    
C1    O1    A    
C2    O2    A    
C35   H10   S    
C45   H39   S    
C36   H9    S    
C22   O8    A    
C17   C19   A    
Cu2   N2    S    
C35   C36   D    
C37   H19   S    
C23   C33   A    
C39   H25   S    
C45   H38   S    
C48   H44   S    
C31   C33   A    
C18   C20   A    
C27   H12   S    
C17   N2    A    
Cu2   O3    S    
C44   H36   S    
C45   H37   S    
C33   H8    S    
C48   H45   S    
C9    H14   S    
C4    C7    A    
C10   H13   S    
C47   H42   S    
Cu1   O5    S    
Cu2   O6    S    
C42   H31   S    
C39   H23   S    
O9    C37   S    
C5    C12   A    
C3    C8    A    
C6    C11   A    
C5    C7    A    
O10   C40   S    
C6    C8    A    
C32   O10   S    
C24   C34   A    
C32   C34   A    
Cu1   Cu2   S    
C38   C39   S    
C28   H11   S    
C18   N1    A    
C43   H34   S    
Cu2   O7    S    
Cu1   O8    S    
C34   H7    S    
C9    C11   A    
C17   H18   S    
Cu1   O1    S    
C10   C12   A    
C18   H17   S    
Cu2   O2    S    
C37   H20   S    
C44   C45   S    
C41   H29   S    
C13   C15   A    
C15   N2    A    
C14   C16   A    
C25   C27   A    
C13   H5    S    
C43   C44   S    
C14   H6    S    
C42   H32   S    
C13   C20   A    
C21   O7    A    
C26   C28   A    
C14   C19   A    
C15   H4    S    
C1    O3    A    
C8    H15   S    
C40   C41   S    
C11   C12   A    
C46   C47   S    
C41   C42   S    
C29   C35   S    
C40   H27   S    
C30   C36   S    
C1    C4    S    
C21   C23   S    
C2    C3    S    
C4    C9    A    
C38   H21   S    
C29   C31   A    
C3    C10   A    
C25   H1    S    
C30   C32   A    
C26   H2    S    
C43   H33   S    
C37   C38   S    
C28   C30   A    
O12   C46   S    
C48   H46   S    
C22   C24   S    
C16   N1    A    
C23   C25   A    
C5    O11   S    
C21   O5    A    
C22   O6    A    
C40   H26   S    
C46   H41   S    
C41   H28   S    
C38   H22   S    
C7    H16   S    
O11   C43   S    
C16   H3    S    
C47   C48   S    
Cu1   N1    S    
C2    O4    A    
C6    O12   S    
