data_mof_unit_59602.cif
_audit_creation_date              2012-12-10T17:18:54-0500
_audit_creation_method            fapswitch 2.2
_symmetry_space_group_name_H-M    P1
_symmetry_Int_Tables_number       1
_space_group_crystal_system       triclinic
_cell_length_a                    9.590421
_cell_length_b                    10.811496
_cell_length_c                    13.360166
_cell_angle_alpha                 92.334848
_cell_angle_beta                  73.003702
_cell_angle_gamma                 90.024431
_cell_volume                      1323.57377671

loop_
_atom_site_label
_atom_site_type_symbol
_atom_type_description
_atom_site_fract_x
_atom_site_fract_y
_atom_site_fract_z
_atom_type_partial_charge
C1    C     C_R   0.503027 0.737121 0.491061 0.853819
C2    C     C_R   0.445597 0.426615 0.971638 0.010962
C3    C     C_R   0.490664 0.421262 0.860595 0.044079
C4    C     C_R   0.551946 0.447303 0.025237 0.065709
C5    C     C_R   0.700943 0.452651 0.967098 0.124519
C6    C     C_R   0.744218 0.419777 0.860542 -0.358267
C7    C     C_R   0.639707 0.394309 0.808417 0.415490
C8    C     C_R   0.514612 0.468208 0.134227 -0.224690
C9    C     C_R   0.767466 0.501742 0.125580 -0.201342
C10   C     C_R   0.383879 0.441143 0.807285 -0.080710
C11   C     C_R   0.269935 0.887981 0.434814 0.433395
C12   C     C_R   0.423962 0.481490 0.697698 0.839718
C13   C     C_R   0.132738 0.946993 0.459510 -0.303908
C14   C     C_R   0.104181 0.053480 0.524378 -0.284420
C15   C     C_R   0.216999 0.111397 0.555435 0.445080
C16   C     C_R   0.360855 0.061383 0.517794 -0.019162
C17   C     C_R   0.378577 0.938288 0.477154 -0.014633
C18   C     C_R   0.504364 0.871744 0.481698 -0.069553
C19   C     C_R   0.624511 0.936371 0.495414 -0.228704
C20   C     C_R   0.619331 0.063887 0.507439 -0.203175
C21   C     C_R   0.488906 0.128192 0.517526 -0.051094
C22   C     C_R   0.911773 0.334846 0.361669 -0.157344
C23   C     C_R   0.495732 0.262795 0.508580 0.831728
C24   C     C_R   0.010738 0.252468 0.295283 -0.219822
C25   C     C_R   0.154073 0.251341 0.295965 -0.221840
C26   C     C_R   0.199507 0.333066 0.362581 -0.147328
C27   C     C_R   0.102148 0.418056 0.432460 0.209147
C28   C     C_R   0.952614 0.418489 0.432238 0.194767
C29   C     C_R   0.899866 0.577527 0.564538 -0.072246
C30   C     C_R   0.047847 0.577601 0.564420 -0.072014
C31   C     C_R   0.577791 0.499560 0.299759 0.784622
C32   C     C_R   0.806029 0.485048 0.016997 -0.172931
C33   C     C_R   0.621581 0.490865 0.184888 -0.040684
C34   C     C_R   0.236130 0.426547 0.861949 -0.174854
C35   C     C_R   0.194801 0.403237 0.968234 -0.152185
C36   C     C_R   0.296376 0.409900 0.023881 -0.158835
Cu1   Cu    Cu3+1 0.359340 0.500010 0.500010 0.970014
Cu2   Cu    Cu3+1 0.640660 0.499990 0.499990 0.949288
H1    H     H_    0.851383 0.522725 0.162915 0.156145
H2    H     H_    0.046784 0.908872 0.430502 0.150976
H3    H     H_    0.994681 0.092189 0.548803 0.152456
H4    H     H_    0.717599 0.111913 0.509782 0.174643
H5    H     H_    0.823130 0.641053 0.617472 0.143614
H6    H     H_    0.805080 0.328855 0.353840 0.198826
H7    H     H_    0.975808 0.189395 0.242519 0.157543
H8    H     H_    0.231329 0.187368 0.243742 0.160778
H9    H     H_    0.312313 0.325357 0.355158 0.190697
H10   H     H_    0.859265 0.409220 0.818787 0.138460
H11   H     H_    0.081734 0.641294 0.617142 0.141641
H12   H     H_    0.917726 0.497686 0.971233 0.130141
H13   H     H_    0.402513 0.467778 0.181386 0.154580
H14   H     H_    0.152642 0.431998 0.822434 0.156513
H15   H     H_    0.255428 0.397507 0.106924 0.139015
H16   H     H_    0.082891 0.383736 0.009437 0.140881
H17   H     H_    0.723472 0.888592 0.496142 0.163986
N1    N     N_R   0.852480 0.498790 0.499000 -0.190489
N2    N     N_R   0.148360 0.498710 0.498970 -0.187721
O1    O     O_R   0.381190 0.680360 0.500010 -0.536548
O2    O     O_R   0.618760 0.680340 0.500000 -0.599870
O3    O     O_R   0.323240 0.499990 0.650990 -0.583059
O4    O     O_R   0.560820 0.499960 0.650980 -0.539198
O5    O     O_R   0.381240 0.319660 0.500000 -0.569047
O6    O     O_R   0.618810 0.319640 0.499990 -0.593050
O7    O     O_R   0.439180 0.500040 0.349020 -0.587356
O8    O     O_R   0.676760 0.500010 0.349010 -0.609795
O9    O     O_3   0.303846 0.789202 0.362543 -0.713241
H18   H     H_    0.216159 0.766437 0.341164 0.317609
O10   O     O_3   0.186495 0.208476 0.629462 -0.714817
H19   H     H_    0.081690 0.231305 0.646893 0.306079
O11   O     O_3   0.678821 0.330049 0.712483 -0.703499
H20   H     H_    0.786038 0.316773 0.688534 0.310511

loop_
_geom_bond_atom_site_label_1
_geom_bond_atom_site_label_2
_ccdc_geom_bond_type
C20   H4    S    
C24   C25   A    
C31   C33   S    
C16   C21   A    
Cu1   N2    S    
Cu1   Cu2   S    
C29   N1    A    
C19   C20   A    
C31   O7    A    
C2    C4    A    
Cu1   O1    S    
C11   O9    S    
C4    C8    A    
C5    C32   A    
Cu2   O4    S    
C7    O11   S    
C23   O6    A    
C17   C18   A    
C1    C18   S    
C10   C34   A    
C3    C10   A    
C22   C28   A    
C13   C14   A    
C29   H5    S    
C35   H16   S    
C9    C33   A    
C12   O4    A    
C11   C13   A    
C8    H13   S    
C32   H12   S    
C26   C27   A    
C29   C30   A    
C6    H10   S    
C26   H9    S    
C14   H3    S    
C15   O10   S    
C10   C12   S    
C25   C26   A    
C30   H11   S    
C34   C35   A    
C6    C7    A    
C3    C7    A    
C8    C33   A    
C1    O2    A    
C21   C23   S    
C28   N1    A    
C5    C6    A    
C22   C24   A    
Cu1   O3    S    
C16   C17   A    
C24   H7    S    
C2    C36   A    
Cu2   O2    S    
C12   O3    A    
C30   N2    A    
C9    H1    S    
O11   H20   S    
Cu2   N1    S    
C20   C21   A    
C31   O8    A    
C18   C19   A    
C27   N2    A    
C19   H17   S    
O9    H18   S    
Cu2   O6    S    
Cu1   O5    S    
C14   C15   A    
C11   C17   A    
C13   H2    S    
C2    C3    A    
C36   H15   S    
C9    C32   A    
Cu1   O7    S    
C1    O1    A    
Cu2   O8    S    
C34   H14   S    
C25   H8    S    
O10   H19   S    
C23   O5    A    
C22   H6    S    
C15   C16   A    
C4    C5    A    
C27   C28   A    
C35   C36   A    
