data_mof_unit_38314.cif
_audit_creation_date              2012-12-11T14:10:37-0500
_audit_creation_method            fapswitch 2.2
_symmetry_space_group_name_H-M    P1
_symmetry_Int_Tables_number       1
_space_group_crystal_system       triclinic
_cell_length_a                    19.725336
_cell_length_b                    17.183094
_cell_length_c                    15.463959
_cell_angle_alpha                 90.000063
_cell_angle_beta                  52.509533
_cell_angle_gamma                 89.99988
_cell_volume                      4158.80499013

loop_
_atom_site_label
_atom_site_type_symbol
_atom_type_description
_atom_site_fract_x
_atom_site_fract_y
_atom_site_fract_z
_atom_type_partial_charge
C1    C     C_R   0.374160 0.197089 0.995300 -0.121351
C2    C     C_R   0.625845 0.802912 0.004695 -0.121346
C3    C     C_R   0.660842 0.175042 0.951126 -0.110042
C4    C     C_R   0.339158 0.824958 0.048873 -0.110036
C5    C     C_R   0.839157 0.675041 0.048877 -0.110034
C6    C     C_R   0.160843 0.324958 0.951125 -0.110045
C7    C     C_R   0.125841 0.697088 0.004699 -0.121352
C8    C     C_R   0.874159 0.302912 0.995302 -0.121343
C9    C     C_3   0.211460 0.192793 0.585406 -0.228529
C10   C     C_3   0.788527 0.807202 0.414601 -0.228526
C11   C     C_3   0.699337 0.243456 0.435358 -0.228169
C12   C     C_3   0.300755 0.756473 0.564589 -0.228185
C13   C     C_3   0.800719 0.743494 0.564618 -0.228154
C14   C     C_3   0.199290 0.256512 0.435379 -0.228156
C15   C     C_3   0.288465 0.692839 0.414643 -0.228556
C16   C     C_3   0.711409 0.307236 0.585437 -0.228546
C17   C     C_2   0.190575 0.743399 0.094566 -0.186051
C18   C     C_2   0.809425 0.256601 0.905434 -0.186055
C19   C     C_2   0.713423 0.687149 0.045645 -0.198504
C20   C     C_2   0.286572 0.312849 0.954367 -0.198546
C21   C     C_2   0.786569 0.187152 0.954370 -0.198533
C22   C     C_2   0.213430 0.812848 0.045630 -0.198533
C23   C     C_2   0.309429 0.243400 0.905429 -0.186069
C24   C     C_2   0.690584 0.756608 0.094560 -0.186015
C25   C     C_R   0.390587 0.802549 0.213104 -0.136306
C26   C     C_R   0.609397 0.197456 0.786907 -0.136274
C27   C     C_R   0.650459 0.827117 0.779311 -0.123766
C28   C     C_R   0.349542 0.172885 0.220689 -0.123770
C29   C     C_R   0.849547 0.327111 0.220689 -0.123765
C30   C     C_R   0.150460 0.672881 0.779311 -0.123776
C31   C     C_R   0.109402 0.302546 0.786903 -0.136288
C32   C     C_R   0.890595 0.697454 0.213099 -0.136291
C33   C     C_R   0.329848 0.913312 0.951145 -0.150240
C34   C     C_R   0.670152 0.086688 0.048855 -0.150236
C35   C     C_R   0.634581 0.889836 0.102910 -0.156467
C36   C     C_R   0.365423 0.110166 0.897085 -0.156462
C37   C     C_R   0.865422 0.389834 0.897086 -0.156466
C38   C     C_R   0.134577 0.610166 0.102914 -0.156465
C39   C     C_R   0.170152 0.413313 0.048854 -0.150239
C40   C     C_R   0.829846 0.586687 0.951149 -0.150237
C41   C     C_R   0.356588 0.079644 0.316613 -0.124534
C42   C     C_R   0.643414 0.920358 0.683388 -0.124539
C43   C     C_R   0.600458 0.106202 0.691320 -0.150068
C44   C     C_R   0.399526 0.893805 0.308690 -0.150052
C45   C     C_R   0.899536 0.606199 0.308684 -0.150055
C46   C     C_R   0.100462 0.393800 0.691318 -0.150059
C47   C     C_R   0.143412 0.579642 0.683387 -0.124538
C48   C     C_R   0.856591 0.420353 0.316614 -0.124539
C49   C     C_R   0.346798 0.185854 0.933040 0.152070
C50   C     C_R   0.653209 0.814149 0.066952 0.152055
C51   C     C_R   0.712636 0.147828 0.976727 0.151384
C52   C     C_R   0.287364 0.852172 0.023272 0.151383
C53   C     C_R   0.787362 0.647827 0.023279 0.151377
C54   C     C_R   0.212637 0.352173 0.976725 0.151384
C55   C     C_R   0.153203 0.685854 0.066958 0.152065
C56   C     C_R   0.846796 0.314147 0.933043 0.152066
C57   C     C_R   0.376305 0.818611 0.309731 0.067644
C58   C     C_R   0.623665 0.181399 0.690288 0.067635
C59   C     C_R   0.692113 0.859997 0.677386 0.048177
C60   C     C_R   0.307890 0.140006 0.322615 0.048180
C61   C     C_R   0.807897 0.359987 0.322616 0.048186
C62   C     C_R   0.192114 0.640000 0.677385 0.048181
C63   C     C_R   0.123673 0.318603 0.690282 0.067637
C64   C     C_R   0.876322 0.681395 0.309721 0.067636
C65   C     C_3   0.173377 0.151413 0.534334 -0.217294
C66   C     C_3   0.826616 0.848591 0.465660 -0.217291
C67   C     C_3   0.737511 0.202717 0.486239 -0.215430
C68   C     C_3   0.262547 0.797307 0.513816 -0.215522
C69   C     C_3   0.762520 0.702704 0.513797 -0.215458
C70   C     C_3   0.237483 0.297293 0.486213 -0.215456
C71   C     C_3   0.326564 0.651408 0.465652 -0.217354
C72   C     C_3   0.673344 0.348574 0.534316 -0.217269
C73   C     C_3   0.714187 0.776712 0.527002 0.125807
C74   C     C_3   0.285807 0.223281 0.473012 0.125799
C75   C     C_3   0.375853 0.726606 0.450857 0.119733
C76   C     C_3   0.624150 0.273312 0.549054 0.119683
C77   C     C_3   0.124140 0.226649 0.549095 0.119680
C78   C     C_3   0.875862 0.773359 0.450896 0.119683
C79   C     C_3   0.785793 0.276755 0.473061 0.125800
C80   C     C_3   0.214170 0.723330 0.527052 0.125859
C81   C     C_3   0.751355 0.817488 0.577797 0.115003
C82   C     C_3   0.248646 0.182515 0.422204 0.115000
C83   C     C_3   0.337698 0.766745 0.401438 0.113169
C84   C     C_3   0.662273 0.233266 0.598582 0.113165
C85   C     C_3   0.162281 0.266736 0.598576 0.113169
C86   C     C_3   0.837715 0.733263 0.401428 0.113170
C87   C     C_3   0.748650 0.317480 0.422206 0.114998
C88   C     C_3   0.251347 0.682513 0.577798 0.114999
H1    H     H_    0.381348 0.251837 0.023189 0.080425
H2    H     H_    0.618660 0.748164 0.976803 0.080425
H3    H     H_    0.670813 0.224504 0.901838 0.087268
H4    H     H_    0.329188 0.775494 0.098158 0.087262
H5    H     H_    0.829186 0.724501 0.098167 0.087263
H6    H     H_    0.170814 0.275496 0.901837 0.087267
H7    H     H_    0.118652 0.751836 0.976809 0.080427
H8    H     H_    0.881347 0.248164 0.023191 0.080423
H9    H     H_    0.388635 0.746049 0.183944 0.086813
H10   H     H_    0.611347 0.253954 0.816072 0.086802
H11   H     H_    0.668830 0.775653 0.800499 0.095106
H12   H     H_    0.331171 0.224348 0.199500 0.095104
H13   H     H_    0.831177 0.275648 0.199499 0.095098
H14   H     H_    0.168832 0.724344 0.800498 0.095111
H15   H     H_    0.111353 0.246046 0.816066 0.086807
H16   H     H_    0.888645 0.753954 0.183936 0.086809
H17   H     H_    0.309582 0.947077 0.911541 0.097422
H18   H     H_    0.690417 0.052924 0.088459 0.097420
H19   H     H_    0.638135 0.915851 0.163758 0.094195
H20   H     H_    0.361871 0.084153 0.836235 0.094202
H21   H     H_    0.861869 0.415848 0.836237 0.094200
H22   H     H_    0.138130 0.584153 0.163764 0.094197
H23   H     H_    0.190418 0.447077 0.088457 0.097422
H24   H     H_    0.809579 0.552922 0.911548 0.097421
H25   H     H_    0.344827 0.045537 0.383216 0.099076
H26   H     H_    0.655175 0.954467 0.616786 0.099079
H27   H     H_    0.595324 0.078649 0.632630 0.096922
H28   H     H_    0.404660 0.921357 0.367380 0.096907
H29   H     H_    0.904671 0.578647 0.367374 0.096915
H30   H     H_    0.095327 0.421352 0.632628 0.096914
H31   H     H_    0.155171 0.545535 0.616785 0.099073
H32   H     H_    0.844829 0.454462 0.383216 0.099081
H33   H     H_    0.147869 0.091192 0.551165 0.127901
H34   H     H_    0.852121 0.908815 0.448822 0.127891
H35   H     H_    0.763711 0.142673 0.468235 0.124739
H36   H     H_    0.236408 0.857370 0.531857 0.124736
H37   H     H_    0.736348 0.642646 0.531826 0.124728
H38   H     H_    0.263658 0.357348 0.468191 0.124729
H39   H     H_    0.352036 0.591178 0.448802 0.127902
H40   H     H_    0.647812 0.408785 0.551128 0.127906
H41   H     H_    0.216820 0.167669 0.647165 0.119294
H42   H     H_    0.783157 0.832320 0.352847 0.119288
H43   H     H_    0.694256 0.218673 0.373205 0.124304
H44   H     H_    0.305920 0.781194 0.626691 0.124348
H45   H     H_    0.805848 0.718743 0.626747 0.124315
H46   H     H_    0.194171 0.281269 0.373246 0.124316
H47   H     H_    0.283057 0.667752 0.352917 0.119318
H48   H     H_    0.716727 0.332385 0.647218 0.119289
H49   H     H_    0.212011 0.723041 0.140597 0.126582
H50   H     H_    0.787989 0.276960 0.859404 0.126589
H51   H     H_    0.689942 0.665985 0.002282 0.122109
H52   H     H_    0.310033 0.334002 0.997756 0.122124
H53   H     H_    0.810032 0.165999 0.997758 0.122120
H54   H     H_    0.189968 0.834001 0.002241 0.122121
H55   H     H_    0.287994 0.223042 0.859397 0.126590
H56   H     H_    0.712035 0.776977 0.140571 0.126562
N1    N     N_R   0.408680 0.130810 0.995780 -0.042709
N2    N     N_R   0.591320 0.869190 0.004220 -0.042710
N3    N     N_R   0.591320 0.130810 0.004220 -0.047679
N4    N     N_R   0.408680 0.869190 0.995780 -0.047678
N5    N     N_R   0.908680 0.630810 0.995780 -0.047678
N6    N     N_R   0.091320 0.369190 0.004220 -0.047678
N7    N     N_R   0.091320 0.630810 0.004220 -0.042709
N8    N     N_R   0.908680 0.369190 0.995780 -0.042710
N9    N     N_R   0.421410 0.867210 0.153620 -0.038447
N10   N     N_R   0.578590 0.132790 0.846380 -0.038451
N11   N     N_R   0.578590 0.867210 0.846380 -0.043030
N12   N     N_R   0.421410 0.132790 0.153620 -0.043030
N13   N     N_R   0.921410 0.367210 0.153620 -0.043031
N14   N     N_R   0.078590 0.632790 0.846380 -0.043028
N15   N     N_R   0.078590 0.367210 0.846380 -0.038449
N16   N     N_R   0.921410 0.632790 0.153620 -0.038450
N17   N     N_R   0.403840 0.921910 0.935760 -0.042473
N18   N     N_R   0.596160 0.078090 0.064240 -0.042473
N19   N     N_R   0.596160 0.921910 0.064240 -0.039092
N20   N     N_R   0.403840 0.078090 0.935760 -0.039092
N21   N     N_R   0.903840 0.421910 0.935760 -0.039092
N22   N     N_R   0.096160 0.578090 0.064240 -0.039092
N23   N     N_R   0.096160 0.421910 0.064240 -0.042473
N24   N     N_R   0.903840 0.578090 0.935760 -0.042473
N25   N     N_R   0.426250 0.076100 0.213650 -0.040986
N26   N     N_R   0.573750 0.923900 0.786350 -0.040986
N27   N     N_R   0.573750 0.076100 0.786350 -0.036510
N28   N     N_R   0.426250 0.923900 0.213650 -0.036508
N29   N     N_R   0.926250 0.576100 0.213650 -0.036510
N30   N     N_R   0.073750 0.423900 0.786350 -0.036509
N31   N     N_R   0.073750 0.576100 0.786350 -0.040986
N32   N     N_R   0.926250 0.423900 0.213650 -0.040986
Ni1   Ni    Ni4+2 0.500000 0.131570 0.000000 0.208608
Ni2   Ni    Ni4+2 0.500000 0.868430 0.000000 0.208612
Ni3   Ni    Ni4+2 1.000000 0.631570 0.000000 0.208612
Ni4   Ni    Ni4+2 0.000000 0.368430 0.000000 0.208607
Ni5   Ni    Ni4+2 0.488900 0.000000 0.862310 0.214353
Ni6   Ni    Ni4+2 0.511100 0.000000 0.137690 0.214355
Ni7   Ni    Ni4+2 0.988900 0.500000 0.862310 0.214352
Ni8   Ni    Ni4+2 0.011100 0.500000 0.137690 0.214355
C89   C     C_1   0.624602 0.776977 0.568007 0.023983
N33   N     N_1   0.554072 0.777230 0.600333 -0.086458
C90   C     C_1   0.375387 0.223008 0.432020 0.024002
N34   N     N_1   0.445912 0.222748 0.399705 -0.086434
C91   C     C_1   0.466203 0.730160 0.405480 0.027789
N35   N     N_1   0.537474 0.733020 0.369734 -0.085669
C92   C     C_1   0.533820 0.269667 0.594326 0.027786
N36   N     N_1   0.462565 0.266733 0.629989 -0.085699
C93   C     C_1   0.033798 0.230252 0.594414 0.027796
N37   N     N_1   0.962534 0.233152 0.630113 -0.085678
C94   C     C_1   0.966208 0.769763 0.405567 0.027782
N38   N     N_1   0.037476 0.766868 0.369860 -0.085694
C95   C     C_1   0.875359 0.277067 0.432122 0.023976
N39   N     N_1   0.945874 0.277359 0.399850 -0.086451
C96   C     C_1   0.124582 0.723105 0.568110 0.024011
N40   N     N_1   0.054049 0.722881 0.600476 -0.086445

loop_
_geom_bond_atom_site_label_1
_geom_bond_atom_site_label_2
_ccdc_geom_bond_type
C68   C80   S    
C10   H42   S    
C3    N3    A    
C79   C95   S    
C36   H20   S    
C18   C21   D    
N16   N29   A    
C1    N1    A    
C8    H8    S    
C16   C84   S    
N15   Ni4   S    
C72   C76   S    
C71   H39   S    
C78   C86   S    
C68   H36   S    
C47   C62   A    
C79   C87   S    
N8    N21   A    
C89   N33   T    
C40   H24   S    
C36   N20   A    
C33   C52   A    
C12   C68   S    
C27   H11   S    
C34   C51   A    
C13   C69   S    
C4    C52   A    
N4    N17   A    
N6    Ni4   S    
C75   C91   S    
C6    C54   A    
N18   Ni6   S    
C45   N29   A    
C11   C76   S    
C10   C73   S    
C23   C49   S    
C39   C54   A    
C15   H47   S    
C4    N4    A    
C13   C81   S    
N12   N25   A    
N5    Ni3   S    
C5    N5    A    
C46   H30   S    
C3    H3    S    
C14   C77   S    
C64   C86   S    
C2    H2    S    
C77   C93   S    
N20   Ni5   S    
C42   N26   A    
C43   C58   A    
C9    C85   S    
N9    Ni2   S    
C37   C56   A    
C60   C82   S    
C42   H26   S    
C38   C55   A    
N23   Ni8   S    
N29   Ni8   S    
C11   C87   S    
C6    H6    S    
N15   N30   A    
C16   C72   S    
C70   C74   S    
N4    Ni2   S    
C66   H34   S    
C69   C73   S    
C65   H33   S    
C38   H22   S    
C61   C87   S    
C17   C55   S    
C37   H21   S    
N11   Ni2   S    
C18   C56   S    
C43   H27   S    
C19   C53   S    
C47   H31   S    
C32   H16   S    
C77   C85   S    
C67   C84   S    
C63   C85   S    
N19   Ni6   S    
C27   N11   A    
C8    C56   A    
C14   C70   S    
C20   C54   S    
C23   H55   S    
C91   N35   T    
N5    N24   A    
C25   C57   A    
C74   C82   S    
C73   C81   S    
C73   C89   S    
C11   C67   S    
C10   C66   S    
C24   C50   S    
C66   C78   S    
C29   C61   A    
C76   C84   S    
C65   C77   S    
C12   C88   S    
C25   N9    A    
C92   N36   T    
N21   Ni7   S    
C75   C83   S    
C31   C63   A    
C67   C79   S    
C32   C64   A    
C48   H32   S    
C57   C83   S    
C43   N27   A    
C4    H4    S    
C29   N13   A    
C14   H46   S    
C70   H38   S    
C80   C96   S    
C62   C88   S    
C35   N19   A    
C94   N38   T    
C67   H35   S    
N13   Ni4   S    
C34   H18   S    
N8    Ni4   S    
C33   N17   A    
N14   Ni3   S    
C44   N28   A    
N16   Ni3   S    
C58   C84   S    
N12   Ni1   S    
N3    Ni1   S    
N7    Ni3   S    
C15   C80   S    
C20   C23   D    
C30   N14   A    
C44   C57   A    
N24   Ni7   S    
N32   Ni8   S    
C22   H54   S    
C35   C50   A    
C46   N30   A    
C29   H13   S    
C37   N21   A    
C26   C58   A    
C28   C60   A    
C30   H14   S    
C26   H10   S    
C7    N7    A    
C7    C55   A    
C25   H9    S    
C18   H50   S    
C40   C53   A    
C30   C62   A    
N26   Ni5   S    
C26   N10   A    
C9    C74   S    
C14   C82   S    
C16   H48   S    
C21   C51   S    
C72   C87   S    
C15   C71   S    
N31   Ni7   S    
C74   C90   S    
C45   H29   S    
C2    C50   A    
C38   N22   A    
C47   N31   A    
C13   C78   S    
C10   C86   S    
C1    H1    S    
C12   H44   S    
C8    N8    A    
C68   C83   S    
C13   H45   S    
N27   Ni5   S    
N22   Ni8   S    
C59   C81   S    
C41   C60   A    
C41   H25   S    
C34   N18   A    
N3    N18   A    
C11   H43   S    
C42   C59   A    
C5    H5    S    
N1    N20   A    
C9    H41   S    
C2    N2    A    
N7    N22   A    
C7    H7    S    
N2    N19   A    
C45   C64   A    
C17   C22   D    
C33   H17   S    
C46   C63   A    
N10   Ni1   S    
C16   C79   S    
C20   H52   S    
C19   C24   D    
C5    C53   A    
C21   H53   S    
C90   N34   T    
C80   C88   S    
C76   C92   S    
C27   C59   A    
C66   C81   S    
C71   C75   S    
C70   C85   S    
N11   N26   A    
C28   H12   S    
C65   C82   S    
C41   N25   A    
C24   H56   S    
C15   C83   S    
N6    N23   A    
N9    N28   A    
C39   H23   S    
C3    C51   A    
N10   N27   A    
C22   C52   S    
C78   C94   S    
N17   Ni5   S    
C95   N39   T    
C9    C65   S    
N25   Ni6   S    
C40   N24   A    
C35   H19   S    
C36   C49   A    
N13   N32   A    
C69   H37   S    
C71   C88   S    
C6    N6    A    
C39   N23   A    
N28   Ni6   S    
N14   N31   A    
C96   N40   T    
C44   H28   S    
C19   H51   S    
C93   N37   T    
C12   C75   S    
N1    Ni1   S    
C28   N12   A    
C48   C61   A    
C72   H40   S    
C17   H49   S    
C48   N32   A    
N30   Ni7   S    
C1    C49   A    
C31   N15   A    
C69   C86   S    
C31   H15   S    
C32   N16   A    
N2    Ni2   S    
