data_mof_unit_64974.cif
_audit_creation_date              2013-03-05T16:30:27-0500
_audit_creation_method            fapswitch 2.2
_symmetry_space_group_name_H-M    P1
_symmetry_Int_Tables_number       1
_space_group_crystal_system       triclinic
_cell_length_a                    18.395909
_cell_length_b                    18.393791
_cell_length_c                    39.64732
_cell_angle_alpha                 90.042701
_cell_angle_beta                  90.014409
_cell_angle_gamma                 89.986462
_cell_volume                      13415.4791824

loop_
_atom_site_label
_atom_site_type_symbol
_atom_site_description
_atom_site_fract_x
_atom_site_fract_y
_atom_site_fract_z
_atom_type_partial_charge
Zn1   Zn    Zn3+2 0.500000 0.913220 0.028040 1.053643
Zn2   Zn    Zn3+2 0.086780 0.500000 0.028040 1.049175
Zn3   Zn    Zn3+2 0.500000 0.086780 0.028040 1.027619
Zn4   Zn    Zn3+2 0.913220 0.500000 0.028040 1.029649
Zn5   Zn    Zn3+2 1.000000 0.413220 0.528040 1.029003
Zn6   Zn    Zn3+2 0.586780 1.000000 0.528040 1.029899
Zn7   Zn    Zn3+2 1.000000 0.586780 0.528040 1.051564
Zn8   Zn    Zn3+2 0.413220 1.000000 0.528040 1.048309
Zn9   Zn    Zn3+2 0.586730 0.000000 0.971990 0.961752
Zn10  Zn    Zn3+2 0.000000 0.586730 0.971990 0.986378
Zn11  Zn    Zn3+2 0.413270 0.000000 0.971990 0.970157
Zn12  Zn    Zn3+2 0.000000 0.413270 0.971990 0.953416
Zn13  Zn    Zn3+2 0.086730 0.500000 0.471990 0.985841
Zn14  Zn    Zn3+2 0.500000 0.086730 0.471990 0.983105
Zn15  Zn    Zn3+2 0.913270 0.500000 0.471990 0.960318
Zn16  Zn    Zn3+2 0.500000 0.913270 0.471990 0.970354
O1    O     O_3   0.500000 1.000000 0.000020 -0.497097
O2    O     O_3   1.000000 0.500000 0.000020 -0.498704
O3    O     O_3   1.000000 0.500000 0.500020 -0.499042
O4    O     O_3   0.500000 1.000000 0.500020 -0.501209
O5    O     O_R   0.439230 1.000000 0.925200 -0.635266
O6    O     O_R   1.000000 0.439230 0.925200 -0.657211
O7    O     O_R   0.560770 1.000000 0.925200 -0.655555
O8    O     O_R   1.000000 0.560770 0.925200 -0.616798
O9    O     O_R   0.939230 0.500000 0.425200 -0.660778
O10   O     O_R   0.500000 0.939230 0.425200 -0.637047
O11   O     O_R   0.060770 0.500000 0.425200 -0.618501
O12   O     O_R   0.500000 0.060770 0.425200 -0.628525
O13   O     O_R   0.500000 0.939250 0.074840 -0.584890
O14   O     O_R   0.060750 0.500000 0.074840 -0.586179
O15   O     O_R   0.500000 0.060750 0.074840 -0.629784
O16   O     O_R   0.939250 0.500000 0.074840 -0.628767
O17   O     O_R   0.000000 0.439250 0.574840 -0.631860
O18   O     O_R   0.560750 0.000000 0.574840 -0.630204
O19   O     O_R   0.000000 0.560750 0.574840 -0.585026
O20   O     O_R   0.439250 0.000000 0.574840 -0.584961
O21   O     O_R   0.646140 0.914530 0.980400 -0.646207
O22   O     O_R   0.085470 0.646140 0.980400 -0.642191
O23   O     O_R   0.353860 0.085470 0.980400 -0.645297
O24   O     O_R   0.914530 0.353860 0.980400 -0.645043
O25   O     O_R   0.646140 0.085470 0.980400 -0.647660
O26   O     O_R   0.085470 0.353860 0.980400 -0.655268
O27   O     O_R   0.353860 0.914530 0.980400 -0.647774
O28   O     O_R   0.914530 0.646140 0.980400 -0.637912
O29   O     O_R   0.146140 0.414530 0.480400 -0.635406
O30   O     O_R   0.585470 0.146140 0.480400 -0.642100
O31   O     O_R   0.853860 0.585470 0.480400 -0.649284
O32   O     O_R   0.414530 0.853860 0.480400 -0.649916
O33   O     O_R   0.146140 0.585470 0.480400 -0.645668
O34   O     O_R   0.585470 0.853860 0.480400 -0.641004
O35   O     O_R   0.853860 0.414530 0.480400 -0.644563
O36   O     O_R   0.414530 0.146140 0.480400 -0.640815
O37   O     O_R   0.414550 0.146130 0.019630 -0.640307
O38   O     O_R   0.853870 0.414550 0.019630 -0.645493
O39   O     O_R   0.585450 0.853870 0.019630 -0.633605
O40   O     O_R   0.146130 0.585450 0.019630 -0.641449
O41   O     O_R   0.414550 0.853870 0.019630 -0.639642
O42   O     O_R   0.853870 0.585450 0.019630 -0.641426
O43   O     O_R   0.585450 0.146130 0.019630 -0.645788
O44   O     O_R   0.146130 0.414550 0.019630 -0.632514
O45   O     O_R   0.914550 0.646130 0.519630 -0.637356
O46   O     O_R   0.353870 0.914550 0.519630 -0.634252
O47   O     O_R   0.085450 0.353870 0.519630 -0.644652
O48   O     O_R   0.646130 0.085450 0.519630 -0.641538
O49   O     O_R   0.914550 0.353870 0.519630 -0.642128
O50   O     O_R   0.353870 0.085450 0.519630 -0.640451
O51   O     O_R   0.085450 0.646130 0.519630 -0.638602
O52   O     O_R   0.646130 0.914550 0.519630 -0.645454
C1    C     C_R   0.500009 0.000373 0.909134 0.854716
C2    C     C_R   0.000416 0.499859 0.909104 0.847365
C3    C     C_R   0.999888 0.500687 0.409173 0.844392
C4    C     C_R   0.499694 0.999973 0.409120 0.882101
C5    C     C_R   0.500789 0.000009 0.090745 0.971696
C6    C     C_R   0.000072 0.499140 0.090743 0.974335
C7    C     C_R   0.000125 0.500082 0.590718 0.979877
C8    C     C_R   0.499987 0.999323 0.590747 0.974325
C9    C     C_R   0.639949 0.860025 0.000059 0.834700
C10   C     C_R   0.139925 0.640347 0.000200 0.817882
C11   C     C_R   0.360024 0.139958 0.000088 0.832649
C12   C     C_R   0.859949 0.360112 0.000005 0.823128
C13   C     C_R   0.639907 0.140037 0.000028 0.818961
C14   C     C_R   0.139986 0.360046 0.000055 0.833420
C15   C     C_R   0.359695 0.859972 0.000121 0.824106
C16   C     C_R   0.859987 0.639902 0.000038 0.830064
C17   C     C_R   0.140272 0.359995 0.500120 0.817288
C18   C     C_R   0.639997 0.139937 0.500059 0.830218
C19   C     C_R   0.860110 0.640041 0.500023 0.830934
C20   C     C_R   0.360020 0.860048 0.500058 0.831129
C21   C     C_R   0.139947 0.639996 0.500065 0.830218
C22   C     C_R   0.640037 0.860086 0.500017 0.824375
C23   C     C_R   0.860064 0.360011 0.500051 0.828383
C24   C     C_R   0.359944 0.140234 0.500091 0.812612
C25   C     C_R   0.240466 0.812355 0.981022 0.150918
C26   C     C_R   0.193020 0.244791 0.979243 0.135459
C27   C     C_R   0.758018 0.190116 0.981265 0.134237
C28   C     C_R   0.806340 0.754446 0.978827 0.126890
C29   C     C_R   0.244793 0.192878 0.979307 0.133834
C30   C     C_R   0.187240 0.759458 0.981166 0.141522
C31   C     C_R   0.754555 0.806356 0.978856 0.129300
C32   C     C_R   0.809780 0.242037 0.981208 0.135597
C33   C     C_R   0.743850 0.307977 0.479903 0.132830
C34   C     C_R   0.689441 0.741190 0.481881 0.137387
C35   C     C_R   0.256035 0.692104 0.479822 0.130448
C36   C     C_R   0.311823 0.258792 0.480540 0.140746
C37   C     C_R   0.741305 0.689364 0.481889 0.134764
C38   C     C_R   0.692012 0.256136 0.479903 0.131475
C39   C     C_R   0.258851 0.311948 0.480603 0.139020
C40   C     C_R   0.307877 0.743939 0.479823 0.131037
C41   C     C_R   0.300987 0.807044 0.002168 -0.084189
C42   C     C_R   0.195701 0.304630 0.000531 -0.083239
C43   C     C_R   0.694493 0.196576 0.999898 -0.079465
C44   C     C_R   0.804166 0.695207 0.000441 -0.084573
C45   C     C_R   0.304588 0.195638 0.000593 -0.084155
C46   C     C_R   0.192669 0.699122 0.002354 -0.084128
C47   C     C_R   0.695291 0.804225 0.000473 -0.083013
C48   C     C_R   0.803373 0.305572 0.999850 -0.080465
C49   C     C_R   0.804946 0.304005 0.500338 -0.082165
C50   C     C_R   0.696720 0.805637 0.499772 -0.080230
C51   C     C_R   0.195120 0.695961 0.500382 -0.080544
C52   C     C_R   0.306923 0.198823 0.502016 -0.083177
C53   C     C_R   0.805687 0.696716 0.499787 -0.079194
C54   C     C_R   0.696009 0.195064 0.500344 -0.081462
C55   C     C_R   0.198909 0.307058 0.502090 -0.085203
C56   C     C_R   0.304066 0.804886 0.500377 -0.081026
C57   C     C_R   0.302211 0.751578 0.026605 -0.191080
C58   C     C_R   0.255351 0.309425 0.022875 -0.182520
C59   C     C_R   0.685111 0.260902 0.018898 -0.201123
C60   C     C_R   0.744940 0.690917 0.023028 -0.190200
C61   C     C_R   0.309375 0.255379 0.022897 -0.190368
C62   C     C_R   0.248370 0.697891 0.026689 -0.189605
C63   C     C_R   0.690939 0.744985 0.023042 -0.181796
C64   C     C_R   0.739132 0.314956 0.018884 -0.201426
C65   C     C_R   0.811341 0.242735 0.521606 -0.193831
C66   C     C_R   0.761989 0.816063 0.517929 -0.199979
C67   C     C_R   0.188972 0.757073 0.521798 -0.190586
C68   C     C_R   0.251817 0.198078 0.526630 -0.186699
C69   C     C_R   0.816056 0.762018 0.517937 -0.194966
C70   C     C_R   0.757314 0.188709 0.521609 -0.191654
C71   C     C_R   0.198097 0.251886 0.526663 -0.192853
C72   C     C_R   0.243003 0.811094 0.521796 -0.186735
H1    H     H_    0.346166 0.747788 0.044695 0.187555
H2    H     H_    0.260563 0.354638 0.040219 0.190289
H3    H     H_    0.636557 0.269506 0.033817 0.183922
H4    H     H_    0.740107 0.646145 0.040608 0.188562
H5    H     H_    0.354558 0.260640 0.040243 0.188363
H6    H     H_    0.252233 0.654021 0.044804 0.187447
H7    H     H_    0.646163 0.740187 0.040628 0.190833
H8    H     H_    0.730561 0.363545 0.033807 0.183965
H9    H     H_    0.857709 0.236338 0.538176 0.186272
H10   H     H_    0.771291 0.865428 0.532193 0.183276
H11   H     H_    0.142784 0.763358 0.538479 0.187661
H12   H     H_    0.248389 0.154557 0.544943 0.187925
H13   H     H_    0.865389 0.771360 0.532207 0.183532
H14   H     H_    0.763737 0.142372 0.538181 0.186463
H15   H     H_    0.154579 0.248467 0.544983 0.186912
H16   H     H_    0.236763 0.857322 0.538478 0.188712
C73   C     C_3   0.177793 0.762757 0.943811 -0.450503
C74   C     C_3   0.209779 0.150319 0.951777 -0.452856
C75   C     C_3   0.859723 0.199541 0.959164 -0.463250
C76   C     C_3   0.789182 0.848290 0.951042 -0.460969
C77   C     C_3   0.150712 0.209698 0.951650 -0.476453
C78   C     C_3   0.236592 0.820635 0.943599 -0.503118
C79   C     C_3   0.848330 0.788961 0.951007 -0.451807
C80   C     C_3   0.800683 0.140146 0.959285 -0.465294
C81   C     C_3   0.646929 0.293845 0.454066 -0.453624
C82   C     C_3   0.697268 0.637774 0.461363 -0.464837
C83   C     C_3   0.352657 0.706541 0.453768 -0.465126
C84   C     C_3   0.261696 0.320376 0.443169 -0.458796
C85   C     C_3   0.638025 0.696980 0.461332 -0.462397
C86   C     C_3   0.706154 0.353063 0.454073 -0.464817
C87   C     C_3   0.319893 0.261773 0.443078 -0.468519
C88   C     C_3   0.293437 0.647316 0.453759 -0.452686
H17   H     H_    0.194263 0.711536 0.930988 0.206147
H18   H     H_    0.243247 0.149318 0.928441 0.210367
H19   H     H_    0.867650 0.225562 0.934138 0.211253
H20   H     H_    0.755390 0.848717 0.927796 0.212036
H21   H     H_    0.150450 0.242933 0.928268 0.204837
H22   H     H_    0.287286 0.802694 0.930780 0.206662
H23   H     H_    0.848622 0.755159 0.927749 0.210463
H24   H     H_    0.774670 0.131633 0.934320 0.204047
H25   H     H_    0.643781 0.262775 0.430053 0.213245
H26   H     H_    0.721489 0.627647 0.436131 0.203591
H27   H     H_    0.355492 0.737867 0.429839 0.208471
H28   H     H_    0.210410 0.303356 0.430587 0.203584
H29   H     H_    0.628094 0.721085 0.436084 0.204308
H30   H     H_    0.737196 0.356169 0.430067 0.210701
H31   H     H_    0.302260 0.210757 0.430460 0.204425
H32   H     H_    0.262097 0.644458 0.429821 0.212658
H33   H     H_    0.123405 0.783965 0.936560 0.218041
H34   H     H_    0.189939 0.096527 0.960611 0.215847
H35   H     H_    0.910355 0.183309 0.972492 0.213093
H36   H     H_    0.809090 0.902311 0.959584 0.213695
H37   H     H_    0.096644 0.190254 0.960312 0.214629
H38   H     H_    0.216108 0.875102 0.936044 0.213996
H39   H     H_    0.902411 0.808704 0.959528 0.217649
H40   H     H_    0.817337 0.089802 0.972723 0.214543
H41   H     H_    0.593999 0.312641 0.464411 0.216996
H42   H     H_    0.681835 0.588343 0.475800 0.215363
H43   H     H_    0.405734 0.687670 0.463925 0.214119
H44   H     H_    0.282535 0.374657 0.435556 0.219437
H45   H     H_    0.588521 0.681543 0.475719 0.213705
H46   H     H_    0.687408 0.406029 0.464426 0.213698
H47   H     H_    0.374236 0.282233 0.435342 0.220401
H48   H     H_    0.312339 0.594255 0.463906 0.217097
C89   C     C_R   0.038695 0.446670 0.818160 0.281726
C90   C     C_R   0.548863 0.050570 0.819022 0.273862
C91   C     C_R   0.957654 0.551885 0.818645 0.248484
C92   C     C_R   0.466011 0.946523 0.818184 0.250771
C93   C     C_R   0.542320 0.955855 0.317735 0.252980
C94   C     C_R   0.041478 0.448784 0.318797 0.244348
C95   C     C_R   0.452690 0.054108 0.319352 0.240176
C96   C     C_R   0.951815 0.547047 0.318519 0.270667
C97   C     C_R   0.039315 0.445969 0.853629 0.051491
C98   C     C_R   0.545200 0.052369 0.854546 0.062921
C99   C     C_R   0.958504 0.552106 0.854183 0.078328
C100  C     C_R   0.459666 0.950161 0.853579 0.066220
C101  C     C_R   0.541166 0.951895 0.353236 0.039085
C102  C     C_R   0.043517 0.450854 0.354315 0.079987
C103  C     C_R   0.452047 0.050823 0.354882 0.073269
C104  C     C_R   0.953148 0.548918 0.354059 0.057786
C105  C     C_R   0.999693 0.499354 0.871803 -0.181539
C106  C     C_R   0.500520 0.001944 0.871882 -0.186363
C107  C     C_R   0.497097 0.000295 0.371856 -0.159100
C108  C     C_R   0.999279 0.500760 0.371974 -0.179893
C109  C     C_R   0.997558 0.499146 0.800879 -0.194893
C110  C     C_R   0.510130 0.996989 0.801090 -0.196555
C111  C     C_R   0.497956 0.006686 0.301001 -0.181455
C112  C     C_R   0.995354 0.496427 0.301115 -0.193747
C113  C     C_1   0.996754 0.498921 0.764600 0.175321
C114  C     C_1   0.510394 0.997591 0.764756 0.178998
C115  C     C_1   0.497893 0.008753 0.264703 0.177129
C116  C     C_1   0.996041 0.496277 0.264798 0.175593
C117  C     C_1   0.498184 0.009170 0.234396 0.093897
C118  C     C_1   0.996306 0.496529 0.234487 0.093022
C119  C     C_1   0.996785 0.498364 0.734312 0.092054
C120  C     C_1   0.509733 0.998041 0.734440 0.094732
C121  C     C_R   0.563663 0.993346 0.181292 -0.157183
C122  C     C_R   0.009303 0.432773 0.180703 -0.157949
C123  C     C_R   0.434830 0.019439 0.180333 -0.167275
C124  C     C_R   0.985006 0.561995 0.181050 -0.166504
C125  C     C_R   0.932316 0.495148 0.680392 -0.161975
C126  C     C_R   0.516649 0.063445 0.680801 -0.166910
C127  C     C_R   0.063686 0.501033 0.681117 -0.159549
C128  C     C_R   0.495791 0.933647 0.680874 -0.156849
H49   H     H_    0.612997 0.984400 0.195663 0.208870
H50   H     H_    0.018137 0.382772 0.194576 0.215123
H51   H     H_    0.384912 0.030312 0.193957 0.207128
H52   H     H_    0.975389 0.611541 0.195189 0.208691
H53   H     H_    0.881410 0.492839 0.694121 0.208776
H54   H     H_    0.525623 0.113325 0.694769 0.209085
H55   H     H_    0.113885 0.503166 0.695417 0.210149
H56   H     H_    0.488923 0.883550 0.694901 0.216993
C129  C     C_R   0.565237 0.988999 0.146006 0.247911
C130  C     C_R   0.011631 0.432398 0.145367 0.246693
C131  C     C_R   0.434117 0.015335 0.145027 0.255958
C132  C     C_R   0.987134 0.563933 0.145716 0.254506
C133  C     C_R   0.932012 0.496801 0.645054 0.252742
C134  C     C_R   0.512504 0.065075 0.645495 0.254707
C135  C     C_R   0.065688 0.502800 0.645796 0.248466
C136  C     C_R   0.491454 0.932988 0.645576 0.245890
C137  C     C_R   0.499814 0.999891 0.127672 -0.253652
C138  C     C_R   0.000696 0.498650 0.127674 -0.254420
C139  C     C_R   0.999257 0.500814 0.627591 -0.254003
C140  C     C_R   0.499769 0.999329 0.627688 -0.252373
C141  C     C_R   0.498980 0.008022 0.198272 -0.011248
C142  C     C_R   0.996640 0.497072 0.198352 -0.015330
C143  C     C_R   0.997568 0.497860 0.698210 -0.012599
C144  C     C_R   0.507894 0.998341 0.698305 -0.016555
N1    N     N_R   0.082758 0.395978 0.799655 0.234821
O53   O     O_R   0.069465 0.326644 0.801278 -0.358899
O54   O     O_R   0.132476 0.419482 0.779035 -0.356963
N2    N     N_R   0.590290 0.104686 0.801182 0.219213
O55   O     O_R   0.584479 0.173076 0.809163 -0.329851
O56   O     O_R   0.635226 0.085705 0.777408 -0.370618
N3    N     N_R   0.914916 0.604292 0.800603 0.211602
O57   O     O_R   0.862514 0.582854 0.780928 -0.358446
O58   O     O_R   0.933635 0.672480 0.800767 -0.369318
N4    N     N_R   0.426854 0.892082 0.799526 0.214460
O59   O     O_R   0.356717 0.886261 0.802610 -0.365462
O60   O     O_R   0.460810 0.850349 0.778204 -0.362029
N5    N     N_R   0.587887 0.907524 0.298657 0.211069
O61   O     O_R   0.559492 0.863992 0.276380 -0.366106
O62   O     O_R   0.658202 0.910478 0.301828 -0.359446
N6    N     N_R   0.085277 0.397293 0.300688 0.212507
O63   O     O_R   0.155718 0.403412 0.300764 -0.363963
O64   O     O_R   0.054683 0.349623 0.281020 -0.356056
N7    N     N_R   0.406192 0.104520 0.301943 0.212848
O65   O     O_R   0.336805 0.106004 0.308253 -0.353777
O66   O     O_R   0.432764 0.148067 0.279227 -0.358171
N8    N     N_R   0.907820 0.598262 0.300149 0.220203
O67   O     O_R   0.908845 0.666939 0.308036 -0.323740
O68   O     O_R   0.865102 0.576218 0.276058 -0.368588
N9    N     N_2   0.085031 0.395082 0.870574 -0.270325
H57   H     H_    0.115194 0.415259 0.890410 0.218224
C145  C     C_3   0.054679 0.323377 0.876286 -0.595508
H58   H     H_    0.044778 0.314746 0.903614 0.220830
H59   H     H_    0.094020 0.281714 0.867533 0.247336
H60   H     H_    0.002485 0.315513 0.862582 0.246337
N10   N     N_2   0.584400 0.107172 0.872448 -0.254080
H61   H     H_    0.560701 0.125063 0.894506 0.217375
C146  C     C_3   0.661839 0.094749 0.875486 -0.627364
H62   H     H_    0.672672 0.046389 0.891455 0.231768
H63   H     H_    0.687677 0.142980 0.887294 0.216947
H64   H     H_    0.687002 0.086403 0.850340 0.265009
N11   N     N_2   0.915477 0.603298 0.872417 -0.272125
H65   H     H_    0.914405 0.654957 0.862435 0.273472
C147  C     C_3   0.844015 0.577254 0.881621 -0.708055
H66   H     H_    0.816403 0.618506 0.897579 0.225391
H67   H     H_    0.848154 0.525984 0.896294 0.222999
H68   H     H_    0.810782 0.567704 0.858628 0.263607
N12   N     N_2   0.415768 0.898691 0.871098 -0.297476
H69   H     H_    0.419464 0.845892 0.862483 0.253559
C148  C     C_3   0.342055 0.921806 0.878479 -0.618976
H70   H     H_    0.332085 0.916593 0.905916 0.236232
H71   H     H_    0.302388 0.886792 0.864968 0.248510
H72   H     H_    0.332320 0.979378 0.871135 0.242314
N13   N     N_2   0.584943 0.899965 0.370494 -0.289330
H73   H     H_    0.639082 0.900994 0.363879 0.268968
C149  C     C_3   0.555103 0.827193 0.371130 -0.636931
H74   H     H_    0.589442 0.792165 0.387390 0.215365
H75   H     H_    0.554052 0.803601 0.345343 0.260464
H76   H     H_    0.499067 0.827699 0.381586 0.242263
N14   N     N_2   0.087219 0.400399 0.372609 -0.277596
H77   H     H_    0.137992 0.391053 0.362571 0.277648
C150  C     C_3   0.050091 0.334037 0.381844 -0.719357
H78   H     H_    0.086414 0.300142 0.397740 0.223314
H79   H     H_    0.035222 0.302736 0.358869 0.267732
H80   H     H_    0.000222 0.346369 0.396580 0.224150
N15   N     N_2   0.407040 0.099267 0.373737 -0.266251
H81   H     H_    0.399054 0.150400 0.363753 0.266543
C151  C     C_3   0.343388 0.067652 0.389526 -0.692369
H82   H     H_    0.341980 0.083722 0.416495 0.213417
H83   H     H_    0.343672 0.007242 0.388102 0.222576
H84   H     H_    0.293344 0.087977 0.377001 0.258786
N16   N     N_2   0.909786 0.601379 0.371387 -0.253587
H85   H     H_    0.931503 0.621321 0.393508 0.219387
C152  C     C_3   0.833285 0.583752 0.373914 -0.619762
H86   H     H_    0.825291 0.534730 0.389814 0.229559
H87   H     H_    0.809577 0.573745 0.348581 0.264471
H88   H     H_    0.803812 0.630082 0.385549 0.217143
N17   N     N_R   0.633787 0.975457 0.129491 0.210709
O69   O     O_R   0.694234 0.995342 0.143857 -0.333255
O70   O     O_R   0.637219 0.936977 0.101999 -0.383182
N18   N     N_R   0.023240 0.364216 0.128173 0.210616
O71   O     O_R   0.003161 0.303583 0.142281 -0.331926
O72   O     O_R   0.060175 0.361125 0.100236 -0.385440
N19   N     N_R   0.366492 0.026796 0.127402 0.215643
O73   O     O_R   0.315965 0.067045 0.140813 -0.329464
O74   O     O_R   0.351824 0.991515 0.099764 -0.398710
N20   N     N_R   0.975582 0.632347 0.128781 0.215528
O75   O     O_R   0.936729 0.682878 0.143065 -0.327056
O76   O     O_R   0.009454 0.647585 0.100856 -0.399008
N21   N     N_R   0.863285 0.493943 0.627560 0.214151
O77   O     O_R   0.807545 0.462603 0.641601 -0.330966
O78   O     O_R   0.853668 0.528489 0.599280 -0.394820
N22   N     N_R   0.521381 0.133618 0.628338 0.215428
O79   O     O_R   0.559297 0.185383 0.642192 -0.329137
O80   O     O_R   0.486009 0.147581 0.600661 -0.397160
N23   N     N_R   0.135330 0.505712 0.629108 0.212031
O81   O     O_R   0.192809 0.479490 0.643902 -0.330344
O82   O     O_R   0.143461 0.540540 0.600808 -0.392204
N24   N     N_R   0.480391 0.864508 0.628575 0.210517
O83   O     O_R   0.502237 0.804332 0.642548 -0.330346
O84   O     O_R   0.442302 0.860622 0.600985 -0.386557

loop_
_geom_bond_atom_site_label_1
_geom_bond_atom_site_label_2
_geom_bond_distance
_ccdc_geom_bond_type
C132  C138  1.419336 A    
C62   H6    1.082975 S    
C112  C116  1.439915 S    
C136  C140  1.420148 A    
C49   C65   1.412882 A    
C152  H86   1.110443 S    
C146  H62   1.110197 S    
C16   C44   1.445355 S    
C122  C130  1.401642 A    
N6    O63   1.300738 A    
C127  C143  1.393777 A    
C135  C139  1.419615 A    
C30   C46   1.395915 A    
C28   C31   1.348624 A    
C121  C141  1.393540 A    
Zn12  O26   1.943430 S    
C98   C106  1.417697 A    
O34   C22   1.274834 A    
Zn14  O36   1.943288 S    
C12   C48   1.445722 S    
N2    O55   1.301283 A    
C90   C110  1.408364 A    
O52   C22   1.272662 A    
O41   C15   1.276254 A    
C114  C120  1.202045 T    
Zn15  O35   1.943950 S    
C61   H5    1.082965 S    
Zn4   O2    1.945126 S    
C70   H14   1.082959 S    
O47   C17   1.276206 A    
C46   C62   1.407433 A    
C40   C56   1.387216 A    
C99   C105  1.415657 A    
C68   H12   1.082987 S    
C7    C139  1.462047 S    
N14   H77   1.029722 S    
C76   C79   1.540859 S    
C124  C142  1.394091 A    
C125  H53   1.084142 S    
N16   C152  1.447763 S    
C96   C104  1.409655 A    
C26   C29   1.348507 A    
O46   C20   1.272325 A    
Zn12  O24   1.943985 S    
C82   H42   1.111697 S    
C99   N11   1.426422 S    
C30   C73   1.492431 S    
Zn16  O4    1.943535 S    
Zn1   O13   1.915931 S    
C69   H13   1.082989 S    
C33   C86   1.489305 S    
C59   H3    1.082966 S    
Zn3   O15   1.916621 S    
C60   H4    1.082965 S    
Zn4   O16   1.916174 S    
C72   H16   1.082962 S    
C36   C87   1.493747 S    
Zn7   O3    1.944064 S    
N1    O54   1.301114 A    
C123  C131  1.401828 A    
C77   H21   1.110834 S    
C152  H88   1.110089 S    
O11   C3    1.287601 A    
C146  H64   1.109827 S    
C129  C137  1.420075 A    
O49   C23   1.272661 A    
C133  C139  1.419741 A    
C94   C112  1.406986 A    
C134  C140  1.419360 A    
C148  H72   1.112928 S    
Zn9   O25   1.943452 S    
Zn10  O22   1.943568 S    
C93   C101  1.409595 A    
C33   C49   1.387262 A    
Zn13  O29   1.943438 S    
Zn10  O2    1.944893 S    
C17   C55   1.455110 S    
N20   O75   1.301729 A    
C86   H46   1.111689 S    
N16   H85   1.030887 S    
Zn4   O42   1.942519 S    
N23   O81   1.301765 A    
C147  H67   1.111012 S    
C9    C47   1.445577 S    
C73   C78   1.517897 S    
C36   C39   1.380259 A    
Zn8   O46   1.942536 S    
C101  C107  1.412023 A    
C111  C115  1.439645 S    
C149  H75   1.110507 S    
O27   C15   1.277124 A    
C82   H26   1.110798 S    
C20   C56   1.445569 S    
O8    C2    1.289002 A    
C145  H59   1.109484 S    
C95   N7    1.438122 S    
N24   O84   1.300818 A    
C74   H34   1.111583 S    
O16   C6    1.284269 A    
O14   C6    1.282235 A    
C148  H71   1.110739 S    
C90   N2    1.439984 S    
C55   C71   1.407376 A    
C2    C105  1.478955 S    
O40   C10   1.275611 A    
C37   C82   1.489275 S    
N13   C149  1.447103 S    
C53   C69   1.412706 A    
C150  H79   1.111376 S    
Zn15  O9    1.915697 S    
O45   C19   1.272523 A    
C92   C110  1.407568 A    
C129  N17   1.442577 S    
O17   C7    1.283449 A    
C84   C87   1.519055 S    
C131  C137  1.419409 A    
C57   H1    1.082974 S    
N11   C147  1.446238 S    
Zn5   O17   1.915931 S    
C125  C143  1.393570 A    
Zn3   O1    1.944064 S    
O9    C3    1.284313 A    
C126  C144  1.393917 A    
C50   C66   1.412844 A    
C8    C140  1.464582 S    
C134  N22   1.442349 S    
C87   H47   1.111567 S    
N15   C151  1.449969 S    
N21   O78   1.301219 A    
C5    C137  1.464166 S    
N17   O70   1.300737 A    
C119  C143  1.431415 S    
C124  C132  1.401943 A    
C127  H55   1.084189 S    
Zn10  O28   1.943288 S    
C122  C142  1.393354 A    
C133  N21   1.442849 S    
Zn9   O7    1.915464 S    
O50   C24   1.276443 A    
Zn10  O8    1.915222 S    
C110  C114  1.440582 S    
C85   H45   1.111703 S    
Zn11  O5    1.915697 S    
O5    C1    1.286961 A    
N14   C150  1.446283 S    
O31   C19   1.274726 A    
Zn11  O23   1.943129 S    
N9    H57   1.031311 S    
Zn1   O41   1.942652 S    
C151  H83   1.112566 S    
C48   C64   1.412824 A    
C71   H15   1.082984 S    
C38   C54   1.387585 A    
N22   O80   1.301318 A    
C77   H37   1.111608 S    
C26   C77   1.489303 S    
C42   C58   1.412846 A    
N12   C148  1.450824 S    
C79   H23   1.111764 S    
C60   C63   1.405519 A    
C124  H52   1.084092 S    
Zn9   O1    1.944594 S    
C33   C38   1.348722 A    
C3    C108  1.474890 S    
C74   H18   1.111613 S    
C80   H40   1.111644 S    
N5    O62   1.300718 A    
C95   C103  1.410050 A    
C15   C41   1.456502 S    
Zn1   O1    1.945425 S    
Zn2   O14   1.916406 S    
C147  H68   1.111366 S    
C29   C74   1.489193 S    
C11   C45   1.445267 S    
Zn1   O39   1.942369 S    
Zn2   O40   1.943031 S    
Zn3   O37   1.942514 S    
C32   C75   1.489290 S    
C90   C98   1.410423 A    
C151  H84   1.110759 S    
C78   H22   1.112084 S    
Zn7   O51   1.943066 S    
C98   N10   1.427928 S    
N18   O71   1.301657 A    
C130  C138  1.420782 A    
N2    O56   1.301316 A    
C132  N20   1.442418 S    
C83   H43   1.111683 S    
C75   C80   1.540699 S    
O6    C2    1.285315 A    
O18   C8    1.283640 A    
O10   C4    1.286812 A    
N3    O57   1.300984 A    
C32   C48   1.387297 A    
C39   C55   1.396569 A    
C66   C69   1.406063 A    
N21   O77   1.301775 A    
Zn14  O30   1.943568 S    
C10   C46   1.455268 S    
Zn15  O3    1.944136 S    
C22   C50   1.445654 S    
C121  C129  1.401510 A    
Zn16  O34   1.943430 S    
C31   C47   1.387509 A    
Zn2   O44   1.942213 S    
Zn5   O47   1.942369 S    
C34   C37   1.348551 A    
C123  H51   1.083970 S    
N8    O67   1.301272 A    
Zn8   O20   1.916174 S    
Zn6   O48   1.943031 S    
C88   H48   1.111604 S    
Zn7   O45   1.942514 S    
C74   C77   1.540467 S    
O35   C23   1.275436 A    
C97   C105  1.418991 A    
C21   C51   1.445830 S    
C128  C136  1.401775 A    
C18   C54   1.445863 S    
O32   C20   1.275194 A    
C89   C109  1.405039 A    
C80   H24   1.110278 S    
C89   C97   1.406359 A    
C65   C70   1.405625 A    
N1    O53   1.300258 A    
O12   C4    1.286859 A    
C68   C71   1.398456 A    
O48   C18   1.272922 A    
C152  H87   1.110125 S    
O38   C12   1.272557 A    
C146  H63   1.109785 S    
Zn16  O10   1.915911 S    
C67   C72   1.405614 A    
Zn13  O3    1.944594 S    
C147  H66   1.110571 S    
C126  H54   1.083974 S    
C38   C81   1.489482 S    
Zn14  O4    1.944893 S    
C54   C70   1.412772 A    
N19   O73   1.301563 A    
C19   C53   1.445206 S    
C27   C32   1.348770 A    
C121  H49   1.084078 S    
C91   N3    1.435072 S    
C4    C107  1.478179 S    
C136  N24   1.442618 S    
C26   C42   1.387377 A    
C109  C113  1.438460 S    
Zn6   O18   1.916406 S    
C52   C68   1.407390 A    
O23   C11   1.274941 A    
C113  C119  1.200878 T    
N10   H61   1.030970 S    
C75   H35   1.111657 S    
N7    O65   1.301072 A    
C79   H39   1.111565 S    
O25   C13   1.274743 A    
C86   H30   1.111588 S    
C91   C99   1.409080 A    
C115  C117  1.201607 T    
C127  C135  1.401254 A    
N20   O76   1.301356 A    
C76   H36   1.111664 S    
C45   C61   1.412717 A    
C6    C138  1.464308 S    
O36   C24   1.276786 A    
C145  H58   1.110263 S    
C135  N23   1.443070 S    
C81   C86   1.540796 S    
C39   C84   1.493271 S    
Zn11  O1    1.944136 S    
C84   H44   1.111586 S    
O37   C11   1.272340 A    
C56   C72   1.412888 A    
Zn12  O2    1.943535 S    
O43   C13   1.272925 A    
O28   C16   1.275424 A    
C102  C108  1.412114 A    
C83   C88   1.540808 S    
Zn5   O3    1.945425 S    
Zn6   O4    1.944666 S    
C58   C61   1.405529 A    
C94   N6    1.435476 S    
C104  N16   1.427714 S    
C27   C80   1.489661 S    
C148  H70   1.107409 S    
O21   C9    1.275494 A    
C25   C78   1.493328 S    
C67   H11   1.082959 S    
N6    O64   1.301021 A    
C58   H2    1.082966 S    
C24   C52   1.455329 S    
C150  H78   1.110206 S    
C51   C67   1.412746 A    
C44   C60   1.412741 A    
O15   C5    1.283415 A    
C103  C107  1.415538 A    
C149  H74   1.109050 S    
C96   C112  1.408392 A    
N11   H65   1.029778 S    
N24   O83   1.301587 A    
C120  C144  1.433085 S    
C101  N13   1.424584 S    
C93   C111  1.407391 A    
C73   H17   1.112252 S    
C36   C52   1.396879 A    
N12   H69   1.031485 S    
Zn8   O50   1.942519 S    
Zn12  O6    1.915911 S    
Zn2   O2    1.944666 S    
N15   H81   1.031170 S    
O7    C1    1.286387 A    
O26   C14   1.274964 A    
Zn15  O31   1.943129 S    
C151  H82   1.109436 S    
Zn16  O32   1.943985 S    
C93   N5    1.436685 S    
C47   C63   1.412792 A    
N17   O69   1.301616 A    
C92   N4    1.437983 S    
C28   C44   1.387304 A    
O19   C7    1.281643 A    
Zn8   O4    1.945126 S    
C125  C133  1.401407 A    
C14   C42   1.445438 S    
N3    O58   1.300737 A    
C81   H41   1.111605 S    
O39   C9    1.273017 A    
C118  C142  1.432713 S    
O13   C5    1.282904 A    
C66   H10   1.082988 S    
O51   C21   1.272681 A    
C123  C141  1.393644 A    
C1    C106  1.477279 S    
C59   C64   1.405918 A    
O20   C8    1.282959 A    
O44   C14   1.272405 A    
C57   C62   1.398814 A    
C91   C109  1.405313 A    
C83   H27   1.111615 S    
C13   C43   1.445820 S    
C84   H28   1.112043 S    
O24   C12   1.275046 A    
Zn11  O27   1.943950 S    
C35   C40   1.348707 A    
C126  C134  1.402167 A    
C34   C50   1.387476 A    
C97   N9    1.426524 S    
C34   C85   1.489496 S    
Zn6   O52   1.942213 S    
N7    O66   1.301209 A    
C149  H76   1.111210 S    
C92   C100  1.409750 A    
C75   H19   1.111614 S    
C31   C76   1.489505 S    
C76   H20   1.111593 S    
C122  H50   1.084170 S    
C103  N15   1.427335 S    
C116  C118  1.201773 T    
C145  H60   1.112523 S    
C100  C106  1.413389 A    
C89   N1    1.436540 S    
C131  N19   1.442236 S    
C64   H8    1.082966 S    
C65   H9    1.082956 S    
Zn5   O49   1.942652 S    
C100  N12   1.425658 S    
N5    O61   1.301159 A    
C117  C141  1.432442 S    
C128  C144  1.393570 A    
C150  H80   1.111032 S    
O29   C17   1.276872 A    
O42   C16   1.272970 A    
N19   O74   1.301345 A    
C78   H38   1.111583 S    
Zn9   O21   1.943438 S    
C37   C53   1.387115 A    
N23   O82   1.301098 A    
C63   H7    1.082966 S    
N10   C146  1.447710 S    
C130  N18   1.442857 S    
Zn13  O33   1.943452 S    
C41   C57   1.407685 A    
C40   C83   1.489299 S    
N18   O72   1.300796 A    
C23   C49   1.445666 S    
C43   C59   1.412733 A    
C35   C88   1.489514 S    
N4    O60   1.301225 A    
C29   C45   1.387166 A    
C104  C108  1.417595 A    
C96   N8    1.439899 S    
C128  H56   1.084071 S    
Zn4   O38   1.942536 S    
N4    O59   1.300498 A    
Zn7   O19   1.916621 S    
C35   C51   1.387625 A    
C102  N14   1.426191 S    
O33   C21   1.274986 A    
O22   C10   1.277019 A    
C94   C102  1.409170 A    
C28   C79   1.489310 S    
C87   H31   1.111503 S    
C81   H25   1.111564 S    
C85   H29   1.110223 S    
N9    C145  1.450342 S    
C27   C43   1.387709 A    
C88   H32   1.111569 S    
N22   O79   1.301587 A    
N8    O68   1.301293 A    
N13   H73   1.030137 S    
C73   H33   1.111625 S    
C82   C85   1.540496 S    
C25   C41   1.396969 A    
Zn13  O11   1.915464 S    
C95   C111  1.408077 A    
Zn14  O12   1.915222 S    
C25   C30   1.380549 A    
O30   C18   1.275291 A    
Zn3   O43   1.943066 S    
