data_mof_unit_30629.cif
_audit_creation_date              2013-03-05T16:48:31-0500
_audit_creation_method            fapswitch 2.2
_symmetry_space_group_name_H-M    P1
_symmetry_Int_Tables_number       1
_space_group_crystal_system       triclinic
_cell_length_a                    10.797849
_cell_length_b                    14.823509
_cell_length_c                    14.893193
_cell_angle_alpha                 64.265463
_cell_angle_beta                  105.685126
_cell_angle_gamma                 102.248963
_cell_volume                      2055.04886644

loop_
_atom_site_label
_atom_site_type_symbol
_atom_site_description
_atom_site_fract_x
_atom_site_fract_y
_atom_site_fract_z
_atom_type_partial_charge
O1    O     O_R   0.455540 0.022090 0.338120 -0.606557
O2    O     O_R   0.544460 0.977910 0.661880 -0.606580
O3    O     O_R   0.512510 0.160150 0.379180 -0.523095
O4    O     O_R   0.487490 0.839850 0.620820 -0.523099
C1    C     C_R   0.478911 0.119393 0.312510 0.802009
C2    C     C_R   0.521087 0.880607 0.687490 0.802010
O5    O     O_R   0.291160 0.930970 0.479480 -0.589672
O6    O     O_R   0.708840 0.069030 0.520520 -0.589680
O7    O     O_R   0.348130 0.069020 0.520540 -0.531108
O8    O     O_R   0.651870 0.930980 0.479460 -0.531100
C3    C     C_R   0.263255 0.999520 0.501677 0.801821
C4    C     C_R   0.736746 0.000479 0.498326 0.801837
Cu1   Cu    Cu3+1 0.466270 0.918260 0.475690 1.017859
Cu2   Cu    Cu3+1 0.533730 0.081740 0.524310 1.017849
H1    H     H_    0.449214 0.173616 0.823296 0.159848
H2    H     H_    0.550943 0.826519 0.176550 0.159861
C5    C     C_R   0.367884 0.047433 0.783029 -0.093633
C6    C     C_R   0.632213 0.952658 0.216899 -0.093685
H3    H     H_    0.431687 0.996395 0.845145 0.142438
H4    H     H_    0.568448 0.003716 0.154773 0.142466
C7    C     C_R   0.275811 0.013194 0.715433 -0.148545
C8    C     C_R   0.724236 0.986861 0.284545 -0.148616
H5    H     H_    0.269214 0.935229 0.726479 0.127686
H6    H     H_    0.730837 0.064818 0.273525 0.127700
C9    C     C_R   0.193214 0.078917 0.633607 0.009982
C10   C     C_R   0.806794 0.921113 0.366378 0.009980
C11   C     C_R   0.201943 0.180436 0.621741 0.371082
C12   C     C_R   0.798063 0.819605 0.378213 0.371063
C13   C     C_R   0.294809 0.213064 0.691323 -0.200489
C14   C     C_R   0.705251 0.787015 0.308582 -0.200429
H7    H     H_    0.304476 0.290331 0.683159 0.180736
H8    H     H_    0.695594 0.709759 0.316716 0.180751
C15   C     C_R   0.377577 0.147205 0.770838 -0.192228
C16   C     C_R   0.622531 0.852899 0.229050 -0.192208
C17   C     C_R   0.966152 0.037812 0.560072 -0.135351
C18   C     C_R   0.033850 0.962182 0.439941 -0.135393
H9    H     H_    0.939895 0.065594 0.608136 0.160990
H10   H     H_    0.060104 0.934400 0.391878 0.160973
C19   C     C_R   0.870225 0.000263 0.496745 -0.066919
C20   C     C_R   0.129777 0.999734 0.503266 -0.066945
C21   C     C_R   0.903844 0.961222 0.436124 0.059472
C22   C     C_R   0.096159 0.038780 0.563884 0.059441
C23   C     C_R   0.462059 0.186923 0.204339 -0.064217
C24   C     C_R   0.537926 0.813078 0.795661 -0.064221
C25   C     C_R   0.359913 0.223091 0.028559 -0.162053
C26   C     C_R   0.640033 0.776915 0.971447 -0.162050
C27   C     C_R   0.388204 0.154061 0.129067 -0.196583
C28   C     C_R   0.611760 0.845943 0.870937 -0.196568
C29   C     C_R   0.513567 0.287703 0.177430 -0.161691
C30   C     C_R   0.486418 0.712299 0.822570 -0.161674
C31   C     C_R   0.481462 0.360065 0.077578 0.091535
C32   C     C_R   0.518505 0.639938 0.922424 0.091534
C33   C     C_R   0.402514 0.325873 0.002917 0.137930
C34   C     C_R   0.597437 0.674132 0.997089 0.137948
C35   C     C_R   0.521376 0.465181 0.050748 0.057714
C36   C     C_R   0.478586 0.534823 0.949256 0.057720
C37   C     C_R   0.398865 0.496858 0.877801 -0.135085
C38   C     C_R   0.601087 0.503147 0.122205 -0.135069
C39   C     C_R   0.363610 0.394540 0.903982 -0.186418
C40   C     C_R   0.636332 0.605466 0.096026 -0.186419
H11   H     H_    0.302613 0.369149 0.846557 0.175627
H12   H     H_    0.697315 0.630859 0.153455 0.175587
H13   H     H_    0.424322 0.692507 0.762720 0.178370
H14   H     H_    0.575680 0.307491 0.237275 0.178342
H15   H     H_    0.651112 0.924089 0.851702 0.167184
H16   H     H_    0.348848 0.075915 0.148304 0.167173
H17   H     H_    0.300451 0.196708 0.971460 0.161421
H18   H     H_    0.699478 0.803301 0.028550 0.161380
H19   H     H_    0.360088 0.543784 0.800406 0.183068
H20   H     H_    0.639859 0.456223 0.199603 0.183084
N1    N     N_R   0.584450 0.204570 0.560790 -0.254099
N2    N     N_R   0.415550 0.795430 0.439210 -0.254094
C41   C     C_R   0.732290 0.285016 0.662135 0.263136
C42   C     C_R   0.267733 0.714944 0.337910 0.263237
C43   C     C_R   0.684345 0.200298 0.639872 -0.051012
C44   C     C_R   0.315656 0.799679 0.360133 -0.050999
C45   C     C_R   0.519909 0.289025 0.505264 0.453777
C46   C     C_R   0.480106 0.710978 0.494752 0.453774
C47   C     C_R   0.550319 0.371434 0.535289 -0.145874
C48   C     C_R   0.449700 0.628550 0.464757 -0.145871
C49   C     C_R   0.666165 0.372251 0.608082 -0.038892
C50   C     C_R   0.333851 0.627713 0.391981 -0.038940
C51   C     C_R   0.474582 0.455487 0.491334 0.082545
C52   C     C_R   0.525425 0.544488 0.508728 0.082608
C53   C     C_R   0.651845 0.547344 0.566898 -0.101324
C54   C     C_R   0.348144 0.452616 0.433190 -0.101338
C55   C     C_R   0.715850 0.461590 0.621668 -0.061767
C56   C     C_R   0.284121 0.538363 0.378438 -0.061662
H21   H     H_    0.807484 0.467917 0.671775 0.212889
H22   H     H_    0.192437 0.532037 0.328378 0.212800
H23   H     H_    0.266928 0.867229 0.319033 0.171792
H24   H     H_    0.733047 0.132736 0.680958 0.171931
H25   H     H_    0.704757 0.615694 0.570997 0.224440
H26   H     H_    0.295235 0.384257 0.429109 0.224381
N3    N     N_R   0.556621 0.696951 0.594015 0.115816
O9    O     O_R   0.525309 0.619450 0.672892 -0.406947
O10   O     O_R   0.667875 0.749771 0.604998 -0.332829
N4    N     N_R   0.443395 0.303074 0.405996 0.115806
O11   O     O_R   0.332151 0.250240 0.394999 -0.332844
O12   O     O_R   0.474706 0.380591 0.327127 -0.406896
N5    N     N_R   0.848378 0.281128 0.738071 0.117690
O13   O     O_R   0.861185 0.202643 0.824138 -0.364981
O14   O     O_R   0.950422 0.343331 0.713334 -0.313756
N6    N     N_R   0.151607 0.718754 0.262044 0.117567
O15   O     O_R   0.138957 0.797000 0.175772 -0.364875
O16   O     O_R   0.049471 0.656837 0.286968 -0.313536
N7    N     N_R   0.118944 0.251012 0.540291 0.093280
O17   O     O_R   0.080399 0.246432 0.451537 -0.337913
O18   O     O_R   0.091976 0.326634 0.551397 -0.319334
N8    N     N_R   0.881009 0.749008 0.459685 0.093295
O19   O     O_R   0.919481 0.753556 0.548449 -0.337894
O20   O     O_R   0.908008 0.673396 0.448570 -0.319177

loop_
_geom_bond_atom_site_label_1
_geom_bond_atom_site_label_2
_geom_bond_distance
_ccdc_geom_bond_type
C14   H8    1.082930 S    
C35   C36   1.426057 A    
N5    O13   1.301197 A    
C11   C13   1.407461 A    
C41   C43   1.395700 A    
Cu2   N1    2.045819 S    
N3    O9    1.300808 A    
N2    C44   1.353503 A    
N6    O16   1.300943 A    
C33   C39   1.388509 A    
C19   C21   1.414887 A    
C34   C40   1.388508 A    
O5    C3    1.306962 A    
C42   C44   1.395578 A    
O1    C1    1.307462 A    
C17   H9    1.085198 S    
C46   C48   1.422963 A    
C37   C39   1.385301 A    
C38   C40   1.385302 A    
C13   C15   1.395779 A    
C54   C56   1.387957 A    
C36   C37   1.417541 A    
C40   H12   1.084764 S    
O4    Cu1   1.933618 S    
C17   C22   1.386781 A    
N8    O19   1.301276 A    
N2    C46   1.377158 A    
C54   H26   1.070498 S    
H2    C16   1.082706 S    
C53   H25   1.070486 S    
C29   C31   1.405729 A    
C25   H17   1.084160 S    
C30   C32   1.405725 A    
N7    O17   1.301349 A    
C28   H15   1.083194 S    
C27   H16   1.083196 S    
C31   C35   1.428580 A    
C48   C52   1.443718 A    
C25   C27   1.391510 A    
C1    C23   1.465900 S    
C25   C33   1.403964 A    
N5    O14   1.301305 A    
C29   H14   1.072659 S    
C2    C24   1.465902 S    
Cu1   Cu2   2.723451 S    
C30   H13   1.072673 S    
N7    O18   1.301675 A    
C18   C21   1.386766 A    
O2    C2    1.307458 A    
C5    C15   1.393794 A    
C42   C50   1.416611 A    
C41   C49   1.416690 A    
N6    O15   1.301163 A    
C32   C34   1.419006 A    
C45   C47   1.422966 A    
C26   C28   1.391511 A    
C39   H11   1.084757 S    
C14   C16   1.395759 A    
C53   C55   1.387950 A    
C18   C20   1.398303 A    
C52   C53   1.408412 A    
C48   C50   1.418352 A    
C47   C49   1.418424 A    
C23   C29   1.396331 A    
C12   N8    1.441178 S    
C5    C7    1.395700 A    
C31   C33   1.418995 A    
C17   C19   1.398307 A    
O7    Cu2   1.960371 S    
C26   H18   1.084165 S    
C6    C16   1.393808 A    
C51   C52   1.421847 A    
C11   N7    1.441228 S    
C46   N3    1.434188 S    
O6    C4    1.306954 A    
C26   C34   1.403958 A    
C45   N4    1.434176 S    
O7    C3    1.300657 A    
C49   C55   1.398247 A    
O3    Cu2   1.933618 S    
O8    C4    1.300662 A    
C43   H24   1.082259 S    
O4    C2    1.309851 A    
C56   H22   1.080265 S    
N4    O12   1.300838 A    
C7    H5    1.083561 S    
C8    H6    1.083550 S    
O1    Cu1   1.946532 S    
N1    C45   1.377092 A    
C42   N6    1.435513 S    
C24   C30   1.396322 A    
C7    C9    1.407011 A    
O6    Cu2   1.957539 S    
C41   N5    1.435660 S    
C6    C8    1.395679 A    
C38   H20   1.074329 S    
O3    C1    1.309847 A    
O8    Cu1   1.960371 S    
C9    C22   1.487976 S    
N3    O10   1.299536 A    
Cu1   N2    2.045818 S    
C9    C11   1.422191 A    
C10   C12   1.422178 A    
C4    C19   1.448531 S    
C18   H10   1.085193 S    
C12   C14   1.407429 A    
C13   H7    1.082938 S    
N1    C43   1.353501 A    
C50   C56   1.398193 A    
C20   C22   1.414894 A    
C5    H3    1.082406 S    
C6    H4    1.082366 S    
C3    C20   1.448543 S    
O2    Cu2   1.946532 S    
N8    O20   1.301748 A    
C44   H23   1.082286 S    
C47   C51   1.443718 A    
C32   C36   1.428570 A    
O5    Cu1   1.957538 S    
C51   C54   1.408452 A    
N4    O11   1.299582 A    
C8    C10   1.406989 A    
C35   C38   1.417541 A    
C55   H21   1.080217 S    
C37   H19   1.074322 S    
C23   C27   1.398564 A    
H1    C15   1.082752 S    
C24   C28   1.398568 A    
C10   C21   1.487943 S    
