data_mof_unit_42469.cif
_audit_creation_date              2012-12-10T18:42:27-0500
_audit_creation_method            fapswitch 2.2
_symmetry_space_group_name_H-M    P1
_symmetry_Int_Tables_number       1
_space_group_crystal_system       triclinic
_cell_length_a                    8.591955
_cell_length_b                    10.719348
_cell_length_c                    9.871042
_cell_angle_alpha                 90.242744
_cell_angle_beta                  98.87239
_cell_angle_gamma                 90.428958
_cell_volume                      898.207649974

loop_
_atom_site_label
_atom_site_type_symbol
_atom_type_description
_atom_site_fract_x
_atom_site_fract_y
_atom_site_fract_z
_atom_type_partial_charge
C1    C     C_R   0.499657 0.259959 0.499734 0.877718
C2    C     C_R   0.500343 0.740041 0.500266 0.877718
C3    C     C_R   0.201109 0.499918 0.463980 0.979886
C4    C     C_R   0.798891 0.500082 0.536020 0.979887
C5    C     C_2   0.035793 0.499951 0.444748 -0.362268
C6    C     C_2   0.964207 0.500049 0.555252 -0.362268
C7    C     C_R   0.523278 0.063544 0.381082 -0.140383
C8    C     C_R   0.476722 0.936456 0.618918 -0.140383
C9    C     C_R   0.523927 0.935764 0.381449 -0.179384
C10   C     C_R   0.476073 0.064236 0.618551 -0.179384
C11   C     C_R   0.500538 0.872543 0.500347 -0.025554
C12   C     C_R   0.499462 0.127456 0.499653 -0.025554
C13   C     C_R   0.598792 0.577122 0.086143 -0.201645
C14   C     C_R   0.401208 0.422877 0.913857 -0.201645
C15   C     C_R   0.599100 0.577345 0.942739 0.447478
C16   C     C_R   0.400900 0.422655 0.057260 0.447478
H1    H     H_    0.973483 0.499928 0.340059 0.201072
H2    H     H_    0.026517 0.500071 0.659941 0.201072
H3    H     H_    0.542256 0.111827 0.288717 0.186316
H4    H     H_    0.457744 0.888173 0.711283 0.186316
H5    H     H_    0.543340 0.886944 0.289234 0.171511
H6    H     H_    0.456660 0.113056 0.710766 0.171511
H7    H     H_    0.677632 0.638673 0.152050 0.181380
H8    H     H_    0.322368 0.361327 0.847950 0.181380
N1    N     N_R   0.499960 0.499970 0.857200 -0.134687
N2    N     N_R   0.500040 0.500030 0.142800 -0.134687
O1    O     O_R   0.499990 0.316750 0.614620 -0.637061
O2    O     O_R   0.500010 0.683250 0.385380 -0.637061
O3    O     O_R   0.499990 0.316780 0.385290 -0.582639
O4    O     O_R   0.500010 0.683220 0.614710 -0.582639
O5    O     O_R   0.271750 0.499990 0.587840 -0.628030
O6    O     O_R   0.728250 0.500010 0.412160 -0.628030
O7    O     O_R   0.271750 0.500010 0.358510 -0.566890
O8    O     O_R   0.728250 0.499990 0.641490 -0.566890
Zn1   Zn    Zn3+2 0.500000 0.499980 0.653120 1.009786
Zn2   Zn    Zn3+2 0.500000 0.500020 0.346880 1.009786
Cl1   Cl    Cl    0.729572 0.679022 0.877232 -0.596606
Cl2   Cl    Cl    0.270428 0.320978 0.122768 -0.596605

loop_
_geom_bond_atom_site_label_1
_geom_bond_atom_site_label_2
_ccdc_geom_bond_type
C13   N2    A    
C4    O8    A    
C7    H3    S    
C2    O4    A    
O2    Zn2   S    
C1    O3    A    
C4    O6    A    
C10   H6    S    
C3    O5    A    
C9    C11   A    
O3    Zn2   S    
C9    H5    S    
C8    H4    S    
C1    C12   S    
C10   C12   A    
O4    Zn1   S    
N1    Zn1   S    
C8    C11   A    
C2    C11   S    
O6    Zn2   S    
N2    Zn2   S    
O5    Zn1   S    
C13   C15   A    
C14   N1    A    
C16   N2    A    
C5    C6    D    
C6    H2    S    
C14   C16   A    
C7    C12   A    
C15   N1    A    
C5    H1    S    
C3    O7    A    
C7    C9    A    
O7    Zn2   S    
C13   H7    S    
C4    C6    S    
O8    Zn1   S    
C14   H8    S    
C1    O1    A    
C15   Cl1   S    
C2    O2    A    
O1    Zn1   S    
C8    C10   A    
C16   Cl2   S    
C3    C5    S    
