data_mof_unit_23361.cif
_audit_creation_date              2012-12-10T17:05:24-0500
_audit_creation_method            fapswitch 2.2
_symmetry_space_group_name_H-M    P1
_symmetry_Int_Tables_number       1
_space_group_crystal_system       triclinic
_cell_length_a                    10.08818
_cell_length_b                    10.667551
_cell_length_c                    15.523845
_cell_angle_alpha                 90.596678
_cell_angle_beta                  67.651366
_cell_angle_gamma                 90.782133
_cell_volume                      1544.96366022

loop_
_atom_site_label
_atom_site_type_symbol
_atom_type_description
_atom_site_fract_x
_atom_site_fract_y
_atom_site_fract_z
_atom_type_partial_charge
C1    C     C_R   0.499825 0.737379 0.502467 0.907540
C2    C     C_R   0.708413 0.400533 0.040070 0.171116
C3    C     C_R   0.571505 0.450555 0.091909 0.098257
C4    C     C_R   0.409982 0.498192 0.675792 0.839255
C5    C     C_R   0.810697 0.390665 0.080740 -0.229921
C6    C     C_R   0.777501 0.429352 0.172677 -0.178349
C7    C     C_R   0.546128 0.498826 0.180473 -0.256080
C8    C     C_2   0.579555 0.069313 0.543024 -0.163456
C9    C     C_2   0.479251 0.132416 0.525769 -0.404195
C10   C     C_2   0.563569 0.934068 0.556604 0.264972
C11   C     C_2   0.503167 0.870388 0.505093 -0.402548
C12   C     C_R   0.405221 0.451215 0.915410 0.091101
C13   C     C_2   0.078131 0.399972 0.492463 -0.143749
C14   C     C_2   0.944808 0.406884 0.471413 0.016740
C15   C     C_R   0.495971 0.262746 0.505020 0.971531
C16   C     C_R   0.589925 0.499015 0.324101 0.882670
C17   C     C_R   0.353614 0.488563 0.777092 -0.059574
C18   C     C_R   0.643351 0.481401 0.223232 -0.065893
C19   C     C_R   0.165720 0.514812 0.928850 -0.220220
C20   C     C_R   0.210936 0.515743 0.832158 -0.188311
C21   C     C_R   0.447983 0.453850 0.818771 -0.254482
C22   C     C_3   0.666790 0.946427 0.678477 -0.801768
C23   C     C_R   0.262620 0.485801 0.970790 0.174290
C24   C     C_2   0.927252 0.304574 0.411732 0.417172
C25   C     C_2   0.852075 0.579139 0.573288 0.520372
C26   C     C_R   0.504086 0.425181 0.957726 0.059843
C27   C     C_R   0.464765 0.453118 0.053423 0.065617
C28   C     C_R   0.319620 0.480558 0.107830 -0.219838
C29   C     C_R   0.219934 0.494712 0.067002 -0.232424
C30   C     C_R   0.641144 0.373732 0.907657 -0.201180
C31   C     C_R   0.740664 0.360227 0.948860 -0.225661
H1    H     H_    0.110353 0.517654 0.110612 0.150684
H2    H     H_    0.844151 0.319967 0.908602 0.155940
H3    H     H_    0.056744 0.541461 0.970664 0.150530
H4    H     H_    0.136225 0.541888 0.800691 0.176739
H5    H     H_    0.557548 0.435859 0.774249 0.183300
H6    H     H_    0.279167 0.488751 0.182725 0.152366
H7    H     H_    0.672988 0.339046 0.837240 0.160304
H8    H     H_    0.551595 0.795907 0.654152 0.229725
H9    H     H_    0.697833 0.883927 0.724306 0.247181
H10   H     H_    0.582429 0.011060 0.722885 0.246825
H11   H     H_    0.763818 0.000209 0.635115 0.237543
H12   H     H_    0.914431 0.349674 0.042415 0.148590
H13   H     H_    0.975818 0.214277 0.411302 0.020278
H14   H     H_    0.825730 0.677119 0.572345 0.064616
H15   H     H_    0.674807 0.116113 0.544673 0.174666
H16   H     H_    0.378402 0.088673 0.531301 0.156018
H17   H     H_    0.463598 0.916005 0.457520 0.135706
H18   H     H_    0.123403 0.308865 0.494366 0.143593
H19   H     H_    0.115856 0.582814 0.482215 0.161827
H20   H     H_    0.449066 0.549043 0.218623 0.153809
H21   H     H_    0.854349 0.415057 0.204711 0.199028
N1    N     N_2   0.148330 0.498670 0.499030 -0.163748
N2    N     N_2   0.852680 0.498640 0.499000 -0.163889
N3    N     N_2   0.613493 0.871504 0.620002 -0.288145
O1    O     O_R   0.386950 0.680940 0.500010 -0.611936
O2    O     O_2   0.869371 0.537897 0.641432 -0.604330
O3    O     O_R   0.613110 0.680900 0.499990 -0.624610
O4    O     O_R   0.322330 0.500030 0.632270 -0.596467
O5    O     O_R   0.548480 0.499990 0.632240 -0.626344
O6    O     O_R   0.386890 0.319100 0.500010 -0.624332
O7    O     O_R   0.613050 0.319060 0.499990 -0.576588
O8    O     O_R   0.451520 0.500010 0.367760 -0.620759
O9    O     O_R   0.677670 0.499970 0.367730 -0.563087
O10   O     O_2   0.866460 0.321319 0.358490 -0.557098
Zn1   Zn    Zn3+2 0.349000 0.500030 0.500020 0.955535
Zn2   Zn    Zn3+2 0.651000 0.499970 0.499980 0.983710

loop_
_geom_bond_atom_site_label_1
_geom_bond_atom_site_label_2
_ccdc_geom_bond_type
C26   C27   A    
C19   C23   A    
C31   H2    S    
C26   C30   A    
C22   N3    S    
N1    Zn1   S    
C16   O8    A    
C3    C7    A    
C19   C20   A    
C1    C11   S    
C7    C18   A    
C22   H9    S    
C4    O5    A    
C3    C27   A    
C2    C3    A    
C9    C15   S    
O8    Zn1   S    
C7    H20   S    
C21   H5    S    
C1    O3    A    
C10   N3    S    
C15   O6    A    
C12   C23   A    
C11   H17   S    
C22   H11   S    
C25   O2    D    
C28   H6    S    
C12   C21   A    
C13   H18   S    
C4    C17   S    
C23   C29   A    
C4    O4    A    
C8    C10   S    
C28   C29   A    
C14   N2    D    
C1    O1    A    
C9    H16   S    
C29   H1    S    
C13   N1    D    
O4    Zn1   S    
C5    H12   S    
C30   C31   A    
C24   H13   S    
C6    C18   A    
O1    Zn1   S    
C22   H10   S    
O7    Zn2   S    
C10   C11   D    
C2    C5    A    
O9    Zn2   S    
C25   H14   S    
O3    Zn2   S    
C17   C20   A    
C25   N2    S    
C30   H7    S    
C16   C18   S    
C14   C24   S    
C27   C28   A    
C5    C6    A    
C24   O10   D    
C8    C9    D    
N2    Zn2   S    
C16   O9    A    
C8    H15   S    
C6    H21   S    
H19   N1    S    
C13   C14   S    
C20   H4    S    
O6    Zn1   S    
C15   O7    A    
H8    N3    S    
O5    Zn2   S    
C12   C26   A    
C2    C31   A    
C19   H3    S    
C17   C21   A    
