data_mof_unit_9357.cif
_audit_creation_date              2013-03-05T15:43:50-0500
_audit_creation_method            fapswitch 2.2
_symmetry_space_group_name_H-M    P1
_symmetry_Int_Tables_number       1
_space_group_crystal_system       triclinic
_cell_length_a                    10.059459
_cell_length_b                    10.661537
_cell_length_c                    15.498342
_cell_angle_alpha                 90.558721
_cell_angle_beta                  67.396446
_cell_angle_gamma                 90.284626
_cell_volume                      1534.43339829

loop_
_atom_site_label
_atom_site_type_symbol
_atom_site_description
_atom_site_fract_x
_atom_site_fract_y
_atom_site_fract_z
_atom_type_partial_charge
O1    O     O_R   0.386950 0.680940 0.500010 -0.585813
O2    O     O_R   0.613110 0.680900 0.499990 -0.616926
C1    C     C_R   0.500662 0.737554 0.499923 0.953148
O3    O     O_R   0.322330 0.500030 0.632270 -0.568614
O4    O     O_R   0.548480 0.499990 0.632240 -0.599046
C2    C     C_R   0.409159 0.501452 0.676320 0.925422
Zn1   Zn    Zn3+2 0.349000 0.500030 0.500020 1.008917
Zn2   Zn    Zn3+2 0.651000 0.499970 0.499980 1.018340
O5    O     O_R   0.386890 0.319100 0.500010 -0.611637
O6    O     O_R   0.613050 0.319060 0.499990 -0.551862
O7    O     O_R   0.451520 0.500010 0.367760 -0.626423
O8    O     O_R   0.677670 0.499970 0.367730 -0.569270
C3    C     C_R   0.494198 0.263323 0.508819 0.969886
C4    C     C_R   0.590327 0.499004 0.323727 0.866748
C5    C     C_R   0.350561 0.496862 0.778786 -0.191093
C6    C     C_R   0.643857 0.480954 0.222294 -0.054221
C7    C     C_R   0.163180 0.525084 0.932723 -0.281192
C8    C     C_R   0.208688 0.533812 0.835614 0.315019
C9    C     C_R   0.442886 0.453466 0.820095 -0.241985
C10   C     C_R   0.400863 0.449738 0.916957 0.096609
C11   C     C_R   0.258822 0.487331 0.973499 0.109364
C12   C     C_R   0.500334 0.420466 0.958620 0.067601
C13   C     C_R   0.461483 0.447563 0.054728 0.066233
C14   C     C_R   0.315719 0.474678 0.110390 -0.207165
C15   C     C_R   0.215815 0.492772 0.070161 -0.195004
C16   C     C_R   0.638201 0.368535 0.907563 -0.178375
C17   C     C_R   0.739156 0.355292 0.947995 -0.150010
C18   C     C_R   0.707818 0.397061 0.039118 0.169817
C19   C     C_R   0.569592 0.446049 0.092185 0.090219
C20   C     C_R   0.812506 0.390581 0.078299 -0.202938
C21   C     C_R   0.780008 0.431040 0.170165 -0.196997
C22   C     C_R   0.544522 0.495714 0.180584 -0.242439
H1    H     H_    0.106243 0.517440 0.114626 0.149236
H2    H     H_    0.446044 0.545291 0.219359 0.157592
H3    H     H_    0.859315 0.420221 0.200726 0.194873
H4    H     H_    0.843494 0.315201 0.906901 0.173072
H5    H     H_    0.055845 0.556435 0.976633 0.182618
H6    H     H_    0.551215 0.429385 0.774923 0.206984
H7    H     H_    0.275447 0.480957 0.185655 0.146429
H8    H     H_    0.670028 0.334158 0.836821 0.184576
H9    H     H_    0.917915 0.351445 0.038745 0.150646
C23   C     C_2   0.561831 0.066290 0.561373 0.355458
C24   C     C_2   0.476739 0.132627 0.529797 -0.459519
H10   H     H_    0.386793 0.089447 0.518629 0.163334
C25   C     C_2   0.555204 0.929738 0.558011 -0.180484
C26   C     C_2   0.502448 0.870358 0.501547 -0.356290
H11   H     H_    0.597664 0.876577 0.601294 0.197054
H12   H     H_    0.461637 0.916794 0.454943 0.146292
C27   C     C_2   0.104673 0.422814 0.450608 -0.170834
N1    N     N_2   0.148330 0.498670 0.499030 -0.182245
H13   H     H_    0.182927 0.358429 0.403348 0.177014
H14   H     H_    0.072937 0.553181 0.548894 0.197878
C28   C     C_2   0.951076 0.413992 0.458232 -0.012073
N2    N     N_2   0.852680 0.498640 0.499000 -0.213470
H15   H     H_    0.883898 0.578562 0.523700 0.169698
N3    N     N_R   0.654647 0.124147 0.601681 0.233947
O9    O     O_R   0.769980 0.065840 0.598176 -0.342644
O10   O     O_R   0.608767 0.219115 0.658728 -0.414583
C29   C     C_2   0.918834 0.301803 0.413104 0.991695
O11   O     O_2   0.955408 0.198439 0.429453 -0.591857
O12   O     O_R   0.857477 0.313610 0.346900 -0.807667
H16   H     H_    0.843518 0.229767 0.320051 0.326627
N4    N     N_R   0.113691 0.588979 0.797225 0.215856
O13   O     O_R   0.157842 0.682797 0.740010 -0.373880
O14   O     O_R   0.976656 0.563543 0.833503 -0.401646

loop_
_geom_bond_atom_site_label_1
_geom_bond_atom_site_label_2
_geom_bond_distance
_ccdc_geom_bond_type
O4    Zn2   1.907951 S    
N1    H14   1.027257 S    
C13   C14   1.415914 A    
N4    O14   1.301302 A    
C20   H9    1.083504 S    
C9    H6    1.075350 S    
C17   H4    1.084085 S    
C6    C22   1.393294 A    
C1    C26   1.416021 S    
C9    C10   1.395373 A    
O8    C4    1.302907 A    
Zn2   O8    1.962232 S    
O12   H16   1.014059 S    
C27   H13   1.086142 S    
C18   C20   1.405590 A    
C7    C8    1.398579 A    
C28   C29   1.476229 S    
C14   C15   1.386301 A    
C29   O11   1.222765 D    
C7    H5    1.083964 S    
C28   N2    1.307824 D    
C10   C11   1.416518 A    
C6    C21   1.399996 A    
Zn1   O7    1.907949 S    
C16   H8    1.078139 S    
C16   C17   1.391506 A    
O4    C2    1.301982 A    
O3    Zn1   1.962235 S    
C27   C28   1.506187 S    
C13   C19   1.416201 A    
O3    C2    1.298947 A    
C18   C19   1.415056 A    
N3    O10   1.301305 A    
O2    C1    1.285334 A    
C19   C22   1.393756 A    
C21   H3    1.080071 S    
C25   H11   1.087996 S    
C24   H10   1.084097 S    
C20   C21   1.397035 A    
C5    C8    1.414308 A    
O7    C4    1.297326 A    
C4    C6    1.463796 S    
C8    N4    1.436181 S    
C29   O12   1.392734 S    
C15   H1    1.083718 S    
C23   C24   1.344314 D    
C7    C11   1.401153 A    
N4    O13   1.301611 A    
C26   H12   1.082716 S    
C25   C26   1.338319 D    
C3    C24   1.428516 S    
C14   H7    1.079256 S    
N3    O9    1.301346 A    
Zn2   O6    1.964324 S    
C27   N1    1.283781 D    
C12   C16   1.418304 A    
Zn2   N2    2.023122 S    
C17   C18   1.392493 A    
Zn1   O5    1.968131 S    
O5    C3    1.287933 A    
N2    H15   1.026942 S    
O1    Zn1   1.964324 S    
C11   C15   1.391108 A    
C23   N3    1.441401 S    
C2    C5    1.467465 S    
C5    C9    1.397721 A    
O6    C3    1.292298 A    
C12   C13   1.414246 A    
O2    Zn2   1.968130 S    
Zn1   N1    2.024558 S    
C10   C12   1.421013 A    
O1    C1    1.290258 A    
C23   C25   1.458390 S    
C22   H2    1.078542 S    
