data_mof_unit_47455.cif
_audit_creation_date              2012-12-11T15:59:49-0500
_audit_creation_method            fapswitch 2.2
_symmetry_space_group_name_H-M    P1
_symmetry_Int_Tables_number       1
_space_group_crystal_system       triclinic
_cell_length_a                    10.701074
_cell_length_b                    10.781501
_cell_length_c                    17.017433
_cell_angle_alpha                 100.115505
_cell_angle_beta                  100.160896
_cell_angle_gamma                 60.377825
_cell_volume                      1670.99369284

loop_
_atom_site_label
_atom_site_type_symbol
_atom_type_description
_atom_site_fract_x
_atom_site_fract_y
_atom_site_fract_z
_atom_type_partial_charge
C1    C     C_R   0.350260 0.783982 0.404631 0.589331
C2    C     C_R   0.841587 0.326087 0.328265 0.007707
C3    C     C_R   0.291977 0.914715 0.180253 -0.000572
C4    C     C_R   0.365389 0.342759 0.358802 0.587849
C5    C     C_R   0.428751 0.865767 0.226057 0.007456
C6    C     C_R   0.434601 0.874419 0.310330 0.041620
C7    C     C_R   0.185314 0.922661 0.296052 -0.150205
C8    C     C_R   0.170351 0.949281 0.217598 -0.159841
C9    C     C_R   0.560338 0.798631 0.191654 -0.083537
C10   C     C_R   0.690294 0.760315 0.240343 -0.141016
C11   C     C_R   0.690667 0.801019 0.322545 -0.141814
C12   C     C_R   0.793946 0.249254 0.187762 0.017989
C13   C     C_R   0.562006 0.864259 0.358230 0.048577
C14   C     C_R   0.319534 0.875002 0.341297 0.037277
C15   C     C_R   0.299319 0.289716 0.800561 -0.036614
C16   C     C_R   0.778224 0.373856 0.404015 0.555599
C17   C     C_R   0.420890 0.184283 0.761018 0.024646
C18   C     C_R   0.481046 0.227903 0.712605 0.038553
C19   C     C_R   0.265242 0.461916 0.713503 -0.110650
C20   C     C_R   0.219346 0.429979 0.775112 -0.002759
C21   C     C_R   0.485792 0.036332 0.769518 -0.110395
C22   C     C_R   0.617470 0.938306 0.740285 -0.062718
C23   C     C_R   0.812665 0.229373 0.269497 0.002830
C24   C     C_R   0.690104 0.986794 0.703902 0.030414
C25   C     C_R   0.623690 0.132169 0.692855 -0.107321
C26   C     C_R   0.391528 0.360417 0.679719 -0.037812
C27   C     C_1   0.818083 0.342573 0.709067 -0.064829
C28   C     C_R   0.382342 0.713494 0.631320 0.529114
C29   C     C_1   0.844433 0.313790 0.776717 -0.060358
C30   C     C_1   0.360102 0.761976 0.713910 -0.057574
C31   C     C_1   0.326957 0.808829 0.780996 -0.041613
C32   C     C_R   0.895225 0.310150 0.088750 0.571927
C33   C     C_R   0.290546 0.260720 0.121914 0.564879
C34   C     C_R   0.892476 0.409552 0.306015 -0.145554
C35   C     C_R   0.263399 0.947591 0.096986 0.542175
C36   C     C_R   0.885201 0.297694 0.859230 0.560033
C37   C     C_R   0.279911 0.257389 0.876598 0.540072
C38   C     C_R   0.281662 0.879662 0.858056 0.570386
C39   C     C_R   0.411455 0.377365 0.600175 0.536203
C40   C     C_R   0.773724 0.380802 0.629704 0.534746
C41   C     C_1   0.323894 0.316211 0.276914 -0.037460
C42   C     C_1   0.304183 0.291556 0.206117 -0.043758
C43   C     C_R   0.846861 0.334224 0.166831 0.037656
C44   C     C_2   0.562478 0.928341 0.442935 0.286450
C45   C     C_R   0.899282 0.409959 0.226589 -0.161307
C46   C     C_2   0.083012 0.542829 0.806978 0.292289
C47   C     C_2   0.830464 0.886665 0.672519 0.247153
C48   C     C_2   0.661676 0.224869 0.051233 0.293146
C49   C     C_3   0.750331 0.925772 0.084425 -0.302974
C50   C     C_3   0.879366 0.854801 0.035154 -0.411974
C51   C     C_R   0.741152 0.169411 0.129345 0.050080
C52   C     C_R   0.759916 0.038694 0.148475 0.009709
C53   C     C_R   0.797692 0.009426 0.228794 -0.125220
C54   C     C_R   0.812603 0.108071 0.289112 -0.111298
Cr1   Cr    Cr6+3 0.608100 0.610860 0.522250 1.066580
Cr2   Cr    Cr6+3 0.288890 0.599990 0.488420 1.027447
Cr3   Cr    Cr6+3 0.603040 0.289190 0.489390 1.007112
Cr4   Cr    Cr6+3 0.053960 0.052250 0.967380 1.025662
Cr5   Cr    Cr6+3 0.059890 0.373160 0.992710 1.017341
Cr6   Cr    Cr6+3 0.373370 0.061690 0.991710 0.980309
H1    H     H_    0.923159 0.478220 0.350017 0.143254
H2    H     H_    0.842554 0.078335 0.349773 0.131653
H3    H     H_    0.094843 0.928927 0.319622 0.133423
H4    H     H_    0.566174 0.766962 0.128087 0.160565
H5    H     H_    0.064487 0.988078 0.184173 0.147215
H6    H     H_    0.664233 0.905504 0.479237 0.078632
H7    H     H_    0.006030 0.515256 0.821719 0.137908
H8    H     H_    0.891044 0.928039 0.651077 0.101245
H9    H     H_    0.654822 0.153284 0.999460 0.117317
H10   H     H_    0.883209 0.934540 0.003717 0.164524
H11   H     H_    0.981619 0.802694 0.074878 0.178856
H12   H     H_    0.790862 0.706239 0.213609 0.106480
H13   H     H_    0.870446 0.771474 0.989490 0.151052
H14   H     H_    0.750312 0.840181 0.111801 0.138073
H15   H     H_    0.648028 0.971817 0.044402 0.170722
H16   H     H_    0.791335 0.783926 0.358128 0.083867
H17   H     H_    0.198600 0.564450 0.689334 0.192194
H18   H     H_    0.433509 0.995697 0.797510 0.142690
H19   H     H_    0.663423 0.825685 0.747695 0.163267
H20   H     H_    0.681072 0.168163 0.664937 0.130647
H21   H     H_    0.950797 0.466873 0.212421 0.133982
H22   H     H_    0.820351 0.908208 0.245264 0.115836
O1    O     O_R   0.749810 0.499790 0.438040 -0.508655
O2    O     O_R   0.411730 0.181020 0.091530 -0.506775
O3    O     O_R   0.365010 0.944360 0.063320 -0.527266
O4    O     O_R   0.477660 0.726260 0.439290 -0.478176
O5    O     O_R   0.159380 0.906670 0.876210 -0.447913
O6    O     O_R   0.930820 0.177420 0.886730 -0.487544
O7    O     O_R   0.910360 0.395420 0.895720 -0.532776
O8    O     O_R   0.186010 0.361730 0.919870 -0.488328
O9    O     O_R   0.400000 0.173010 0.914630 -0.510007
O10   O     O_R   0.354140 0.936940 0.899340 -0.535851
O11   O     O_3   0.162410 0.162370 0.983930 -0.308303
O12   O     O_R   0.298970 0.468800 0.557390 -0.496484
O13   O     O_R   0.260150 0.743000 0.412270 -0.525258
O14   O     O_R   0.297740 0.466550 0.394720 -0.493844
O15   O     O_R   0.488080 0.253500 0.386430 -0.490854
O16   O     O_R   0.722670 0.303800 0.421940 -0.509906
O17   O     O_R   0.751130 0.502220 0.613520 -0.479196
O18   O     O_R   0.478890 0.728510 0.601960 -0.472992
O19   O     O_R   0.261470 0.745430 0.587750 -0.508891
O20   O     O_2   0.449696 0.010239 0.472350 -0.479096
O21   O     O_2   0.055137 0.668485 0.816567 -0.474033
O22   O     O_2   0.878512 0.757047 0.668382 -0.488311
O23   O     O_R   0.489400 0.255930 0.561910 -0.474445
O24   O     O_2   0.598724 0.353410 0.044695 -0.485604
O25   O     O_R   0.723890 0.306050 0.584610 -0.549101
O26   O     O_3   0.500010 0.500010 0.500020 -0.295912
O27   O     O_R   0.171100 0.914680 0.053100 -0.501238
O28   O     O_R   0.941680 0.184840 0.050710 -0.534451
O29   O     O_R   0.922080 0.403420 0.072610 -0.529403
O30   O     O_R   0.196880 0.369150 0.083850 -0.473940

loop_
_geom_bond_atom_site_label_1
_geom_bond_atom_site_label_2
_ccdc_geom_bond_type
C36   O7    A    
Cr2   O13   S    
Cr3   O23   S    
C32   O29   A    
C27   C29   T    
Cr4   O27   S    
C35   O3    A    
C41   C42   T    
C44   H6    S    
C19   C20   A    
C18   C26   A    
C48   H9    S    
C16   O16   A    
Cr4   O5    S    
C40   O17   A    
C7    C8    A    
C53   C54   A    
C36   O6    A    
Cr2   O12   S    
C12   C23   A    
C32   O28   A    
C37   O8    A    
C33   C42   S    
Cr4   O11   S    
C22   H19   S    
C12   C43   A    
C11   H16   S    
C30   C31   T    
Cr6   O2    S    
C26   C39   S    
C4    C41   S    
C9    H4    S    
C38   O10   A    
C15   C17   A    
Cr5   O7    S    
C19   H17   S    
C19   C26   A    
Cr2   O26   S    
C4    O14   A    
C28   O19   A    
C7    C14   A    
C48   O24   D    
C21   H18   S    
Cr5   O29   S    
C49   H15   S    
C2    C16   S    
C9    C10   A    
C35   O27   A    
Cr6   O11   S    
C28   O18   A    
C8    H5    S    
C25   H20   S    
C4    O15   A    
C18   C25   A    
Cr5   O30   S    
Cr6   O10   S    
C15   C20   A    
C48   C51   S    
C37   O9    A    
C51   C52   A    
C24   C25   A    
C3    C8    A    
C50   H13   S    
C33   O30   A    
C44   O20   D    
C54   H2    S    
C16   O1    A    
C17   C21   A    
C53   H22   S    
Cr5   O8    S    
Cr1   O18   S    
C50   H11   S    
C39   O12   A    
C5    C9    A    
C6    C14   A    
C29   C36   S    
C3    C35   S    
C27   C40   S    
C1    O13   A    
C49   C52   S    
Cr3   O15   S    
C17   C18   A    
C34   C45   A    
C43   C45   A    
C7    H3    S    
C40   O25   A    
Cr3   O25   S    
C22   C24   A    
Cr1   O1    S    
C47   H8    S    
C12   C51   A    
C52   C53   A    
C23   C54   A    
Cr6   O9    S    
C1    O4    A    
C39   O23   A    
C47   O22   D    
Cr4   O28   S    
C24   C47   S    
C45   H21   S    
C3    C5    A    
Cr4   O6    S    
Cr2   O19   S    
Cr6   O3    S    
C46   O21   D    
C38   O5    A    
C31   C38   S    
Cr1   O26   S    
Cr1   O4    S    
C28   C30   S    
C50   H10   S    
C46   H7    S    
C15   C37   S    
C6    C13   A    
C11   C13   A    
C2    C34   A    
C5    C6    A    
Cr3   O16   S    
C32   C43   S    
C34   H1    S    
Cr2   O14   S    
C33   O2    A    
C10   C11   A    
Cr3   O26   S    
C49   C50   S    
Cr1   O17   S    
C2    C23   A    
C49   H14   S    
C1    C14   S    
Cr5   O11   S    
C21   C22   A    
C13   C44   S    
C20   C46   S    
C10   H12   S    
