data_mof_unit_5807.cif
_audit_creation_date              2012-12-10T17:10:54-0500
_audit_creation_method            fapswitch 2.2
_symmetry_space_group_name_H-M    P1
_symmetry_Int_Tables_number       1
_space_group_crystal_system       triclinic
_cell_length_a                    18.245651
_cell_length_b                    18.251556
_cell_length_c                    18.263509
_cell_angle_alpha                 90.318496
_cell_angle_beta                  119.687145
_cell_angle_gamma                 119.502243
_cell_volume                      4341.07395597

loop_
_atom_site_label
_atom_site_type_symbol
_atom_type_description
_atom_site_fract_x
_atom_site_fract_y
_atom_site_fract_z
_atom_type_partial_charge
C1    C     C_R   0.001910 0.861754 0.642006 0.820600
C2    C     C_R   0.810834 0.234498 0.127641 -0.098206
C3    C     C_R   0.903279 0.242125 0.187679 0.087716
C4    C     C_R   0.999777 0.139907 0.360111 0.869657
C5    C     C_R   0.904690 0.188393 0.243328 0.041644
C6    C     C_R   0.997470 0.196186 0.303905 -0.222562
C7    C     C_R   0.088382 0.258711 0.310821 0.447409
C8    C     C_R   0.086278 0.312843 0.257763 -0.245974
C9    C     C_R   0.995151 0.303931 0.195670 -0.145577
C10   C     C_R   0.592085 0.854357 0.425343 0.158309
C11   C     C_R   0.544889 0.819483 0.470693 0.055224
C12   C     C_3   0.901145 0.196054 0.644438 -0.532420
C13   C     C_R   0.453508 0.733426 0.428783 0.450306
C14   C     C_R   0.406689 0.686580 0.340718 -0.254084
C15   C     C_R   0.449027 0.723572 0.292492 -0.077319
C16   C     C_R   0.280654 0.139832 0.645176 0.892502
C17   C     C_R   0.550938 0.799229 0.341325 0.036210
C18   C     C_R   0.607884 0.815175 0.304707 -0.125003
C19   C     C_R   0.557274 0.771423 0.214823 -0.299142
C20   C     C_R   0.451663 0.710119 0.159991 0.441934
C21   C     C_R   0.394532 0.687152 0.197929 -0.183572
C22   C     C_R   0.006176 0.906566 0.800145 -0.206217
C23   C     C_3   0.000475 0.198486 0.699817 0.131623
C24   C     C_R   0.002312 0.924158 0.872081 -0.244982
C25   C     C_R   0.005939 0.872579 0.927757 0.484270
C26   C     C_R   0.011558 0.801794 0.910239 -0.227862
C27   C     C_R   0.007837 0.778391 0.833816 0.028066
C28   C     C_R   0.720156 0.865324 0.360379 0.842233
C29   C     C_R   0.006379 0.832106 0.778136 0.063260
C30   C     C_R   0.007661 0.810761 0.703762 -0.094705
C31   C     C_R   0.014739 0.739391 0.688222 0.190922
C32   C     C_R   0.013008 0.686138 0.741872 -0.248111
C33   C     C_R   0.008087 0.703942 0.812749 -0.070620
C34   C     C_3   0.000556 0.301377 0.801316 0.101982
C35   C     C_R   0.878809 0.662387 0.329390 0.123452
C36   C     C_R   0.828045 0.569999 0.316625 0.167482
C37   C     C_R   0.820421 0.515625 0.255995 -0.223991
C38   C     C_R   0.857696 0.548896 0.204692 0.387537
C39   C     C_R   0.924460 0.643467 0.227235 -0.073881
C40   C     C_R   0.999422 0.858331 0.359353 0.857225
C41   C     C_R   0.931698 0.700654 0.287937 -0.010825
C42   C     C_R   0.991283 0.794475 0.304060 -0.032783
C43   C     C_R   0.044819 0.830621 0.265747 -0.141824
C44   C     C_R   0.043544 0.776386 0.212440 -0.124764
C45   C     C_3   0.093701 0.356959 0.795491 -0.417526
C46   C     C_R   0.985550 0.684597 0.193486 -0.039008
C47   C     C_R   0.411908 0.065255 0.710900 0.407745
C48   C     C_R   0.456182 0.029935 0.690696 0.102237
C49   C     C_R   0.546968 0.087994 0.696583 0.186781
C50   C     C_R   0.596431 0.179862 0.729091 -0.253225
C51   C     C_R   0.552622 0.214549 0.749818 0.017801
C52   C     C_R   0.000202 0.141051 0.641589 0.783765
C53   C     C_R   0.450635 0.156991 0.722965 -0.112056
C54   C     C_R   0.394174 0.194681 0.710687 -0.178995
C55   C     C_R   0.449948 0.287996 0.753243 0.437832
C56   C     C_3   0.897848 0.252325 0.705699 0.068312
C57   C     C_R   0.556065 0.340516 0.798541 -0.198030
C58   C     C_R   0.607927 0.305006 0.797362 -0.119447
C59   C     C_R   0.280730 0.635918 0.140327 0.844629
C60   C     C_R   0.720098 0.360382 0.856340 0.840994
C61   C     C_R   0.998860 0.360132 0.139805 0.852079
C62   C     C_R   0.002325 0.642307 0.862622 0.788907
C63   C     C_R   0.995295 0.636535 0.140232 0.902991
C64   C     C_3   0.000350 0.164133 0.778722 0.069983
C65   C     C_R   0.000502 0.358986 0.859090 0.807747
C66   C     C_3   0.011750 0.230581 0.843061 -0.510138
C67   C     C_R   0.813699 0.129826 0.238313 -0.136189
C68   C     C_3   0.091484 0.297846 0.733698 -0.355119
C69   C     C_3   0.177320 0.196368 0.858550 -0.674394
C70   C     C_3   0.770710 0.278092 0.597490 -0.810968
C71   C     C_3   0.646253 0.002017 0.414507 -0.838225
C72   C     C_3   0.665738 0.862455 0.629500 -0.669033
C73   C     C_3   0.095946 0.708569 0.631372 -0.631283
C74   C     C_3   0.781519 0.709316 0.343299 -0.719745
C75   C     C_3   0.673166 0.460322 0.307917 -0.723074
C76   C     C_3   0.453799 0.899938 0.725984 -0.521846
C77   C     C_3   0.683790 0.068294 0.746203 -0.756599
C78   C     C_R   0.723434 0.123196 0.178251 -0.136672
C79   C     C_R   0.721917 0.175153 0.122873 -0.089430
H1    H     H_    0.082537 0.321702 0.675731 0.192977
H2    H     H_    0.339695 0.619059 0.312332 0.226626
H3    H     H_    0.010276 0.953023 0.763629 0.193685
H4    H     H_    0.997871 0.978926 0.885282 0.154862
H5    H     H_    0.020143 0.766636 0.957950 0.174061
H6    H     H_    0.951797 0.192908 0.855925 0.175743
H7    H     H_    0.012339 0.628286 0.726362 0.167539
H8    H     H_    0.089799 0.901978 0.278700 0.172847
H9    H     H_    0.779264 0.444752 0.244997 0.203592
H10   H     H_    0.088837 0.806466 0.185767 0.176472
H11   H     H_    0.087176 0.264102 0.908926 0.198549
H12   H     H_    0.094827 0.413029 0.771263 0.190602
H13   H     H_    0.667876 0.223784 0.735648 0.166934
H14   H     H_    0.599077 0.410251 0.835283 0.249002
H15   H     H_    0.166706 0.307067 0.767991 0.223581
H16   H     H_    0.166123 0.386411 0.862966 0.193191
H17   H     H_    0.897712 0.221068 0.588117 0.185582
H18   H     H_    0.832037 0.126420 0.614003 0.159322
H19   H     H_    0.835061 0.205730 0.712793 0.148337
H20   H     H_    0.062816 0.113450 0.874611 0.224521
H21   H     H_    0.220931 0.171399 0.903826 0.245406
H22   H     H_    0.212021 0.265284 0.896266 0.244041
H23   H     H_    0.811262 0.089448 0.281243 0.130742
H24   H     H_    0.183372 0.194299 0.801519 0.272297
H25   H     H_    0.927317 0.357506 0.652131 0.241175
H26   H     H_    0.763197 0.332418 0.576686 0.248410
H27   H     H_    0.722119 0.245723 0.622568 0.235635
H28   H     H_    0.743182 0.228541 0.538577 0.247606
H29   H     H_    0.351502 0.332251 0.399556 0.388645
H30   H     H_    0.722358 0.974522 0.528037 0.235550
H31   H     H_    0.609117 0.975808 0.341781 0.256542
H32   H     H_    0.716162 0.070496 0.441440 0.230113
H33   H     H_    0.592952 0.005144 0.425407 0.245391
H34   H     H_    0.654524 0.077958 0.175143 0.151056
H35   H     H_    0.609872 0.935073 0.565231 0.224417
H36   H     H_    0.735312 0.893960 0.629039 0.209838
H37   H     H_    0.635672 0.791355 0.623012 0.292017
H38   H     H_    0.687563 0.896209 0.694544 0.235716
H39   H     H_    0.415426 0.618277 0.581571 0.401893
H40   H     H_    0.270090 0.532041 0.947850 0.378774
H41   H     H_    0.942523 0.659721 0.563176 0.188925
H42   H     H_    0.103924 0.714837 0.574882 0.242213
H43   H     H_    0.079101 0.642759 0.638733 0.204191
H44   H     H_    0.169797 0.762077 0.693437 0.277237
H45   H     H_    0.651808 0.170171 0.076643 0.184491
H46   H     H_    0.036551 0.029108 0.037454 0.356435
H47   H     H_    0.909001 0.717627 0.448864 0.220366
H48   H     H_    0.791322 0.758012 0.389761 0.217932
H49   H     H_    0.718558 0.641795 0.330317 0.235161
H50   H     H_    0.760400 0.724126 0.279683 0.271754
H51   H     H_    0.803426 0.572964 0.417360 0.219466
H52   H     H_    0.657418 0.400752 0.270087 0.252275
H53   H     H_    0.629794 0.484386 0.260665 0.252177
H54   H     H_    0.645293 0.439495 0.351062 0.233515
H55   H     H_    0.850514 0.417064 0.047690 0.349664
H56   H     H_    0.806225 0.274657 0.084548 0.177205
H57   H     H_    0.446959 0.465414 0.843886 0.395569
H58   H     H_    0.373190 0.943145 0.859177 0.384314
H59   H     H_    0.328963 0.897208 0.621786 0.257041
H60   H     H_    0.396415 0.848653 0.736100 0.232782
H61   H     H_    0.521140 0.952200 0.791848 0.239218
H62   H     H_    0.478787 0.868164 0.700412 0.259235
H63   H     H_    0.598684 0.076183 0.623051 0.214352
H64   H     H_    0.712258 0.040624 0.720972 0.217609
H65   H     H_    0.669817 0.034351 0.792547 0.261870
H66   H     H_    0.744422 0.140571 0.783386 0.239749
H67   H     H_    0.155817 0.361144 0.262938 0.207459
H68   H     H_    0.601159 0.784757 0.187006 0.228241
H69   H     H_    0.922183 0.101751 0.747791 0.127764
N1    N     N_2   0.070820 0.138218 0.826643 -0.333952
N2    N     N_2   0.877094 0.315043 0.666999 -0.306087
N3    N     N_2   0.674557 0.946193 0.459647 -0.277546
N4    N     N_2   0.588355 0.870191 0.557781 -0.259299
N5    N     N_2   0.013090 0.715484 0.612892 -0.305278
N6    N     N_2   0.876846 0.716507 0.383784 -0.321449
N7    N     N_2   0.782170 0.530392 0.362916 -0.309795
N8    N     N_2   0.408089 0.936181 0.661500 -0.278923
N9    N     N_2   0.589996 0.054200 0.671919 -0.273209
O1    O     O_3   0.000000 1.000000 0.500000 -0.518926
O2    O     O_R   0.939290 0.616110 0.884440 -0.646585
O3    O     O_R   0.060700 0.616880 0.177520 -0.607344
O4    O     O_R   0.939250 0.884470 0.616070 -0.670268
O5    O     O_R   0.060740 0.443890 0.883140 -0.642230
O6    O     O_R   0.939270 0.616890 0.056080 -0.578612
O7    O     O_R   0.939290 0.322450 0.883140 -0.665530
O8    O     O_R   0.939260 0.323230 0.054780 -0.656797
O9    O     O_R   0.060750 0.615550 0.883900 -0.625538
O10   O     O_R   0.231610 0.616100 0.176760 -0.661881
O11   O     O_R   0.768390 0.445230 0.884440 -0.608565
O12   O     O_R   0.231620 0.176800 0.616070 -0.548629
O13   O     O_R   0.060740 0.176800 0.445190 -0.587896
O14   O     O_R   0.231610 0.054800 0.615530 -0.614116
O15   O     O_R   0.768390 0.883920 0.323210 -0.656984
O16   O     O_R   0.060730 0.883140 0.443890 -0.637640
O17   O     O_R   0.939260 0.056140 0.616830 -0.662531
O18   O     O_R   0.939300 0.883140 0.322450 -0.609226
O19   O     O_R   0.060710 0.177580 0.616830 -0.628448
O20   O     O_2   0.253501 0.319592 0.477104 -0.225004
O21   O     O_2   0.186632 0.179058 0.378238 -0.330663
O22   O     O_3   0.287392 0.326367 0.354224 -0.556640
O23   O     O_R   0.768380 0.884480 0.445190 -0.632737
O24   O     O_2   0.399170 0.753834 0.535966 -0.285347
O25   O     O_2   0.281257 0.610816 0.415349 -0.277867
O26   O     O_3   0.451285 0.642470 0.552051 -0.537169
O27   O     O_2   0.345372 0.700427 0.989371 -0.285217
O28   O     O_2   0.481405 0.678048 0.035289 -0.274338
O29   O     O_3   0.314572 0.549983 0.013650 -0.557369
O30   O     O_2   0.930580 0.812841 0.024041 -0.240029
O31   O     O_2   0.111273 0.937099 0.104693 -0.340261
O32   O     O_3   0.972999 0.969587 0.015801 -0.518368
O33   O     O_2   0.708761 0.380671 0.088467 -0.313640
O34   O     O_R   0.060710 0.883920 0.615530 -0.550375
O35   O     O_2   0.759478 0.499908 0.026981 -0.262251
O36   O     O_3   0.882589 0.449844 0.109778 -0.599057
O37   O     O_2   0.346486 0.360577 0.674034 -0.225417
O38   O     O_2   0.314292 0.285312 0.775990 -0.340753
O39   O     O_3   0.484664 0.440562 0.844297 -0.517512
O40   O     O_2   0.320761 0.060169 0.793831 -0.295184
O41   O     O_2   0.247576 0.920086 0.689164 -0.313010
O42   O     O_3   0.418954 0.985609 0.843520 -0.565227
O43   O     O_R   0.939300 0.054810 0.323210 -0.634909
O44   O     O_3   0.000000 0.500030 0.999970 -0.516055
O45   O     O_R   0.231620 0.615550 0.054780 -0.562755
O46   O     O_R   0.768380 0.323230 0.883900 -0.659911
O47   O     O_R   0.060700 0.445220 0.176760 -0.584044
S1    S     S_3+6 0.205858 0.269642 0.383118 0.046609
S2    S     S_3+6 0.392352 0.684675 0.482921 0.045612
S3    S     S_3+6 0.398761 0.660773 0.046723 0.042916
S4    S     S_3+6 0.005931 0.897371 0.021105 0.025553
S5    S     S_3+6 0.798516 0.467873 0.104046 0.009353
S6    S     S_3+6 0.394552 0.342806 0.759923 0.059152
S7    S     S_3+6 0.345023 0.006819 0.758509 0.025733
Zn1   Zn    Zn3+2 0.086760 0.130530 0.543760 1.093418
Zn2   Zn    Zn3+2 0.086760 0.956230 0.542990 1.062317
Zn3   Zn    Zn3+2 0.913250 0.956230 0.369490 1.008088
Zn4   Zn    Zn3+2 0.913230 0.957020 0.543760 0.946436
Zn5   Zn    Zn3+2 0.913240 0.369500 0.956210 0.960667
Zn6   Zn    Zn3+2 0.086750 0.543800 0.130490 1.042641
Zn7   Zn    Zn3+2 0.913240 0.543800 0.956980 1.050712
Zn8   Zn    Zn3+2 0.086770 0.543010 0.956210 1.017759

loop_
_geom_bond_atom_site_label_1
_geom_bond_atom_site_label_2
_ccdc_geom_bond_type
C68   H1    S    
O22   S1    S    
C77   H66   S    
C34   C56   S    
O17   Zn4   S    
C22   C29   A    
C47   S7    S    
C27   C29   A    
O3    Zn6   S    
C41   C42   A    
O28   S3    D    
C37   H9    S    
C35   C36   A    
C70   N2    S    
C35   N6    S    
H35   N4    S    
C5    C67   A    
C34   C66   S    
C66   H6    S    
C57   C58   A    
O30   S4    D    
C7    C8    A    
C39   C41   A    
C53   C54   A    
C27   C33   A    
O1    Zn2   S    
C63   O6    A    
H20   N1    S    
C12   C23   S    
C26   C27   A    
C29   C30   A    
O27   S3    D    
C4    O13   A    
O29   S3    S    
C9    C61   S    
C22   H3    S    
C36   C37   A    
H30   N3    S    
C24   H4    S    
O44   Zn7   S    
C21   C59   S    
C70   H28   S    
C61   O47   A    
C30   C31   A    
O32   S4    S    
C58   C60   S    
C71   H31   S    
C74   N6    S    
C18   C19   A    
H25   N2    S    
C40   O16   A    
C1    C30   S    
C2    C79   A    
O8    Zn5   S    
C54   C55   A    
C16   O12   A    
C28   O15   A    
H55   O36   S    
C74   H49   S    
H58   O42   S    
C44   C46   A    
C8    C9    A    
C72   N4    S    
C71   H32   S    
C65   O5    A    
C45   H12   S    
O43   Zn3   S    
C16   O14   A    
H51   N7    S    
C56   H19   S    
C25   S4    S    
C52   O19   A    
C61   O8    A    
C7    S1    S    
O6    Zn7   S    
C47   C53   A    
O39   S6    S    
C76   H62   S    
C40   C42   S    
O4    Zn4   S    
C1    O4    A    
C57   H14   S    
C13   C14   A    
C64   H69   S    
C49   N9    S    
C67   C78   A    
C63   O3    A    
C74   H48   S    
O15   Zn3   S    
C34   C65   S    
C31   N5    S    
C75   H52   S    
C50   C51   A    
C69   H24   S    
O1    Zn1   S    
C38   C39   A    
O35   S5    D    
C71   N3    S    
C52   O17   A    
O18   Zn3   S    
C23   C64   S    
O46   Zn5   S    
C18   C28   S    
C24   C25   A    
O44   Zn8   S    
O38   S6    D    
C4    C6    S    
C70   H27   S    
C51   C58   A    
C78   C79   A    
C33   C62   S    
C76   H61   S    
C73   H44   S    
C25   C26   A    
H39   O26   S    
O12   Zn1   S    
C76   N8    S    
O7    Zn5   S    
O19   Zn1   S    
H29   O22   S    
C51   C53   A    
C64   C66   S    
C23   C68   S    
C72   H38   S    
O16   Zn2   S    
C43   C44   A    
C77   H64   S    
O44   Zn5   S    
C37   C38   A    
O40   S7    D    
C10   N3    S    
O37   S6    D    
C60   O46   A    
O36   S5    S    
C47   C48   A    
C72   H36   S    
C4    O43   A    
O2    Zn7   S    
C32   H7    S    
C71   H33   S    
C45   C68   S    
C14   C15   A    
C17   C18   A    
O23   Zn4   S    
C34   C45   S    
C60   O11   A    
C3    C9    A    
C28   O23   A    
C12   H18   S    
C12   C56   S    
C39   C46   A    
C1    O34   A    
C50   H13   S    
C48   C49   A    
C62   O9    A    
O11   Zn7   S    
C73   H43   S    
C73   H42   S    
C55   C57   A    
C22   C24   A    
C78   H34   S    
C42   C43   A    
H63   N9    S    
C56   N2    S    
C45   H16   S    
H47   N6    S    
C59   O10   A    
C75   H53   S    
C76   H60   S    
H59   N8    S    
C15   C17   A    
O5    Zn8   S    
O31   S4    D    
C26   H5    S    
C13   S2    S    
O33   S5    D    
C31   C32   A    
C8    H67   S    
C3    C5    A    
C70   H26   S    
C40   O18   A    
C75   H54   S    
H57   O39   S    
C6    C7    A    
C69   H22   S    
O1    Zn3   S    
C68   H15   S    
C79   H45   S    
C72   H37   S    
C2    H56   S    
C14   H2    S    
O47   Zn6   S    
C69   N1    S    
C32   C33   A    
C19   C20   A    
C19   H68   S    
C2    C3    A    
O1    Zn4   S    
C77   H65   S    
C43   H8    S    
O41   S7    D    
O34   Zn2   S    
C55   S6    S    
C11   C13   A    
C59   O45   A    
C23   C52   S    
C5    C6    A    
C46   C63   S    
C65   O7    A    
H41   N5    S    
C66   H11   S    
O20   S1    D    
O24   S2    D    
O42   S7    S    
C38   S5    S    
C48   N8    S    
C35   C41   A    
C16   C54   S    
O21   S1    D    
H40   O29   S    
C10   C11   A    
O44   Zn6   S    
O14   Zn2   S    
C69   H21   S    
C75   N7    S    
C11   N4    S    
C15   C21   A    
O13   Zn1   S    
C20   C21   A    
C67   H23   S    
C49   C50   A    
C64   N1    S    
C74   H50   S    
C73   N5    S    
O26   S2    S    
C62   O2    A    
C12   H17   S    
H46   O32   S    
C10   C17   A    
C20   S3    S    
O25   S2    D    
O9    Zn8   S    
O10   Zn6   S    
C44   H10   S    
C36   N7    S    
C77   N9    S    
O45   Zn8   S    
