data_mof_unit_28578.cif
_audit_creation_date              2012-12-10T18:20:41-0500
_audit_creation_method            fapswitch 2.2
_symmetry_space_group_name_H-M    P1
_symmetry_Int_Tables_number       1
_space_group_crystal_system       triclinic
_cell_length_a                    15.864659
_cell_length_b                    10.630749
_cell_length_c                    9.451586
_cell_angle_alpha                 90.810256
_cell_angle_beta                  90.522289
_cell_angle_gamma                 89.381968
_cell_volume                      1593.72414192

loop_
_atom_site_label
_atom_site_type_symbol
_atom_type_description
_atom_site_fract_x
_atom_site_fract_y
_atom_site_fract_z
_atom_type_partial_charge
C1    C     C_R   0.499239 0.259619 0.498924 0.822142
C2    C     C_R   0.500829 0.740374 0.501084 0.821513
C3    C     C_3   0.559644 0.955402 0.411214 -0.220749
C4    C     C_3   0.440531 0.044569 0.588851 -0.222955
C5    C     C_3   0.501201 0.877180 0.503138 -0.097634
C6    C     C_3   0.498966 0.122800 0.496906 -0.097328
C7    C     C_3   0.517507 0.963402 0.631423 0.376163
C8    C     C_3   0.482676 0.036569 0.368627 0.375271
C9    C     C_3   0.512083 0.613116 0.052987 -0.262383
C10   C     C_3   0.488259 0.386892 0.946855 -0.270060
C11   C     C_3   0.441198 0.572778 0.950521 0.278232
C12   C     C_3   0.559122 0.427302 0.049370 0.270313
C13   C     C_3   0.570309 0.539151 0.952405 0.512323
C14   C     C_3   0.429936 0.460886 0.047229 0.511201
C15   C     C_R   0.339925 0.501686 0.499539 0.817106
C16   C     C_R   0.659861 0.498718 0.500720 0.812204
C17   C     C_3   0.975128 0.416387 0.602961 -0.400309
C18   C     C_3   0.022314 0.598177 0.417885 -0.456160
C19   C     C_3   0.030904 0.396321 0.470744 0.401218
C20   C     C_3   0.966135 0.616990 0.550715 0.429445
C21   C     C_1   0.250070 0.507204 0.499431 -0.140816
C22   C     C_1   0.749340 0.496479 0.503247 -0.120733
C23   C     C_3   0.026214 0.535746 0.641232 0.386047
C24   C     C_3   0.971933 0.478407 0.380464 0.388525
C25   C     C_3   0.082595 0.514107 0.509733 -0.095392
C26   C     C_3   0.916222 0.498916 0.510685 -0.028545
C27   C     C_1   0.174474 0.511770 0.502768 0.010110
C28   C     C_1   0.824744 0.495841 0.506928 0.091043
C29   C     C_3   0.576040 0.043434 0.540611 -0.241402
C30   C     C_3   0.424132 0.956551 0.459433 -0.242203
Cu1   Cu    Cu3+1 0.500020 0.499990 0.643150 1.035854
Cu2   Cu    Cu3+1 0.499980 0.500010 0.356850 1.039935
H1    H     H_    0.954499 0.343107 0.677217 0.166289
H2    H     H_    0.042121 0.672345 0.344057 0.169791
H3    H     H_    0.608180 0.916675 0.338241 0.173360
H4    H     H_    0.391996 0.083278 0.661838 0.170933
H5    H     H_    0.638100 0.081426 0.574247 0.171964
H6    H     H_    0.362076 0.918543 0.425797 0.169832
H7    H     H_    0.521193 0.707746 0.101478 0.198684
H8    H     H_    0.479073 0.292314 0.898275 0.196897
N1    N     N_3   0.500060 0.499970 0.858290 -0.227885
N2    N     N_3   0.499940 0.500030 0.141710 -0.232244
O1    O     O_R   0.500040 0.316850 0.620870 -0.596530
O2    O     O_R   0.499960 0.683150 0.379130 -0.597335
O3    O     O_R   0.500000 0.316860 0.379090 -0.513596
O4    O     O_R   0.500000 0.683140 0.620910 -0.510190
O5    O     O_R   0.379090 0.499980 0.620870 -0.577138
O6    O     O_R   0.620910 0.500020 0.379130 -0.568665
O7    O     O_R   0.379060 0.499990 0.379090 -0.513808
O8    O     O_R   0.620940 0.500010 0.620910 -0.517262
O9    O     O_3   0.071235 0.283318 0.427695 -0.576037
C31   C     C_3   0.010638 0.189112 0.404672 0.073159
H9    H     H_    0.965101 0.215985 0.320030 0.185279
H10   H     H_    0.975669 0.170672 0.503320 0.143952
C32   C     C_3   0.055057 0.068221 0.358032 -0.798624
H11   H     H_    0.099619 0.036651 0.441948 0.250363
H12   H     H_    0.007954 0.993403 0.337907 0.205844
H13   H     H_    0.090511 0.084153 0.259177 0.252702
O10   O     O_3   0.919889 0.726246 0.589045 -0.567193
C33   C     C_3   0.974345 0.822467 0.634051 0.078093
H14   H     H_    0.026087 0.837112 0.557334 0.131833
H15   H     H_    0.000626 0.800698 0.739813 0.180360
C34   C     C_3   0.923831 0.944081 0.649412 -0.794258
H16   H     H_    0.871837 0.931630 0.725740 0.258437
H17   H     H_    0.965442 0.020166 0.689594 0.197438
H18   H     H_    0.896556 0.971121 0.545443 0.248292
O11   O     O_3   0.935082 0.445157 0.248947 -0.577197
C35   C     C_3   0.997612 0.439445 0.144302 0.063879
H19   H     H_    0.054628 0.387213 0.180782 0.168020
H20   H     H_    0.015093 0.536150 0.113780 0.174962
C36   C     C_3   0.963224 0.370115 0.014741 -0.710886
H21   H     H_    0.909294 0.423253 0.968591 0.260071
H22   H     H_    0.013406 0.359547 0.934286 0.223871
H23   H     H_    0.941893 0.274973 0.044458 0.235621
O12   O     O_3   0.047301 0.563496 0.783991 -0.596420
C37   C     C_3   0.124379 0.627912 0.794827 0.073162
H24   H     H_    0.131512 0.698877 0.710267 0.126662
H25   H     H_    0.177605 0.559290 0.789245 0.188026
C38   C     C_3   0.128781 0.696568 0.937293 -0.770509
H26   H     H_    0.139498 0.628413 0.023432 0.232721
H27   H     H_    0.181392 0.764419 0.938275 0.252550
H28   H     H_    0.069263 0.749337 0.957708 0.232397
Br1   Br    Br    0.544989 0.914670 0.823352 -0.437910
Br2   Br    Br    0.455485 0.085271 0.176593 -0.442125
Br3   Br    Br    0.356753 0.687604 0.876964 -0.504036
Br4   Br    Br    0.645492 0.314123 0.121386 -0.437475
O13   O     O_3   0.646161 0.578524 0.890938 -0.531559
C39   C     C_3   0.697903 0.637231 0.993676 0.053217
H29   H     H_    0.711504 0.573425 0.083564 0.177522
H30   H     H_    0.667827 0.725516 0.034056 0.163081
C40   C     C_3   0.781102 0.671302 0.925837 -0.668184
H31   H     H_    0.769847 0.740018 0.840055 0.260340
H32   H     H_    0.823921 0.713763 0.006458 0.198131
H33   H     H_    0.811766 0.585802 0.880127 0.251909
O14   O     O_3   0.353596 0.421482 0.106509 -0.528527
C41   C     C_3   0.304581 0.359311 0.002483 0.071877
H34   H     H_    0.333853 0.267107 0.973305 0.171815
H35   H     H_    0.296496 0.417313 0.905972 0.152660
C42   C     C_3   0.217907 0.335027 0.062269 -0.745753
H36   H     H_    0.188954 0.425598 0.096704 0.237687
H37   H     H_    0.177136 0.290422 0.980119 0.196236
H38   H     H_    0.223148 0.271874 0.154656 0.269450

loop_
_geom_bond_atom_site_label_1
_geom_bond_atom_site_label_2
_ccdc_geom_bond_type
C7    Br1   S    
O13   C39   S    
C4    H4    S    
C7    C29   S    
Cu2   O3    S    
O14   C41   S    
C37   C38   S    
C15   O5    A    
C32   H11   S    
C34   H17   S    
C16   O6    A    
C13   N1    S    
C2    O4    A    
C9    N2    S    
C17   C23   S    
Cu1   O1    S    
C33   C34   S    
C18   C24   S    
C17   C26   S    
C37   H25   S    
C10   H8    S    
C24   C26   S    
C11   C14   S    
C41   C42   S    
C36   H22   S    
C9    H7    S    
C30   H6    S    
C33   H15   S    
C3    C29   S    
C9    C13   S    
C12   N2    S    
C24   O11   S    
C1    O1    A    
C42   H36   S    
C2    O2    A    
C35   H19   S    
Cu1   O4    S    
C41   H35   S    
C42   H38   S    
C20   C23   S    
C31   C32   S    
C14   N2    S    
C23   C25   S    
C21   C27   T    
C34   H18   S    
O10   C33   S    
C22   C28   T    
C10   N1    S    
Cu2   O6    S    
C18   C25   S    
C17   H1    S    
C4    C7    S    
C19   C25   S    
C31   H10   S    
O9    C31   S    
C37   H24   S    
C4    C6    S    
C3    C8    S    
C10   C14   S    
C40   H31   S    
C38   H27   S    
C6    C8    S    
O11   C35   S    
C33   H14   S    
O12   C37   S    
C40   H32   S    
C9    C11   S    
Cu1   Cu2   S    
C39   C40   S    
C3    H3    S    
C41   H34   S    
C13   O13   S    
Cu2   O2    S    
C39   H29   S    
C20   O10   S    
C18   H2    S    
C36   H23   S    
C10   C12   S    
C42   H37   S    
C39   H30   S    
C32   H12   S    
C38   H26   S    
C2    C5    S    
Cu1   O8    S    
C14   O14   S    
C31   H9    S    
C5    C7    S    
C5    C30   S    
C16   C22   S    
Cu1   N1    S    
C8    Br2   S    
C23   O12   S    
C3    C5    S    
C38   H28   S    
C25   C27   S    
C26   C28   S    
C12   Br4   S    
C8    C30   S    
C19   C24   S    
C36   H21   S    
C40   H33   S    
C1    O3    A    
C20   C26   S    
C11   Br3   S    
C35   C36   S    
C17   C19   S    
C11   N1    S    
C18   C20   S    
C15   O7    A    
C16   O8    A    
Cu2   O7    S    
C34   H16   S    
C19   O9    S    
C15   C21   S    
C6    C29   S    
C12   C13   S    
C35   H20   S    
C32   H13   S    
C29   H5    S    
C1    C6    S    
Cu2   N2    S    
Cu1   O5    S    
C4    C30   S    
