data_mof_unit_65751.cif
_audit_creation_date              2012-12-10T18:39:47-0500
_audit_creation_method            fapswitch 2.2
_symmetry_space_group_name_H-M    P1
_symmetry_Int_Tables_number       1
_space_group_crystal_system       triclinic
_cell_length_a                    15.156928
_cell_length_b                    13.842015
_cell_length_c                    23.558856
_cell_angle_alpha                 90.231788
_cell_angle_beta                  90.168199
_cell_angle_gamma                 90.000202
_cell_volume                      4942.64336884

loop_
_atom_site_label
_atom_site_type_symbol
_atom_type_description
_atom_site_fract_x
_atom_site_fract_y
_atom_site_fract_z
_atom_type_partial_charge
C1    C     C_R   0.329764 0.499993 0.499954 0.884987
C2    C     C_R   0.670235 0.499994 0.500046 0.883918
C3    C     C_R   0.497568 0.588426 0.239375 -0.077330
C4    C     C_R   0.502776 0.411594 0.760641 -0.079419
C5    C     C_R   0.497936 0.587499 0.298543 -0.269382
C6    C     C_R   0.502509 0.412532 0.701472 -0.266507
C7    C     C_R   0.499531 0.499415 0.328135 -0.166328
C8    C     C_R   0.500219 0.500597 0.671876 -0.163488
C9    C     C_R   0.500712 0.412017 0.297094 0.610892
C10   C     C_R   0.498142 0.587967 0.702928 0.604797
C11   C     C_R   0.500366 0.413511 0.237923 -0.149908
C12   C     C_R   0.498448 0.586465 0.762099 -0.146074
C13   C     C_R   0.498778 0.501471 0.208890 0.216118
C14   C     C_R   0.500791 0.498524 0.791121 0.216001
C15   C     C_R   0.094554 0.580946 0.480604 -0.208538
C16   C     C_R   0.905232 0.418706 0.480682 -0.212467
C17   C     C_R   0.905442 0.581184 0.519441 -0.208427
C18   C     C_R   0.094763 0.418942 0.519277 -0.210000
C19   C     C_R   0.186255 0.581275 0.480545 0.562784
C20   C     C_R   0.813538 0.418369 0.480692 0.558375
C21   C     C_R   0.813741 0.581514 0.519499 0.562213
C22   C     C_R   0.186457 0.418605 0.519265 0.557196
C23   C     C_R   0.233096 0.499958 0.499917 -0.296411
C24   C     C_R   0.766900 0.499960 0.500083 -0.301033
C25   C     C_R   0.048351 0.499954 0.499973 -0.021745
C26   C     C_R   0.951645 0.499954 0.500029 -0.022792
C27   C     C_R   0.499859 0.499751 0.390802 0.840558
C28   C     C_R   0.500060 0.500254 0.609201 0.840570
C29   C     C_R   0.568821 0.108045 0.525583 -0.243780
C30   C     C_R   0.457549 0.891799 0.456766 -0.241679
C31   C     C_R   0.431201 0.107688 0.474407 -0.236418
C32   C     C_R   0.542498 0.892379 0.543227 -0.239600
C33   C     C_R   0.567157 0.209580 0.525510 0.136317
C34   C     C_R   0.457733 0.790274 0.457825 0.128737
C35   C     C_R   0.432860 0.209225 0.474476 0.188080
C36   C     C_R   0.542318 0.790835 0.542153 0.187966
C37   C     C_R   0.500010 0.054657 0.500000 0.116548
C38   C     C_R   0.500013 0.945297 0.500002 0.113940
C39   C     C_R   0.573517 0.531147 0.880593 0.639743
C40   C     C_R   0.426020 0.468917 0.119405 0.640360
C41   C     C_R   0.428041 0.464792 0.880030 0.642415
C42   C     C_R   0.571550 0.535131 0.119967 0.642638
C43   C     C_R   0.425918 0.464657 0.939720 -0.200986
C44   C     C_R   0.573654 0.535306 0.060276 -0.200681
C45   C     C_R   0.500059 0.499413 0.969972 -0.164521
C46   C     C_R   0.499503 0.500580 0.030025 -0.164631
C47   C     C_R   0.574741 0.533044 0.940288 -0.199447
C48   C     C_R   0.424812 0.466980 0.059709 -0.199366
C49   C     C_R   0.351851 0.431309 0.969856 0.586837
C50   C     C_R   0.647720 0.568663 0.030140 0.586853
C51   C     C_R   0.351295 0.432480 0.029019 0.587511
C52   C     C_R   0.648259 0.567537 0.970977 0.587410
Cu1   Cu    Cu3+1 0.500000 0.596430 0.500000 1.039472
Cu2   Cu    Cu3+1 0.500000 0.403570 0.500000 1.043007
H1    H     H_    0.620199 0.249019 0.545825 0.147267
H2    H     H_    0.424145 0.750676 0.424519 0.152970
H3    H     H_    0.379827 0.248383 0.454149 0.155018
H4    H     H_    0.575999 0.751664 0.575401 0.189969
H5    H     H_    0.496131 0.656727 0.217140 0.173175
H6    H     H_    0.504765 0.343313 0.782879 0.173449
H7    H     H_    0.496882 0.655857 0.321058 0.189683
H8    H     H_    0.504214 0.344195 0.678956 0.196252
H9    H     H_    0.501606 0.346110 0.214431 0.183237
H10   H     H_    0.496563 0.653838 0.785598 0.182235
H11   H     H_    0.059565 0.643554 0.464735 0.189422
H12   H     H_    0.940043 0.355894 0.464762 0.190011
H13   H     H_    0.940431 0.643985 0.535345 0.190294
H14   H     H_    0.059951 0.356324 0.535163 0.188932
H15   H     H_    0.624558 0.072171 0.545011 0.151559
H16   H     H_    0.425178 0.927569 0.421699 0.151686
H17   H     H_    0.375470 0.071542 0.454974 0.151747
H18   H     H_    0.574904 0.928621 0.578285 0.154296
N1    N     N_R   0.500929 0.497722 0.852012 -0.477340
N2    N     N_R   0.498635 0.502269 0.147992 -0.476906
N3    N     N_R   0.500000 0.258690 0.500000 -0.189714
N4    N     N_R   0.500000 0.741310 0.500000 -0.198720
O1    O     O_R   0.371460 0.581430 0.500000 -0.533540
O2    O     O_R   0.628540 0.418570 0.500000 -0.551139
O3    O     O_R   0.628540 0.581430 0.500000 -0.541827
O4    O     O_R   0.371460 0.418570 0.500000 -0.556963
O5    O     O_R   0.499970 0.581450 0.417880 -0.614744
O6    O     O_R   0.500030 0.418550 0.582120 -0.602306
O7    O     O_R   0.500030 0.581450 0.582120 -0.537924
O8    O     O_R   0.499970 0.418550 0.417880 -0.518398
O9    O     O_2   0.644270 0.561861 0.851092 -0.422994
O10   O     O_2   0.355215 0.438326 0.148898 -0.423695
O11   O     O_2   0.357718 0.433264 0.849989 -0.421056
O12   O     O_2   0.641925 0.566540 0.150000 -0.422644
F1    F     F_    0.279214 0.397195 0.942468 -0.534313
F2    F     F_    0.720363 0.602761 0.057528 -0.534531
F3    F     F_    0.278163 0.399391 0.055860 -0.534098
F4    F     F_    0.721384 0.600643 0.944135 -0.534026
F5    F     F_    0.502356 0.325075 0.323532 -0.627395
F6    F     F_    0.495540 0.674888 0.676515 -0.646405
F7    F     F_    0.228734 0.660334 0.460367 -0.636211
F8    F     F_    0.770859 0.339021 0.460547 -0.622860
F9    F     F_    0.771259 0.660818 0.539720 -0.634376
F10   F     F_    0.229133 0.339499 0.539366 -0.632362

loop_
_geom_bond_atom_site_label_1
_geom_bond_atom_site_label_2
_ccdc_geom_bond_type
C33   H1    S    
C34   H2    S    
C22   F10   S    
C1    O1    A    
Cu1   O1    S    
Cu2   O8    S    
C32   H18   S    
Cu1   Cu2   S    
C15   C19   A    
C35   N3    A    
C17   C26   A    
C32   C36   A    
C27   O8    A    
Cu1   O3    S    
C36   H4    S    
C12   H10   S    
C15   C25   A    
C10   F6    S    
C18   H14   S    
C15   H11   S    
C29   C33   A    
C7    C27   S    
C30   C38   A    
Cu1   O5    S    
C40   O10   S    
C2    O3    A    
C36   N4    A    
C51   F3    S    
C33   N3    A    
C48   C51   A    
C20   C24   A    
C49   C51   A    
C50   F2    S    
C50   C52   A    
C32   C38   A    
C29   H15   S    
C3    C13   A    
C31   H17   S    
C20   F8    S    
C28   O7    A    
C41   C43   A    
C18   C25   A    
C42   C44   A    
C30   H16   S    
C44   C46   A    
Cu2   O4    S    
C45   C47   A    
C16   C26   A    
C41   O11   S    
C46   C48   A    
C42   N2    A    
C17   H13   S    
C30   C34   A    
C28   O6    A    
C14   N1    S    
C27   O5    A    
C4    C6    A    
C5    C7    A    
C43   C49   A    
C6    C8    A    
C25   C26   S    
C45   C46   A    
C17   C21   A    
C31   C37   A    
C19   C23   A    
C37   C38   S    
C2    O2    A    
C43   C45   A    
C16   C20   A    
C4    H6    S    
C5    H7    S    
C9    C11   A    
C10   C12   A    
C12   C14   A    
C1    C23   S    
C2    C24   S    
C8    C28   S    
C31   C35   A    
C52   F4    S    
Cu1   N4    S    
C16   H12   S    
C39   O9    S    
C9    F5    S    
Cu2   O6    S    
C19   F7    S    
C39   C47   A    
C44   C50   A    
C40   C48   A    
C18   C22   A    
C49   F1    S    
C3    C5    A    
C47   C52   A    
C11   H9    S    
Cu1   O7    S    
C35   H3    S    
C6    H8    S    
C11   C13   A    
C40   N2    A    
C39   N1    A    
C4    C14   A    
C21   F9    S    
C41   N1    A    
Cu2   N3    S    
C7    C9    A    
C42   O12   S    
C13   N2    S    
C8    C10   A    
C21   C24   A    
C29   C37   A    
C1    O4    A    
C22   C23   A    
C34   N4    A    
Cu2   O2    S    
C3    H5    S    
