data_mof_unit_15802.cif
_audit_creation_date              2012-12-10T16:54:57-0500
_audit_creation_method            fapswitch 2.2
_symmetry_space_group_name_H-M    P1
_symmetry_Int_Tables_number       1
_space_group_crystal_system       triclinic
_cell_length_a                    7.988077
_cell_length_b                    8.576587
_cell_length_c                    15.676725
_cell_angle_alpha                 92.968032
_cell_angle_beta                  85.654858
_cell_angle_gamma                 91.462262
_cell_volume                      1069.24418373

loop_
_atom_site_label
_atom_site_type_symbol
_atom_type_description
_atom_site_fract_x
_atom_site_fract_y
_atom_site_fract_z
_atom_type_partial_charge
C1    C     C_R   0.542322 0.792049 0.493138 0.924051
C2    C     C_2   0.438563 0.044075 0.504898 -0.404079
C3    C     C_R   0.501088 0.499707 0.660974 0.890134
C4    C     C_R   0.457341 0.206612 0.500571 0.954487
C5    C     C_R   0.499396 0.503543 0.339185 0.887759
C6    C     C_3   0.334756 0.574060 0.956446 -0.423725
C7    C     C_3   0.654205 0.592443 0.947100 0.034852
C8    C     C_3   0.654477 0.589897 0.045847 -0.459511
C9    C     C_1   0.497255 0.508701 0.250638 -0.199139
C10   C     C_3   0.498588 0.493512 0.917152 0.246284
C11   C     C_3   0.330522 0.768656 0.086056 -0.906740
C12   C     C_3   0.331511 0.592286 0.056514 0.456347
C13   C     C_3   0.165281 0.522946 0.098560 -0.947226
C14   C     C_3   0.707591 0.994658 0.412496 -0.865246
C15   C     C_3   0.011445 0.415923 0.389464 -0.087270
C16   C     C_3   0.056689 0.242754 0.375004 -0.347933
C17   C     C_3   0.199996 0.212518 0.306454 -0.865500
C18   C     C_3   0.978868 0.621397 0.600571 -0.158135
C19   C     C_3   0.073751 0.774808 0.620087 -0.368086
C20   C     C_3   0.984389 0.870338 0.694048 -0.977426
C21   C     C_3   0.671392 0.759514 0.914426 -0.961300
C22   C     C_3   0.370245 0.202013 0.909345 -0.357201
C23   C     C_3   0.491456 0.508123 0.083795 0.252956
C24   C     C_3   0.195874 0.176165 0.956451 -0.408971
C25   C     C_3   0.089214 0.060950 0.905096 -0.920918
C26   C     C_3   0.679056 0.246085 0.918752 -0.996052
C27   C     C_3   0.494056 0.333473 0.049522 -0.445902
C28   C     C_3   0.505609 0.319506 0.948939 0.311332
C29   C     C_1   0.494887 0.510851 0.175443 -0.078099
C30   C     C_1   0.501399 0.493745 0.825112 -0.098279
C31   C     C_1   0.502676 0.496257 0.749705 -0.193529
C32   C     C_2   0.560268 0.949467 0.472909 0.026962
H1    H     H_    0.223419 0.508635 0.935005 0.157087
H2    H     H_    0.329670 0.783812 0.156907 0.239608
H3    H     H_    0.439376 0.836093 0.059070 0.231716
H4    H     H_    0.155171 0.394969 0.091539 0.217215
H5    H     H_    0.152796 0.552913 0.168560 0.247501
H6    H     H_    0.055945 0.571848 0.070270 0.235529
H7    H     H_    0.755758 0.892343 0.372485 0.230622
H8    H     H_    0.670137 0.080629 0.367219 0.235171
H9    H     H_    0.809784 0.040709 0.451401 0.252159
H10   H     H_    0.190763 0.287931 0.251576 0.251287
H11   H     H_    0.322954 0.231109 0.333741 0.264667
H12   H     H_    0.603018 0.276733 0.074665 0.178043
H13   H     H_    0.193858 0.088638 0.282186 0.237535
H14   H     H_    0.082825 0.189715 0.435413 0.237279
H15   H     H_    0.946143 0.180204 0.350633 0.196611
H16   H     H_    0.911869 0.431107 0.346898 0.156500
H17   H     H_    0.095302 0.504760 0.361480 0.176846
H18   H     H_    0.854983 0.897717 0.678977 0.270244
H19   H     H_    0.978719 0.805136 0.753648 0.274179
H20   H     H_    0.054997 0.981907 0.704600 0.265393
H21   H     H_    0.201596 0.752588 0.638233 0.266114
H22   H     H_    0.081998 0.845109 0.562261 0.227537
H23   H     H_    0.328002 0.002457 0.542396 0.138694
H24   H     H_    0.852253 0.657988 0.592895 0.240089
H25   H     H_    0.980085 0.543444 0.654966 0.168831
H26   H     H_    0.558479 0.829766 0.929813 0.249176
H27   H     H_    0.779156 0.821608 0.942606 0.241798
H28   H     H_    0.697687 0.754997 0.843785 0.253549
H29   H     H_    0.060884 0.111487 0.844179 0.275063
H30   H     H_    0.154558 0.948624 0.891198 0.263963
H31   H     H_    0.969265 0.037236 0.942911 0.255989
H32   H     H_    0.206903 0.124849 0.019163 0.224288
H33   H     H_    0.125192 0.284907 0.965209 0.231391
H34   H     H_    0.322483 0.689411 0.928601 0.175030
H35   H     H_    0.350573 0.233110 0.843100 0.202863
H36   H     H_    0.422664 0.082852 0.901057 0.208609
H37   H     H_    0.705303 0.250548 0.848314 0.254610
H38   H     H_    0.785581 0.301711 0.951047 0.237092
H39   H     H_    0.681314 0.121973 0.935533 0.244852
H40   H     H_    0.771803 0.538539 0.918820 0.171214
H41   H     H_    0.671827 0.708879 0.075858 0.196276
H42   H     H_    0.764923 0.523906 0.062013 0.153785
H43   H     H_    0.386956 0.268113 0.079359 0.160902
H44   H     H_    0.216415 0.824375 0.066203 0.240004
N1    N     N_2   0.950340 0.457950 0.477370 -0.077424
N2    N     N_2   0.049660 0.542050 0.522630 -0.060946
O1    O     O_R   0.389240 0.738570 0.505550 -0.650829
O2    O     O_R   0.678400 0.711630 0.491050 -0.642993
O3    O     O_R   0.355360 0.513470 0.630110 -0.625009
O4    O     O_R   0.644510 0.486530 0.615610 -0.647336
O5    O     O_R   0.321600 0.288370 0.508950 -0.618646
O6    O     O_R   0.610760 0.261430 0.494450 -0.595468
O7    O     O_R   0.355490 0.513470 0.384390 -0.619931
O8    O     O_R   0.644640 0.486530 0.369890 -0.645382
Zn1   Zn    Zn3+2 0.306930 0.517990 0.509680 0.924662
Zn2   Zn    Zn3+2 0.693070 0.482010 0.490320 0.907493

loop_
_geom_bond_atom_site_label_1
_geom_bond_atom_site_label_2
_ccdc_geom_bond_type
N2    Zn1   S    
C7    C10   S    
O5    Zn1   S    
C19   C20   S    
O1    Zn1   S    
C7    C8    S    
N1    N2    D    
C12   C23   S    
C23   C29   S    
C17   H13   S    
C21   H27   S    
C20   H19   S    
C11   H44   S    
C6    C12   S    
C30   C31   T    
O8    Zn2   S    
C15   C16   S    
C8    C23   S    
C2    C32   D    
C18   C19   S    
C25   H31   S    
C17   H10   S    
C20   H18   S    
C14   H7    S    
C27   H12   S    
N1    Zn2   S    
C16   C17   S    
C3    O3    A    
C23   C27   S    
C13   H5    S    
C9    C29   T    
C5    O7    A    
C19   H21   S    
C24   H32   S    
C22   C28   S    
C26   H39   S    
C15   H16   S    
C27   H43   S    
C16   H15   S    
O7    Zn1   S    
C24   C25   S    
C13   H4    S    
C16   H14   S    
C7    H40   S    
C7    C21   S    
C1    C32   S    
C2    C4    S    
C17   H11   S    
C5    C9    S    
C10   C30   S    
C18   H25   S    
C4    O6    A    
C18   N2    S    
C3    O4    A    
C8    H42   S    
C25   H29   S    
C3    C31   S    
C22   H36   S    
C13   H6    S    
O3    Zn1   S    
C24   H33   S    
C21   H28   S    
C14   H9    S    
C5    O8    A    
C19   H22   S    
C26   H38   S    
C22   C24   S    
C1    O1    A    
C10   C28   S    
C1    O2    A    
C11   H2    S    
O6    Zn2   S    
C14   C32   S    
C6    C10   S    
C11   C12   S    
C18   H24   S    
C26   C28   S    
C6    H1    S    
C2    H23   S    
C11   H3    S    
C21   H26   S    
C20   H20   S    
C15   N1    S    
C4    O5    A    
O4    Zn2   S    
C8    H41   S    
C25   H30   S    
C15   H17   S    
C22   H35   S    
C14   H8    S    
C6    H34   S    
C12   C13   S    
O2    Zn2   S    
C27   C28   S    
C26   H37   S    
