data_mof_unit_20823.cif
_audit_creation_date              2012-12-11T14:04:09-0500
_audit_creation_method            fapswitch 2.2
_symmetry_space_group_name_H-M    P1
_symmetry_Int_Tables_number       1
_space_group_crystal_system       triclinic
_cell_length_a                    19.601651
_cell_length_b                    11.230789
_cell_length_c                    18.875966
_cell_angle_alpha                 91.533696
_cell_angle_beta                  89.988732
_cell_angle_gamma                 90.071661
_cell_volume                      4153.90108495

loop_
_atom_site_label
_atom_site_type_symbol
_atom_type_description
_atom_site_fract_x
_atom_site_fract_y
_atom_site_fract_z
_atom_type_partial_charge
C1    C     C_R   0.239907 0.464751 0.649649 0.531705
C2    C     C_R   0.760871 0.469588 0.351394 0.537338
C3    C     C_R   0.739604 0.966603 0.648720 0.525439
C4    C     C_R   0.261307 0.972637 0.352105 0.543297
C5    C     C_2   0.291671 0.882324 0.531241 0.050134
C6    C     C_2   0.707025 0.900975 0.461841 -0.009396
C7    C     C_2   0.794553 0.386106 0.533012 0.050246
C8    C     C_2   0.208422 0.395430 0.462635 -0.016312
C9    C     C_R   0.018329 0.673246 0.415950 -0.013519
C10   C     C_R   0.009979 0.666193 0.565778 0.001873
C11   C     C_R   0.514376 0.179951 0.418790 -0.009902
C12   C     C_R   0.506438 0.176326 0.568577 -0.000919
C13   C     C_R   0.018941 0.892749 0.421274 0.035805
C14   C     C_R   0.982884 0.885518 0.566925 0.032663
C15   C     C_R   0.512997 0.397643 0.418475 0.042454
C16   C     C_R   0.494403 0.413114 0.567240 -0.001559
C17   C     C_R   0.999210 0.994885 0.458975 -0.128830
C18   C     C_R   0.982589 0.990741 0.529658 -0.141331
C19   C     C_R   0.491151 0.502039 0.451193 -0.120958
C20   C     C_R   0.485008 0.509814 0.523218 -0.132929
C21   C     C_R   0.004269 0.778154 0.531313 -0.003218
C22   C     C_R   0.015030 0.781502 0.455681 -0.012367
C23   C     C_R   0.504186 0.293443 0.533778 -0.007843
C24   C     C_R   0.510017 0.290266 0.456790 -0.005673
C25   C     C_R   0.012982 0.562637 0.521790 -0.019084
C26   C     C_R   0.034406 0.569314 0.451010 -0.022553
C27   C     C_R   0.507701 0.071985 0.523784 -0.022504
C28   C     C_R   0.533167 0.080098 0.454661 -0.024913
C29   C     C_R   0.983677 0.455955 0.542902 0.258768
C30   C     C_R   0.049039 0.463689 0.411899 0.250956
C31   C     C_R   0.478009 0.961935 0.541754 0.249281
C32   C     C_R   0.551409 0.977012 0.415295 0.243701
C33   C     C_R   0.988183 0.353818 0.498667 -0.156417
C34   C     C_R   0.018630 0.358625 0.432456 -0.140850
C35   C     C_R   0.481487 0.865107 0.492602 -0.151449
C36   C     C_R   0.517898 0.872427 0.430176 -0.132617
C37   C     C_2   0.242669 0.910925 0.922025 -0.098856
C38   C     C_2   0.756046 0.910422 0.078459 -0.087033
C39   C     C_2   0.741758 0.402701 0.924622 -0.094958
C40   C     C_2   0.257482 0.403797 0.076557 -0.089509
C41   C     C_2   0.249358 0.885347 0.090386 -0.089574
C42   C     C_2   0.746797 0.887303 0.908263 -0.082868
C43   C     C_2   0.740920 0.377095 0.095801 -0.100047
C44   C     C_2   0.249215 0.389826 0.909543 -0.087767
C45   C     C_R   0.226642 0.869882 0.647078 0.542046
C46   C     C_R   0.773505 0.876274 0.351002 0.580819
C47   C     C_R   0.726858 0.370715 0.647474 0.541844
C48   C     C_R   0.273122 0.376355 0.350719 0.580466
C49   C     C_2   0.203085 0.904967 0.040581 0.002292
C50   C     C_2   0.794772 0.898545 0.957210 0.003318
C51   C     C_2   0.697915 0.400181 0.042848 0.016442
C52   C     C_2   0.299082 0.403445 0.957011 0.012508
C53   C     C_2   0.214509 0.846321 0.972844 0.195352
C54   C     C_2   0.780575 0.842882 0.024681 0.185216
C55   C     C_2   0.710084 0.340901 0.974871 0.192803
C56   C     C_2   0.289452 0.343922 0.023746 0.176316
C57   C     C_2   0.985815 0.652724 0.912750 -0.085197
C58   C     C_2   0.964070 0.638304 0.065558 -0.053986
C59   C     C_2   0.500444 0.162923 0.920024 -0.067165
C60   C     C_2   0.492569 0.152514 0.075006 -0.052825
C61   C     C_2   0.951592 0.540434 0.020845 0.020921
C62   C     C_2   0.963204 0.548805 0.942183 0.030412
C63   C     C_2   0.490492 0.053863 0.031030 0.031112
C64   C     C_2   0.478561 0.064681 0.953027 0.037925
C65   C     C_R   0.033831 0.654593 0.642011 0.571693
C66   C     C_R   0.973501 0.657047 0.352017 0.583651
C67   C     C_R   0.531111 0.156870 0.643667 0.578400
C68   C     C_R   0.472096 0.158174 0.353227 0.577978
C69   C     C_R   0.238673 0.465076 0.848864 0.588908
C70   C     C_R   0.759600 0.461881 0.152300 0.579823
C71   C     C_R   0.738542 0.964190 0.848240 0.585535
C72   C     C_R   0.261035 0.963374 0.151354 0.565585
C73   C     C_R   0.227525 0.875637 0.850679 0.588363
C74   C     C_R   0.772384 0.874394 0.149190 0.594878
C75   C     C_R   0.726718 0.372684 0.852197 0.589851
C76   C     C_R   0.273081 0.372096 0.148131 0.600489
C77   C     C_R   0.027079 0.651408 0.848201 0.581387
C78   C     C_R   0.943652 0.644854 0.141050 0.602184
C79   C     C_R   0.528661 0.153043 0.849306 0.585602
C80   C     C_R   0.468829 0.149987 0.148447 0.588581
C81   C     C_2   0.259734 0.931528 0.589205 -0.027101
C82   C     C_2   0.750817 0.941502 0.413991 -0.035887
C83   C     C_2   0.758606 0.432881 0.589051 -0.038802
C84   C     C_2   0.248518 0.441286 0.412854 -0.038671
C85   C     C_2   0.250105 0.929019 0.419677 -0.126124
C86   C     C_2   0.749060 0.920421 0.578770 -0.129005
C87   C     C_2   0.750990 0.421122 0.418942 -0.129952
C88   C     C_2   0.249230 0.414982 0.580456 -0.124168
C89   C     C_2   0.295814 0.954409 0.470300 -0.162865
C90   C     C_2   0.706336 0.959581 0.530098 -0.162137
C91   C     C_2   0.794441 0.454947 0.470235 -0.158768
C92   C     C_2   0.206838 0.453281 0.530984 -0.171681
Cr1   Cr    Cr6+3 0.113970 0.508630 0.747920 1.033712
Cr2   Cr    Cr6+3 0.886030 0.508630 0.252080 1.032820
Cr3   Cr    Cr6+3 0.613970 0.008630 0.747920 1.042188
Cr4   Cr    Cr6+3 0.386030 0.008630 0.252080 1.023248
Cr5   Cr    Cr6+3 0.269200 0.666740 0.749850 0.984007
Cr6   Cr    Cr6+3 0.730800 0.666740 0.250150 1.015843
Cr7   Cr    Cr6+3 0.769200 0.166740 0.749850 0.980969
Cr8   Cr    Cr6+3 0.230800 0.166740 0.250150 1.024541
Cr9   Cr    Cr6+3 0.112300 0.820070 0.749800 0.994724
Cr10  Cr    Cr6+3 0.887700 0.820070 0.250200 0.996593
Cr11  Cr    Cr6+3 0.612300 0.320070 0.749800 0.978603
Cr12  Cr    Cr6+3 0.387700 0.320070 0.250200 1.002276
H1    H     H_    0.340290 0.010397 0.461902 0.159647
H2    H     H_    0.665274 0.021673 0.542942 0.142503
H3    H     H_    0.834679 0.520141 0.462251 0.159616
H4    H     H_    0.166037 0.516393 0.542875 0.137309
H5    H     H_    0.288072 0.817780 0.079701 0.087569
H6    H     H_    0.704212 0.827680 0.918306 0.098842
H7    H     H_    0.771741 0.298772 0.090627 0.098245
H8    H     H_    0.207932 0.328100 0.920950 0.087340
H9    H     H_    0.261200 0.000824 0.932936 0.078711
H10   H     H_    0.742857 0.003060 0.070330 0.092145
H11   H     H_    0.768520 0.485358 0.936470 0.082466
H12   H     H_    0.234069 0.489791 0.067590 0.101239
H13   H     H_    0.987172 0.718834 0.047718 0.084838
H14   H     H_    0.986412 0.736967 0.940558 0.081897
H15   H     H_    0.491777 0.240997 0.054271 0.087626
H16   H     H_    0.519770 0.240169 0.948944 0.113397
H17   H     H_    0.204116 0.877398 0.429052 0.086958
H18   H     H_    0.791664 0.861877 0.565817 0.088619
H19   H     H_    0.709732 0.358094 0.427171 0.089485
H20   H     H_    0.292217 0.356812 0.568252 0.101161
H21   H     H_    0.253270 0.027322 0.591705 0.096788
H22   H     H_    0.779697 0.021750 0.427517 0.085338
H23   H     H_    0.745364 0.526329 0.588258 0.095676
H24   H     H_    0.273650 0.525693 0.423750 0.079750
H25   H     H_    0.999902 0.081053 0.435122 0.093332
H26   H     H_    0.969828 0.072381 0.555790 0.102913
H27   H     H_    0.489311 0.584465 0.423069 0.091135
H28   H     H_    0.482586 0.598571 0.543603 0.098636
H29   H     H_    0.969020 0.269459 0.513702 0.112215
H30   H     H_    0.022433 0.279021 0.399158 0.116407
H31   H     H_    0.456733 0.782575 0.499308 0.105962
H32   H     H_    0.521451 0.795779 0.394322 0.116741
O1    O     O_R   0.043230 0.549300 0.667990 -0.459834
O2    O     O_R   0.956770 0.549300 0.332010 -0.460999
O3    O     O_R   0.543230 0.049300 0.667990 -0.451163
O4    O     O_R   0.456770 0.049300 0.332010 -0.471522
O5    O     O_R   0.262920 0.788600 0.824420 -0.486670
O6    O     O_R   0.737080 0.788600 0.175580 -0.471719
O7    O     O_R   0.762920 0.288600 0.824420 -0.477195
O8    O     O_R   0.237080 0.288600 0.175580 -0.472941
O9    O     O_R   0.167530 0.905110 0.830340 -0.503475
O10   O     O_R   0.832470 0.905110 0.169660 -0.528830
O11   O     O_R   0.667530 0.405110 0.830340 -0.510690
O12   O     O_R   0.332470 0.405110 0.169660 -0.514398
O13   O     O_R   0.054010 0.748440 0.822860 -0.486141
O14   O     O_R   0.945990 0.748440 0.177140 -0.502523
O15   O     O_R   0.554010 0.248440 0.822860 -0.490941
O16   O     O_R   0.445990 0.248440 0.177140 -0.494936
O17   O     O_3   0.165160 0.665150 0.749190 -0.247799
O18   O     O_3   0.834840 0.665150 0.250810 -0.269113
O19   O     O_3   0.665160 0.165150 0.749190 -0.242499
O20   O     O_3   0.334840 0.165150 0.250810 -0.255752
O21   O     O_R   0.178620 0.457600 0.674100 -0.500844
O22   O     O_R   0.821380 0.457600 0.325900 -0.498886
O23   O     O_R   0.678620 0.957600 0.674100 -0.497531
O24   O     O_R   0.321380 0.957600 0.325900 -0.503644
O25   O     O_R   0.284680 0.542100 0.669460 -0.558591
O26   O     O_R   0.715320 0.542100 0.330540 -0.546664
O27   O     O_R   0.784680 0.042100 0.669460 -0.570535
O28   O     O_R   0.215320 0.042100 0.330540 -0.547166
O29   O     O_R   0.262860 0.790390 0.676650 -0.509373
O30   O     O_R   0.737140 0.790390 0.323350 -0.481796
O31   O     O_R   0.762860 0.290390 0.676650 -0.516039
O32   O     O_R   0.237140 0.290390 0.323350 -0.478921
O33   O     O_R   0.167460 0.907030 0.670940 -0.548145
O34   O     O_R   0.832540 0.907030 0.329060 -0.545076
O35   O     O_R   0.667460 0.407030 0.670940 -0.567897
O36   O     O_R   0.332540 0.407030 0.329060 -0.545203
O37   O     O_R   0.053950 0.750220 0.675100 -0.533772
O38   O     O_R   0.946050 0.750220 0.324900 -0.516517
O39   O     O_R   0.553950 0.250220 0.675100 -0.559913
O40   O     O_R   0.446050 0.250220 0.324900 -0.520711
O41   O     O_R   0.043300 0.547370 0.827390 -0.518877
O42   O     O_R   0.956700 0.547370 0.172610 -0.522123
O43   O     O_R   0.543300 0.047370 0.827390 -0.508660
O44   O     O_R   0.456700 0.047370 0.172610 -0.509440
O45   O     O_R   0.178690 0.455820 0.821860 -0.500275
O46   O     O_R   0.821310 0.455820 0.178140 -0.537563
O47   O     O_R   0.678690 0.955820 0.821860 -0.493464
O48   O     O_R   0.321310 0.955820 0.178140 -0.512718
O49   O     O_R   0.284750 0.540170 0.828860 -0.520894
O50   O     O_R   0.715250 0.540170 0.171140 -0.521713
O51   O     O_R   0.784750 0.040170 0.828860 -0.528481
O52   O     O_R   0.215250 0.040170 0.171140 -0.528712
Cl1   Cl    Cl    0.178584 0.703189 0.958164 -0.633997
Cl2   Cl    Cl    0.808785 0.695548 0.035522 -0.717148
Cl3   Cl    Cl    0.671591 0.200659 0.958444 -0.653363
Cl4   Cl    Cl    0.333891 0.208839 0.035210 -0.719907
C93   C     C_3   0.937600 0.418863 0.055145 -0.228400
C94   C     C_3   0.897234 0.310806 0.025893 -0.343369
C95   C     C_3   0.891230 0.217660 0.083725 -0.463743
H33   H     H_    0.940593 0.171311 0.090515 0.148518
H34   H     H_    0.877564 0.257943 0.136093 0.169180
H35   H     H_    0.850726 0.152958 0.068960 0.152310
H36   H     H_    0.846529 0.340088 0.008404 0.167909
H37   H     H_    0.919276 0.262486 0.980821 0.168387
H38   H     H_    0.985695 0.387625 0.079752 0.164104
H39   H     H_    0.900602 0.442488 0.094990 0.228639
C96   C     C_3   0.948900 0.438370 0.894709 -0.184604
C97   C     C_3   0.007076 0.343703 0.896922 -0.264030
C98   C     C_3   0.992247 0.239194 0.846175 -0.468545
H40   H     H_    0.942701 0.196981 0.859161 0.144538
H41   H     H_    0.990473 0.269819 0.790724 0.163142
H42   H     H_    0.033678 0.172494 0.850488 0.134358
H43   H     H_    0.058028 0.378252 0.883632 0.217576
H44   H     H_    0.016272 0.312050 0.950800 0.136656
H45   H     H_    0.898324 0.401542 0.906994 0.122309
H46   H     H_    0.938751 0.463270 0.839124 0.168720
C99   C     C_3   0.503786 0.929876 0.058840 -0.211854
C100  C     C_3   0.437360 0.858714 0.070538 -0.268310
C101  C     C_3   0.440345 0.777626 0.134455 -0.406712
H47   H     H_    0.479247 0.707542 0.126858 0.117215
H48   H     H_    0.452152 0.828571 0.184027 0.197024
H49   H     H_    0.390250 0.733099 0.141096 0.132798
H50   H     H_    0.394414 0.921511 0.077367 0.217051
H51   H     H_    0.424619 0.802969 0.023425 0.130130
H52   H     H_    0.537326 0.883487 0.020782 0.115965
H53   H     H_    0.535857 0.934508 0.107387 0.175339
C102  C     C_3   0.432103 0.975201 0.912784 -0.201777
C103  C     C_3   0.464789 0.855843 0.886634 -0.307626
C104  C     C_3   0.410739 0.769303 0.859009 -0.441343
H54   H     H_    0.370105 0.759238 0.899215 0.171988
H55   H     H_    0.388974 0.802616 0.809015 0.190004
H56   H     H_    0.433773 0.680625 0.847544 0.125685
H57   H     H_    0.500734 0.865855 0.842456 0.208178
H58   H     H_    0.493905 0.812353 0.928115 0.140856
H59   H     H_    0.387929 0.956667 0.947518 0.145113
H60   H     H_    0.409414 0.018482 0.865974 0.152656
C105  C     C_3   0.304347 0.755270 0.504889 -0.242702
C106  C     C_3   0.312551 0.662185 0.556085 -0.241737
C107  C     C_3   0.373031 0.674143 0.606077 -0.321716
H61   H     H_    0.414148 0.727492 0.587330 0.161495
H62   H     H_    0.363542 0.709559 0.659845 0.219135
H63   H     H_    0.390523 0.582049 0.611843 0.145103
H64   H     H_    0.261973 0.658188 0.580831 0.206465
H65   H     H_    0.321487 0.579256 0.524410 0.133873
H66   H     H_    0.260594 0.725027 0.471381 0.102982
H67   H     H_    0.349294 0.751874 0.468933 0.149186
C108  C     C_3   0.663412 0.791902 0.456258 -0.215314
C109  C     C_3   0.696474 0.682796 0.486240 -0.305904
C110  C     C_3   0.640876 0.590041 0.496253 -0.442893
H68   H     H_    0.606624 0.620069 0.539965 0.154433
H69   H     H_    0.612151 0.581296 0.446404 0.164068
H70   H     H_    0.659909 0.501429 0.509335 0.154917
H71   H     H_    0.736274 0.653254 0.448712 0.193818
H72   H     H_    0.720185 0.702383 0.538382 0.159617
H73   H     H_    0.644318 0.773560 0.401863 0.204071
H74   H     H_    0.619238 0.809722 0.491310 0.156995
C111  C     C_3   0.821532 0.262695 0.512818 -0.226401
C112  C     C_3   0.835557 0.174922 0.568335 -0.239181
C113  C     C_3   0.885785 0.207593 0.629516 -0.305718
H75   H     H_    0.938482 0.222826 0.613398 0.123767
H76   H     H_    0.872733 0.285223 0.662507 0.238449
H77   H     H_    0.887444 0.135650 0.667338 0.142628
H78   H     H_    0.782980 0.161384 0.584650 0.218051
H79   H     H_    0.852598 0.090474 0.542177 0.123659
H80   H     H_    0.783342 0.219523 0.476708 0.094689
H81   H     H_    0.866626 0.269733 0.478326 0.157754
C114  C     C_3   0.165768 0.285417 0.457701 -0.215309
C115  C     C_3   0.196842 0.180112 0.493600 -0.309754
C116  C     C_3   0.141556 0.086028 0.499709 -0.444039
H82   H     H_    0.100291 0.120148 0.535023 0.155004
H83   H     H_    0.121701 0.067399 0.446221 0.166494
H84   H     H_    0.159028 0.001813 0.521383 0.158069
H85   H     H_    0.240689 0.151591 0.461205 0.186808
H86   H     H_    0.214367 0.202820 0.547904 0.164064
H87   H     H_    0.148475 0.262046 0.403285 0.207176
H88   H     H_    0.120759 0.305745 0.490482 0.158329
C117  C     C_3   0.053630 0.907514 0.349298 -0.238170
C118  C     C_3   0.014732 0.990501 0.299585 -0.280601
C119  C     C_3   0.045385 0.987699 0.225440 -0.436304
H89   H     H_    0.097772 0.024757 0.227645 0.183929
H90   H     H_    0.047244 0.895294 0.203230 0.177252
H91   H     H_    0.014069 0.042900 0.189930 0.117562
H92   H     H_    0.960226 0.965401 0.296209 0.220642
H93   H     H_    0.017549 0.084009 0.319898 0.128886
H94   H     H_    0.104856 0.945150 0.358182 0.146418
H95   H     H_    0.064024 0.820885 0.322017 0.167188
C120  C     C_3   0.946586 0.891830 0.638022 -0.229190
C121  C     C_3   0.985030 0.969119 0.694231 -0.270951
C122  C     C_3   0.952360 0.957280 0.766997 -0.435732
H96   H     H_    0.942620 0.862433 0.778752 0.163409
H97   H     H_    0.986939 0.993965 0.808487 0.129388
H98   H     H_    0.903409 0.006486 0.769006 0.167307
H99   H     H_    0.039510 0.947137 0.697631 0.231764
H100  H     H_    0.986654 0.063675 0.680045 0.103984
H101  H     H_    0.895653 0.931743 0.629829 0.142716
H102  H     H_    0.934681 0.802199 0.657749 0.161691
C123  C     C_3   0.551878 0.407894 0.348547 -0.236862
C124  C     C_3   0.515524 0.485928 0.294240 -0.282025
C125  C     C_3   0.549167 0.474656 0.221939 -0.440246
H103  H     H_    0.601123 0.512933 0.225591 0.183047
H104  H     H_    0.552606 0.380142 0.203658 0.167294
H105  H     H_    0.519184 0.524719 0.182772 0.115697
H106  H     H_    0.460999 0.461827 0.289412 0.220795
H107  H     H_    0.518391 0.581284 0.311075 0.122251
H108  H     H_    0.602198 0.448003 0.360120 0.147672
H109  H     H_    0.564658 0.319719 0.324383 0.166387
C126  C     C_3   0.502747 0.447007 0.646339 -0.247888
C127  C     C_3   0.499719 0.573630 0.682157 -0.369499
C128  C     C_3   0.547107 0.585312 0.746643 -0.425581
H110  H     H_    0.536404 0.513760 0.784651 0.165601
H111  H     H_    0.601335 0.581079 0.729990 0.183305
H112  H     H_    0.538980 0.672913 0.773952 0.122815
H113  H     H_    0.514453 0.645779 0.646413 0.167815
H114  H     H_    0.448462 0.588840 0.705105 0.155250
H115  H     H_    0.469197 0.389039 0.678127 0.169820
H116  H     H_    0.557079 0.433996 0.650569 0.249003
Cl5   Cl    Cl    0.094376 0.465548 0.330811 -0.636924
Cl6   Cl    Cl    0.923703 0.465277 0.611719 -0.705713
Cl7   Cl    Cl    0.599250 0.985150 0.335891 -0.662074
Cl8   Cl    Cl    0.423613 0.952907 0.615879 -0.680531
C129  C     C_3   0.143378 0.989248 0.046487 -0.234502
C130  C     C_3   0.162023 0.119790 0.033983 -0.278063
C131  C     C_3   0.108522 0.206006 0.063841 -0.440205
H117  H     H_    0.058680 0.190210 0.038145 0.130401
H118  H     H_    0.103055 0.195905 0.121935 0.178143
H119  H     H_    0.124200 0.298965 0.053599 0.153820
H120  H     H_    0.210481 0.141557 0.060223 0.257783
H121  H     H_    0.168275 0.134086 0.976319 0.150344
H122  H     H_    0.108220 0.961426 0.003700 0.155306
H123  H     H_    0.116544 0.977281 0.097461 0.158865
C132  C     C_3   0.858666 0.970956 0.947043 -0.239068
C133  C     C_3   0.911664 0.944512 0.003162 -0.306501
C134  C     C_3   0.979398 0.000402 0.986713 -0.491605
H124  H     H_    0.006697 0.946630 0.945501 0.164522
H125  H     H_    0.973452 0.091627 0.967575 0.156779
H126  H     H_    0.007735 0.004237 0.037236 0.143101
H127  H     H_    0.894372 0.975130 0.056254 0.192203
H128  H     H_    0.918216 0.847831 0.005683 0.203253
H129  H     H_    0.880997 0.945857 0.894739 0.161366
H130  H     H_    0.846090 0.067442 0.948523 0.176783
C135  C     C_3   0.636067 0.479824 0.047419 -0.216200
C136  C     C_3   0.643317 0.593703 0.004059 -0.280905
C137  C     C_3   0.625313 0.704798 0.047453 -0.432647
H131  H     H_    0.570681 0.705927 0.059674 0.125348
H132  H     H_    0.653371 0.706758 0.097920 0.232597
H133  H     H_    0.638310 0.785116 0.017523 0.140376
H134  H     H_    0.695478 0.605891 0.984657 0.219552
H135  H     H_    0.610591 0.588062 0.956109 0.147004
H136  H     H_    0.593192 0.425818 0.025552 0.135848
H137  H     H_    0.620483 0.499507 0.102425 0.160465
C138  C     C_3   0.359437 0.485549 0.947559 -0.223715
C139  C     C_3   0.408458 0.486860 0.010552 -0.302784
C140  C     C_3   0.474821 0.545375 0.991993 -0.497588
H138  H     H_    0.502066 0.491246 0.950821 0.156521
H139  H     H_    0.466218 0.635485 0.972471 0.157695
H140  H     H_    0.504926 0.551127 0.041201 0.147811
H141  H     H_    0.384946 0.535777 0.056348 0.179083
H142  H     H_    0.420877 0.395376 0.026375 0.222264
H143  H     H_    0.387274 0.456606 0.898698 0.162657
H144  H     H_    0.340444 0.577750 0.942075 0.180231

loop_
_geom_bond_atom_site_label_1
_geom_bond_atom_site_label_2
_ccdc_geom_bond_type
C129  H123  S    
C3    O23   A    
C50   C132  S    
C113  H76   S    
C115  H85   S    
C87   C91   D    
C19   C20   A    
Cr7   O51   S    
C135  C136  S    
C68   O40   A    
C127  H114  S    
C12   C23   A    
C130  H120  S    
C14   C21   A    
Cr7   O7    S    
C121  C122  S    
Cr8   O52   S    
C38   H10   S    
C29   C33   A    
C104  H56   S    
C93   H38   S    
C109  C110  S    
C118  C119  S    
Cr2   O42   S    
C137  H132  S    
Cr1   O45   S    
C102  C103  S    
C85   H17   S    
C8    C92   S    
C47   C83   S    
C13   C117  S    
C95   H35   S    
C65   O1    A    
C58   C61   D    
C121  H100  S    
C8    C84   D    
C21   C22   A    
C20   H28   S    
C41   C49   D    
C132  H130  S    
Cr6   O26   S    
C9    C26   A    
Cr7   O31   S    
C10   C21   A    
C25   C29   A    
C12   C27   A    
C27   C31   A    
C71   O47   A    
C28   C32   A    
C72   O48   A    
C86   C90   D    
Cr3   O43   S    
C40   C76   S    
C64   C102  S    
C35   C36   A    
C55   Cl3   S    
Cr5   O49   S    
C101  H47   S    
C133  H127  S    
C99   H53   S    
C126  C127  S    
C16   C20   A    
C50   C54   S    
Cr4   O44   S    
C75   O7    A    
C44   H8    S    
C39   H11   S    
C120  H102  S    
C79   O43   A    
C68   O4    A    
C30   Cl5   S    
C69   O49   A    
C102  H60   S    
C126  H115  S    
C111  H80   S    
C45   C81   S    
C71   O51   A    
C47   O35   A    
C14   C120  S    
Cr3   O3    S    
C18   H26   S    
Cr12  O16   S    
Cr1   O17   S    
C122  H97   S    
C100  H51   S    
C103  H57   S    
Cr3   O47   S    
Cr4   O20   S    
C112  H78   S    
C49   C53   S    
C139  C140  S    
C33   C34   A    
C51   C55   S    
C49   C129  S    
C95   H33   S    
C76   O12   A    
C93   C94   S    
C110  H70   S    
C66   O38   A    
C5    C89   S    
C69   O45   A    
C57   H14   S    
C31   Cl8   S    
C84   H24   S    
C7    C83   D    
Cr6   O18   S    
C59   H16   S    
Cr9   O37   S    
C88   H20   S    
C2    O26   A    
C139  H142  S    
Cr12  O40   S    
Cr9   O9    S    
Cr3   O23   S    
C117  H95   S    
C32   C36   A    
C111  C112  S    
C136  H135  S    
C34   H30   S    
C136  H134  S    
C60   H15   S    
C46   C82   S    
C92   H4    S    
C94   H37   S    
C115  C116  S    
C128  H111  S    
C23   C24   A    
C39   C75   S    
C138  H144  S    
C67   O3    A    
C105  C106  S    
C37   C53   D    
C44   C52   D    
C114  H87   S    
C41   H5    S    
Cr6   O6    S    
Cr11  O35   S    
C134  H125  S    
C96   H45   S    
C43   H7    S    
C117  C118  S    
C98   H41   S    
C108  H73   S    
C109  H71   S    
C30   C34   A    
C118  H92   S    
C119  H91   S    
C101  H49   S    
C35   H31   S    
Cr1   O41   S    
C25   C26   A    
C6    C90   S    
C58   H13   S    
C77   O41   A    
C46   O34   A    
C73   O9    A    
C123  C124  S    
C66   O2    A    
C17   C18   A    
C2    C87   S    
C106  H65   S    
C116  H83   S    
Cr6   O30   S    
C42   C50   D    
Cr7   O27   S    
C135  H137  S    
C10   C25   A    
C15   C24   A    
C26   C30   A    
C16   C23   A    
Cr5   O25   S    
C114  H88   S    
C107  H63   S    
C123  H108  S    
C61   C93   S    
C11   C68   S    
C38   C74   S    
C129  H122  S    
C60   C80   S    
C115  H86   S    
C54   Cl2   S    
C81   H21   S    
C83   H23   S    
C133  C134  S    
C45   O33   A    
Cr4   O4    S    
C3    O27   A    
C140  H140  S    
C13   C17   A    
C42   H6    S    
C124  H106  S    
C87   H19   S    
C104  H55   S    
C61   C62   S    
C6    C108  S    
C70   O50   A    
C63   C64   S    
Cr12  O20   S    
C105  H67   S    
C137  H133  S    
C97   C98   S    
C89   H1    S    
C120  C121  S    
C110  H68   S    
C53   Cl1   S    
C95   H34   S    
C56   Cl4   S    
Cr10  O34   S    
Cr12  O12   S    
C119  H89   S    
C103  C104  S    
C132  H129  S    
C114  C115  S    
C73   O5    A    
C99   C100  S    
C15   C19   A    
C140  H138  S    
C124  C125  S    
C10   C65   S    
C37   H9    S    
C108  C109  S    
C82   H22   S    
C133  H128  S    
C99   H52   S    
C70   O46   A    
C39   C55   D    
C67   O39   A    
C40   C56   D    
Cr7   O19   S    
C97   H43   S    
C86   H18   S    
C107  H61   S    
Cr9   O33   S    
Cr5   O17   S    
Cr10  O18   S    
Cr11  O15   S    
Cr12  O36   S    
Cr8   O20   S    
C1    C88   S    
C94   C95   S    
C113  H77   S    
C1    O25   A    
Cr2   O22   S    
C3    C86   S    
C36   H32   S    
C102  H59   S    
C127  H113  S    
Cr11  O11   S    
C57   C77   S    
C90   H2    S    
C125  H104  S    
C59   C79   S    
C138  C139  S    
C85   C89   D    
C52   C138  S    
C75   O11   A    
C93   H39   S    
C122  H96   S    
C103  H58   S    
C5    C81   D    
C137  H131  S    
C38   C54   D    
C112  H79   S    
C2    O22   A    
C7    C91   S    
Cr11  O39   S    
C44   C69   S    
Cr8   O28   S    
C8    C114  S    
Cr5   O5    S    
Cr10  O14   S    
Cr11  O19   S    
C121  H99   S    
C110  H69   S    
Cr8   O8    S    
Cr2   O2    S    
C31   C35   A    
C106  C107  S    
C77   O13   A    
C125  H103  S    
C46   O30   A    
C78   O42   A    
C74   O10   A    
C130  H121  S    
C51   C135  S    
C117  H94   S    
C132  C133  S    
Cr6   O50   S    
C43   C51   D    
C11   C28   A    
Cr5   O29   S    
C16   C126  S    
C42   C71   S    
C13   C22   A    
C58   C78   S    
C131  H117  S    
C128  H110  S    
Cr2   O46   S    
C138  H143  S    
C45   O29   A    
C126  H116  S    
C111  H81   S    
C96   C97   S    
C6    C82   D    
C134  H124  S    
C14   C18   A    
C57   C62   D    
C4    O24   A    
C98   H40   S    
C59   C64   D    
C112  C113  S    
C109  H72   S    
C60   C63   D    
C118  H93   S    
C80   O44   A    
C119  H90   S    
C122  H98   S    
C100  H50   S    
C101  H48   S    
C9    C22   A    
C11   C24   A    
C9    C66   S    
C72   O52   A    
C48   O36   A    
C88   C92   D    
C4    O28   A    
C116  H82   S    
C135  H136  S    
C74   O6    A    
C131  H119  S    
C140  H139  S    
C5    C105  S    
C7    C111  S    
C107  H62   S    
C120  H101  S    
Cr4   O48   S    
C139  H141  S    
C125  H105  S    
C19   H27   S    
C12   C67   S    
C17   H25   S    
C29   Cl6   S    
C100  C101  S    
C4    C85   S    
C32   Cl7   S    
C48   C84   S    
C124  H107  S    
C130  C131  S    
C47   O31   A    
C94   H36   S    
C48   O32   A    
Cr9   O17   S    
Cr2   O18   S    
C128  H112  S    
C104  H54   S    
C63   C99   S    
Cr1   O21   S    
C41   C72   S    
C105  H66   S    
C127  C128  S    
Cr4   O24   S    
C43   C70   S    
C134  H126  S    
C96   H46   S    
C113  H75   S    
C76   O8    A    
C78   O14   A    
C79   O15   A    
C98   H42   S    
C80   O16   A    
C37   C73   S    
C15   C123  S    
C108  H74   S    
C65   O37   A    
Cr10  O38   S    
Cr8   O32   S    
C1    O21   A    
Cr10  O10   S    
C40   H12   S    
Cr9   O13   S    
Cr3   O19   S    
C106  H64   S    
C129  C130  S    
C116  H84   S    
C62   C96   S    
Cr1   O1    S    
C33   H29   S    
C136  C137  S    
C97   H44   S    
C27   C28   A    
C131  H118  S    
C123  H109  S    
C52   C56   S    
C91   H3    S    
