data_mof_unit_13445.cif
_audit_creation_date              2012-12-10T18:34:26-0500
_audit_creation_method            fapswitch 2.2
_symmetry_space_group_name_H-M    P1
_symmetry_Int_Tables_number       1
_space_group_crystal_system       triclinic
_cell_length_a                    14.998047
_cell_length_b                    15.499343
_cell_length_c                    15.712293
_cell_angle_alpha                 89.603624
_cell_angle_beta                  104.010836
_cell_angle_gamma                 81.585935
_cell_volume                      3502.25891598

loop_
_atom_site_label
_atom_site_type_symbol
_atom_type_description
_atom_site_fract_x
_atom_site_fract_y
_atom_site_fract_z
_atom_type_partial_charge
C1    C     C_R   0.441078 0.662204 0.487915 0.916951
C2    C     C_R   0.556331 0.098584 0.528974 -0.039956
C3    C     C_R   0.354673 0.932690 0.513546 0.051798
C4    C     C_R   0.651285 0.064536 0.561077 0.052269
C5    C     C_R   0.515742 0.953469 0.527795 0.072790
C6    C     C_R   0.488425 0.044170 0.525867 0.089292
C7    C     C_R   0.395573 0.077567 0.526235 -0.162989
C8    C     C_R   0.611429 0.919064 0.554316 -0.168025
C9    C     C_R   0.330318 0.021758 0.523523 -0.216255
C10   C     C_R   0.678185 0.974413 0.574592 -0.203744
C11   C     C_R   0.853189 0.591117 0.663548 -0.298712
C12   C     C_R   0.558745 0.337715 0.511894 0.920476
C13   C     C_R   0.146288 0.401505 0.341766 -0.315007
C14   C     C_R   0.760055 0.585750 0.629208 -0.050494
C15   C     C_R   0.235260 0.422792 0.367763 -0.062171
C16   C     C_R   0.500868 0.499499 0.661749 0.870475
C17   C     C_R   0.499300 0.499837 0.338234 0.848028
C18   C     C_R   0.791612 0.526720 0.498518 0.549729
C19   C     C_R   0.216030 0.451132 0.510933 0.528634
C20   C     C_R   0.889203 0.516427 0.536906 -0.131023
C21   C     C_R   0.119278 0.449357 0.482102 -0.118776
C22   C     C_R   0.918300 0.555640 0.618139 0.113638
C23   C     C_R   0.289306 0.875890 0.507976 -0.299840
C24   C     C_R   0.087376 0.415901 0.398410 0.121559
C25   C     C_R   0.957934 0.473152 0.496452 0.076550
C26   C     C_R   0.053135 0.482233 0.530273 0.074777
C27   C     C_R   0.077103 0.530097 0.606540 -0.197618
C28   C     C_R   0.934753 0.421307 0.423205 -0.255112
C29   C     C_R   0.011627 0.562103 0.651833 -0.174606
C30   C     C_R   0.997153 0.397162 0.372371 -0.190242
C31   C     C_3   0.429303 0.554796 0.009399 0.233466
C32   C     C_3   0.570878 0.433361 0.990143 0.233639
C33   C     C_3   0.512294 0.572465 0.973581 0.339992
C34   C     C_R   0.717327 0.121302 0.578912 -0.310916
C35   C     C_3   0.487961 0.415747 0.026256 0.330753
C36   C     C_1   0.502849 0.496827 0.751022 -0.133703
C37   C     C_1   0.498173 0.498436 0.249063 -0.166627
C38   C     C_3   0.418660 0.474417 0.952559 0.271625
C39   C     C_3   0.581674 0.513689 0.046982 0.263568
C40   C     C_3   0.501630 0.492607 0.916849 -0.212124
C41   C     C_3   0.498695 0.495685 0.082940 -0.204157
C42   C     C_1   0.502863 0.494227 0.826264 0.198828
C43   C     C_1   0.498006 0.497117 0.173725 0.183238
C44   C     C_R   0.404373 0.755439 0.486913 -0.285540
C45   C     C_R   0.314301 0.786612 0.497328 0.418405
C46   C     C_R   0.595282 0.244019 0.523061 -0.275891
C47   C     C_3   0.525766 0.718083 0.997289 0.134388
C48   C     C_3   0.566112 0.793785 0.965602 -0.307016
C49   C     C_3   0.564304 0.870337 0.026014 -0.983855
C50   C     C_3   0.478215 0.269469 0.003367 0.157445
C51   C     C_3   0.431287 0.195668 0.029136 -0.347239
C52   C     C_3   0.438912 0.118385 0.970279 -0.948949
C53   C     C_3   0.297061 0.365982 0.632061 0.145122
C54   C     C_3   0.226151 0.322562 0.665953 -0.384110
C55   C     C_3   0.270995 0.235349 0.714284 -0.926632
C56   C     C_R   0.689567 0.211859 0.563062 0.439184
C57   C     C_3   0.779143 0.576578 0.356897 0.073335
C58   C     C_3   0.696758 0.648033 0.320651 -0.290238
C59   C     C_3   0.724555 0.717338 0.266755 -0.951279
C60   C     C_3   0.454713 0.182830 0.353274 0.119894
C61   C     C_3   0.364219 0.215044 0.284860 -0.321739
C62   C     C_3   0.280616 0.183528 0.307700 -0.789340
C63   C     C_3   0.512719 0.827350 0.354374 0.068126
C64   C     C_3   0.453469 0.770534 0.291392 -0.362537
C65   C     C_3   0.434355 0.804338 0.196385 -0.931307
C66   C     C_3   0.826287 0.256946 0.550175 0.102554
C67   C     C_R   0.464310 0.814962 0.480730 0.368944
C68   C     C_3   0.918595 0.235055 0.619278 -0.320186
C69   C     C_3   0.000411 0.215684 0.576980 -0.978653
C70   C     C_3   0.188100 0.731365 0.420170 0.099442
C71   C     C_3   0.109091 0.683600 0.430743 -0.318299
C72   C     C_3   0.046260 0.666915 0.342316 -0.933844
C73   C     C_R   0.532125 0.185264 0.496861 0.322166
C74   C     C_R   0.446128 0.899746 0.508646 -0.039811
Cl1   Cl    Cl    0.333561 0.630375 0.025047 -0.584968
Cl2   Cl    Cl    0.665715 0.357362 0.973118 -0.557557
Cl3   Cl    Cl    0.690071 0.537015 0.111063 -0.602425
Cl4   Cl    Cl    0.311795 0.448923 0.886797 -0.568927
H1    H     H_    0.278809 0.417931 0.322023 0.174310
H2    H     H_    0.789584 0.095730 0.608048 0.159499
H3    H     H_    0.374107 0.146164 0.534076 0.182020
H4    H     H_    0.635017 0.849621 0.565326 0.193331
H5    H     H_    0.033664 0.595944 0.711688 0.175525
H6    H     H_    0.974366 0.364467 0.311949 0.169959
H7    H     H_    0.567452 0.695962 0.064629 0.169525
H8    H     H_    0.452893 0.742022 0.999395 0.190376
H9    H     H_    0.639126 0.770889 0.962903 0.244823
H10   H     H_    0.525096 0.816434 0.898314 0.236053
H11   H     H_    0.491998 0.894162 0.030167 0.272342
H12   H     H_    0.710076 0.607054 0.666962 0.171509
H13   H     H_    0.591946 0.924604 0.999574 0.276851
H14   H     H_    0.608442 0.850384 0.092705 0.266307
H15   H     H_    0.552489 0.243590 0.008642 0.190950
H16   H     H_    0.443742 0.291448 0.933985 0.161407
H17   H     H_    0.464711 0.173248 0.098397 0.218124
H18   H     H_    0.356647 0.220296 0.023938 0.246942
H19   H     H_    0.404134 0.138634 0.900848 0.271754
H20   H     H_    0.404665 0.065911 0.991140 0.270253
H21   H     H_    0.513069 0.092017 0.975418 0.269421
H22   H     H_    0.357281 0.370202 0.688379 0.190050
H23   H     H_    0.874475 0.620058 0.726435 0.173065
H24   H     H_    0.324785 0.324312 0.583702 0.128034
H25   H     H_    0.196849 0.366282 0.711459 0.281843
H26   H     H_    0.168548 0.311182 0.609936 0.212596
H27   H     H_    0.298437 0.189654 0.669263 0.253857
H28   H     H_    0.218516 0.205897 0.739147 0.272512
H29   H     H_    0.328674 0.245110 0.771069 0.274287
H30   H     H_    0.798586 0.542107 0.300779 0.217621
H31   H     H_    0.840234 0.607694 0.390062 0.116316
H32   H     H_    0.672151 0.679065 0.376005 0.241842
H33   H     H_    0.639222 0.618855 0.278273 0.247980
H34   H     H_    0.122374 0.378050 0.276606 0.175217
H35   H     H_    0.777115 0.751944 0.309596 0.259501
H36   H     H_    0.662890 0.765674 0.236198 0.249189
H37   H     H_    0.753889 0.687117 0.213636 0.308433
H38   H     H_    0.467868 0.110176 0.353535 0.122152
H39   H     H_    0.512111 0.208916 0.332737 0.098499
H40   H     H_    0.353029 0.287419 0.279518 0.221777
H41   H     H_    0.370413 0.190606 0.219896 0.169713
H42   H     H_    0.291431 0.111094 0.314278 0.245862
H43   H     H_    0.217183 0.205580 0.254706 0.233692
H44   H     H_    0.269566 0.210975 0.370111 0.279862
H45   H     H_    0.145285 0.546960 0.631772 0.230400
H46   H     H_    0.578072 0.830041 0.334046 0.172671
H47   H     H_    0.476529 0.896125 0.348754 0.128662
H48   H     H_    0.489798 0.702168 0.297762 0.223126
H49   H     H_    0.385697 0.770811 0.308278 0.204526
H50   H     H_    0.398449 0.872923 0.188692 0.262671
H51   H     H_    0.389199 0.763520 0.153104 0.306312
H52   H     H_    0.500281 0.800907 0.175717 0.254519
H53   H     H_    0.826087 0.319424 0.515206 0.165605
H54   H     H_    0.820671 0.206213 0.499727 0.114982
H55   H     H_    0.928947 0.290953 0.662692 0.243053
H56   H     H_    0.867713 0.400423 0.402394 0.200549
H57   H     H_    0.916813 0.177049 0.660390 0.224180
H58   H     H_    0.065653 0.197929 0.628917 0.273964
H59   H     H_    0.006477 0.273936 0.538633 0.276678
H60   H     H_    0.991428 0.160146 0.533002 0.264668
H61   H     H_    0.223438 0.697506 0.372221 0.156668
H62   H     H_    0.157241 0.799122 0.394072 0.117381
H63   H     H_    0.139235 0.620383 0.466597 0.238347
H64   H     H_    0.067026 0.722654 0.470391 0.217200
H65   H     H_    0.014304 0.729652 0.305356 0.265596
H66   H     H_    0.990074 0.632067 0.353135 0.264858
H67   H     H_    0.260460 0.048531 0.527099 0.149802
H68   H     H_    0.086732 0.625587 0.302963 0.278409
H69   H     H_    0.750781 0.946671 0.598555 0.150319
H70   H     H_    0.219913 0.899974 0.514821 0.165246
N1    N     N_R   0.731710 0.552730 0.549140 -0.126580
N2    N     N_R   0.268290 0.447270 0.450860 -0.138467
O1    O     O_R   0.383110 0.605620 0.475230 -0.583129
O2    O     O_3   0.472017 0.337266 0.062048 -0.608253
O3    O     O_3   0.259098 0.452318 0.598949 -0.637014
O4    O     O_3   0.754538 0.514387 0.410619 -0.641839
O5    O     O_3   0.447898 0.212301 0.436801 -0.605919
O6    O     O_3   0.537304 0.791135 0.441547 -0.643231
O7    O     O_3   0.752145 0.269193 0.592343 -0.605344
O8    O     O_3   0.252318 0.730325 0.502632 -0.603135
O9    O     O_R   0.616890 0.394380 0.524770 -0.565524
O10   O     O_R   0.531900 0.639510 0.506760 -0.577457
O11   O     O_R   0.468100 0.360490 0.493240 -0.579740
O12   O     O_R   0.425620 0.483070 0.607460 -0.574257
O13   O     O_R   0.574380 0.516930 0.392540 -0.565058
O14   O     O_R   0.574400 0.516960 0.638990 -0.620456
O15   O     O_R   0.425600 0.483040 0.361010 -0.632466
O16   O     O_3   0.527420 0.651018 0.937234 -0.596876
Zn1   Zn    Zn3+2 0.400660 0.477370 0.478940 0.989212
Zn2   Zn    Zn3+2 0.599340 0.522630 0.521060 1.011308

loop_
_geom_bond_atom_site_label_1
_geom_bond_atom_site_label_2
_ccdc_geom_bond_type
C72   H65   S    
C66   C68   S    
C21   C26   A    
C53   O3    S    
C23   C45   A    
C22   C29   A    
C27   C29   A    
C36   C42   T    
C33   O16   S    
C65   H52   S    
C39   C41   S    
C53   C54   S    
C16   O14   A    
C25   C28   A    
C34   C56   A    
C26   C27   A    
C33   C39   S    
C55   H27   S    
C8    H4    S    
C39   Cl3   S    
C54   H26   S    
C68   H55   S    
C19   C21   A    
C63   O6    S    
C29   H5    S    
C13   H34   S    
C5    C6    A    
C11   C14   A    
C72   H68   S    
C61   H41   S    
C20   C25   A    
C52   H19   S    
C19   N2    A    
O9    Zn2   S    
C72   H66   S    
C32   C39   S    
C9    H67   S    
C5    C74   A    
C3    C74   A    
C14   H12   S    
C17   O13   A    
C34   H2    S    
C12   O11   A    
C3    C23   A    
C15   H1    S    
C68   C69   S    
C48   H10   S    
C1    O1    A    
C70   C71   S    
C18   N1    A    
C62   H42   S    
C18   O4    S    
C10   H69   S    
C71   H63   S    
C40   C42   S    
C70   H61   S    
O15   Zn1   S    
C41   C43   S    
C2    C6    A    
N1    Zn2   S    
C49   H13   S    
C63   H46   S    
C66   H54   S    
C1    O10   A    
C53   H22   S    
C69   H59   S    
C4    C34   A    
C33   C40   S    
C55   H28   S    
C58   H33   S    
C65   H50   S    
C54   H25   S    
O14   Zn2   S    
C35   C38   S    
C12   C46   S    
C47   O16   S    
C27   H45   S    
C50   H16   S    
C38   Cl4   S    
C16   O12   A    
C25   C26   A    
C51   C52   S    
C13   C24   A    
C57   H31   S    
C67   O6    S    
C70   O8    S    
C37   C43   T    
C2    C4    A    
C32   C35   S    
C56   O7    S    
C3    C9    A    
C1    C44   S    
C31   Cl1   S    
C47   C48   S    
C53   H24   S    
C59   H35   S    
C64   H49   S    
C73   O5    S    
C31   C33   S    
C50   C51   S    
C48   H9    S    
C60   H39   S    
C11   H23   S    
C67   C74   A    
C17   C37   S    
O11   Zn1   S    
C2    C73   A    
C71   H64   S    
C59   H37   S    
C48   C49   S    
C7    H3    S    
C20   C22   A    
C69   H58   S    
C64   H48   S    
C13   C15   A    
C19   O3    S    
C28   H56   S    
C63   H47   S    
C24   C30   A    
C35   O2    S    
C49   H14   S    
C4    C10   A    
C47   H7    S    
C62   H44   S    
C44   C45   A    
C66   H53   S    
C57   O4    S    
C69   H60   S    
C7    C9    A    
C54   C55   S    
C31   C41   S    
C62   H43   S    
C61   H40   S    
C58   H32   S    
C68   H57   S    
C45   O8    S    
C49   H11   S    
C63   C64   S    
C46   C56   A    
C32   Cl2   S    
C5    C8    A    
C65   H51   S    
C50   H15   S    
C6    C7    A    
C23   H70   S    
C51   H18   S    
C52   H21   S    
C31   C38   S    
C64   C65   S    
C28   C30   A    
C47   H8    S    
C58   C59   S    
C60   O5    S    
C71   C72   S    
C17   O15   A    
C16   C36   S    
C38   C40   S    
C57   C58   S    
C46   C73   A    
C70   H62   S    
C59   H36   S    
O1    Zn1   S    
N2    Zn1   S    
C66   O7    S    
C14   N1    A    
C52   H20   S    
O13   Zn2   S    
C18   C20   A    
C32   C40   S    
C12   O9    A    
C30   H6    S    
C61   C62   S    
C35   C41   S    
O10   Zn2   S    
C60   H38   S    
O12   Zn1   S    
C50   O2    S    
C57   H30   S    
C11   C22   A    
C8    C10   A    
C21   C24   A    
C55   H29   S    
C60   C61   S    
C44   C67   A    
C15   N2    A    
C51   H17   S    
