data_mof_unit_50968.cif
_audit_creation_date              2012-12-11T17:36:21-0500
_audit_creation_method            fapswitch 2.2
_symmetry_space_group_name_H-M    P1
_symmetry_Int_Tables_number       1
_space_group_crystal_system       triclinic
_cell_length_a                    25.820514
_cell_length_b                    6.898849
_cell_length_c                    21.615916
_cell_angle_alpha                 89.999937
_cell_angle_beta                  96.234856
_cell_angle_gamma                 89.999974
_cell_volume                      3827.70731062

loop_
_atom_site_label
_atom_site_type_symbol
_atom_type_description
_atom_site_fract_x
_atom_site_fract_y
_atom_site_fract_z
_atom_type_partial_charge
O1    O     O_R   0.208650 0.594520 0.175450 -0.541902
O2    O     O_R   0.791350 0.405480 0.824550 -0.536810
O3    O     O_R   0.291350 0.094520 0.324550 -0.541901
O4    O     O_R   0.708650 0.905480 0.675450 -0.536810
O5    O     O_R   0.192980 0.260780 0.300160 -0.553750
O6    O     O_R   0.807020 0.739220 0.699840 -0.554062
O7    O     O_R   0.307020 0.760780 0.199840 -0.553750
O8    O     O_R   0.692980 0.239220 0.800160 -0.554061
C1    C     C_R   0.179324 0.432789 0.318989 0.753399
C2    C     C_R   0.820643 0.567252 0.680935 0.750897
C3    C     C_R   0.320676 0.932789 0.181011 0.753400
C4    C     C_R   0.679356 0.067252 0.819065 0.750898
O9    O     O_R   0.202550 0.264660 0.174420 -0.528932
O10   O     O_R   0.797450 0.735340 0.825580 -0.533010
O11   O     O_R   0.297450 0.764660 0.325580 -0.528932
O12   O     O_R   0.702550 0.235340 0.674420 -0.533010
O13   O     O_R   0.300990 0.096480 0.197920 -0.516232
O14   O     O_R   0.699010 0.903520 0.802080 -0.516632
O15   O     O_R   0.199010 0.596480 0.302080 -0.516232
O16   O     O_R   0.800990 0.403520 0.697920 -0.516634
C5    C     C_R   0.191267 0.432470 0.150609 0.704683
C6    C     C_R   0.808905 0.567115 0.849214 0.700652
C7    C     C_R   0.308733 0.932469 0.349390 0.704682
C8    C     C_R   0.691095 0.067115 0.650786 0.700654
O17   O     O_3   0.282290 0.427760 0.257860 -0.368418
O18   O     O_3   0.717710 0.572240 0.742140 -0.367730
O19   O     O_3   0.217710 0.927760 0.242140 -0.368419
O20   O     O_3   0.782290 0.072240 0.757860 -0.367731
V1    V     V_3+5 0.244010 0.152080 0.248540 1.431914
V2    V     V_3+5 0.755990 0.847920 0.751460 1.433239
V3    V     V_3+5 0.255990 0.652080 0.251460 1.431914
V4    V     V_3+5 0.744010 0.347920 0.748540 1.433241
C9    C     C_R   0.658361 0.065043 0.590267 -0.091390
C10   C     C_R   0.343098 0.928759 0.408829 -0.090637
C11   C     C_R   0.841639 0.565043 0.909733 -0.091390
C12   C     C_R   0.156902 0.428760 0.091171 -0.090636
C13   C     C_R   0.644737 0.180434 0.484161 -0.117492
C14   C     C_R   0.362998 0.764656 0.507319 -0.113383
C15   C     C_R   0.855263 0.680432 0.015839 -0.117492
C16   C     C_R   0.137001 0.264657 0.992680 -0.113383
C17   C     C_R   0.676612 0.159011 0.539798 -0.184125
C18   C     C_R   0.327665 0.815177 0.456939 -0.174427
C19   C     C_R   0.823388 0.659009 0.960202 -0.184125
C20   C     C_R   0.172335 0.315178 0.043060 -0.174428
C21   C     C_R   0.607339 0.990996 0.584199 -0.145690
C22   C     C_R   0.394695 0.997003 0.412897 -0.149067
C23   C     C_R   0.892661 0.490996 0.915801 -0.145690
C24   C     C_R   0.105305 0.497003 0.087103 -0.149066
C25   C     C_R   0.574429 0.003734 0.526778 0.051482
C26   C     C_R   0.433196 0.933238 0.461354 0.065335
C27   C     C_R   0.925571 0.503734 0.973223 0.051483
C28   C     C_R   0.066804 0.433238 0.038646 0.065335
C29   C     C_R   0.593525 0.107505 0.477336 -0.052087
C30   C     C_R   0.415763 0.817817 0.509577 -0.030712
C31   C     C_R   0.906475 0.607504 0.022664 -0.052087
C32   C     C_R   0.084237 0.317818 0.990423 -0.030711
C33   C     C_R   0.522346 0.927289 0.518217 -0.178166
C34   C     C_R   0.487937 0.979427 0.464000 -0.178541
C35   C     C_R   0.977654 0.427289 0.981783 -0.178167
C36   C     C_R   0.012063 0.479427 0.036001 -0.178540
C37   C     C_R   0.510634 0.065080 0.413349 0.377415
C38   C     C_R   0.504305 0.790674 0.560122 0.378220
C39   C     C_R   0.989366 0.565079 0.086651 0.377414
C40   C     C_R   0.995695 0.290675 0.939879 0.378220
C41   C     C_R   0.561566 0.138216 0.421474 0.361374
C42   C     C_R   0.451210 0.748281 0.558338 0.360652
C43   C     C_R   0.938434 0.638215 0.078526 0.361374
C44   C     C_R   0.048790 0.248282 0.941662 0.360652
H1    H     H_    0.660285 0.257720 0.446673 0.170507
H2    H     H_    0.349092 0.675327 0.543264 0.161164
H3    H     H_    0.839714 0.757717 0.053327 0.170507
H4    H     H_    0.150908 0.175329 0.956735 0.161164
C45   C     C_R   0.444911 0.831805 0.105064 0.508703
C46   C     C_R   0.555390 0.172411 0.895105 0.498729
C47   C     C_R   0.055089 0.331804 0.394937 0.508704
C48   C     C_R   0.944611 0.672411 0.604895 0.498731
C49   C     C_R   0.404921 0.818444 0.144615 -0.366367
C50   C     C_R   0.595912 0.186343 0.856334 -0.363498
C51   C     C_R   0.095079 0.318443 0.355385 -0.366365
C52   C     C_R   0.904088 0.686344 0.643666 -0.363509
C53   C     C_R   0.362091 0.945714 0.138045 -0.191277
C54   C     C_R   0.637758 0.054654 0.861853 -0.196135
C55   C     C_R   0.137909 0.445714 0.361954 -0.191279
C56   C     C_R   0.862242 0.554654 0.638147 -0.196128
C57   C     C_R   0.359894 0.090147 0.091331 0.459317
C58   C     C_R   0.639060 0.908207 0.907852 0.450350
C59   C     C_R   0.140105 0.590147 0.408669 0.459316
C60   C     C_R   0.860940 0.408207 0.592148 0.450350
C61   C     C_R   0.399555 0.101227 0.051484 -0.315666
C62   C     C_R   0.599642 0.899788 0.948091 -0.264599
C63   C     C_R   0.100445 0.601226 0.448516 -0.315662
C64   C     C_R   0.900359 0.399788 0.551909 -0.264606
C65   C     C_R   0.442507 0.976451 0.058884 -0.039228
C66   C     C_R   0.557749 0.029575 0.941841 -0.039006
C67   C     C_R   0.057493 0.476450 0.441116 -0.039230
C68   C     C_R   0.942251 0.529574 0.558160 -0.039000
C69   C     C_1   0.483331 0.996029 0.017845 0.035506
C70   C     C_1   0.517144 0.012616 0.983289 0.049654
C71   C     C_1   0.016669 0.496028 0.482156 0.035507
C72   C     C_1   0.982856 0.512614 0.516711 0.049667
O21   O     O_3   0.581259 0.230340 0.372143 -0.534138
C73   C     C_3   0.564866 0.425560 0.371100 -0.200762
H5    H     H_    0.579084 0.501604 0.415123 0.101186
H6    H     H_    0.521732 0.437475 0.362161 0.150873
H7    H     H_    0.581665 0.500971 0.332590 0.169668
O22   O     O_3   0.434829 0.619639 0.601383 -0.543053
C74   C     C_3   0.429043 0.722016 0.656689 -0.225324
H8    H     H_    0.400068 0.841306 0.648329 0.119232
H9    H     H_    0.466963 0.780280 0.678243 0.160570
H10   H     H_    0.414352 0.620430 0.690534 0.153434
O23   O     O_3   0.918741 0.730339 0.127857 -0.534138
C75   C     C_3   0.935133 0.925559 0.128900 -0.200762
H11   H     H_    0.920915 0.001602 0.084877 0.101186
H12   H     H_    0.978267 0.937475 0.137838 0.150872
H13   H     H_    0.918334 0.000969 0.167409 0.169668
O24   O     O_3   0.065171 0.119639 0.898618 -0.543053
C76   C     C_3   0.070957 0.222016 0.843311 -0.225329
H14   H     H_    0.099933 0.341304 0.851671 0.119235
H15   H     H_    0.033037 0.280284 0.821758 0.160566
H16   H     H_    0.085647 0.120429 0.809466 0.153432
H17   H     H_    0.403251 0.095561 0.376900 0.169822
H18   H     H_    0.593203 0.937844 0.626143 0.157693
H19   H     H_    0.096749 0.595560 0.123100 0.169822
H20   H     H_    0.906797 0.437845 0.873857 0.157692
H21   H     H_    0.288313 0.759127 0.454389 0.161181
H22   H     H_    0.715384 0.220738 0.543989 0.166934
H23   H     H_    0.211687 0.259129 0.045611 0.161181
H24   H     H_    0.784616 0.720736 0.956011 0.166934
O25   O     O_3   0.485194 0.070949 0.353754 -0.554481
C77   C     C_3   0.492059 0.891030 0.324716 -0.211793
H25   H     H_    0.474129 0.770718 0.349270 0.115590
H26   H     H_    0.534028 0.860604 0.321512 0.156576
H27   H     H_    0.472207 0.896829 0.276593 0.169512
O26   O     O_3   0.538205 0.685376 0.601216 -0.555539
C78   C     C_3   0.557301 0.527331 0.568987 -0.192687
H28   H     H_    0.580890 0.577243 0.531922 0.128588
H29   H     H_    0.525113 0.431288 0.548852 0.143612
H30   H     H_    0.583196 0.439568 0.602402 0.164174
O27   O     O_3   0.014805 0.570948 0.146246 -0.554480
C79   C     C_3   0.007940 0.391030 0.175284 -0.211790
H31   H     H_    0.025871 0.270718 0.150730 0.115589
H32   H     H_    0.965971 0.360605 0.178488 0.156576
H33   H     H_    0.027792 0.396828 0.223407 0.169512
O28   O     O_3   0.961795 0.185376 0.898784 -0.555540
C80   C     C_3   0.942700 0.027330 0.931013 -0.192691
H34   H     H_    0.919111 0.077242 0.968079 0.128588
H35   H     H_    0.974887 0.931286 0.951147 0.143614
H36   H     H_    0.916803 0.939568 0.897598 0.164173
O29   O     O_3   0.488367 0.713607 0.114305 -0.547643
C81   C     C_3   0.474262 0.523466 0.095383 -0.220137
H37   H     H_    0.454679 0.520069 0.046853 0.130108
H38   H     H_    0.449257 0.454959 0.127966 0.129085
H39   H     H_    0.510191 0.434918 0.096225 0.181889
O30   O     O_3   0.515366 0.306747 0.890576 -0.551751
C82   C     C_3   0.482447 0.272776 0.835208 -0.259103
H40   H     H_    0.468209 0.120222 0.832434 0.130984
H41   H     H_    0.502128 0.309623 0.793476 0.141610
H42   H     H_    0.447845 0.368212 0.834918 0.163194
O31   O     O_3   0.011634 0.213603 0.385696 -0.547643
C83   C     C_3   0.025740 0.023464 0.404621 -0.220150
H43   H     H_    0.045317 0.020073 0.453154 0.130118
H44   H     H_    0.050749 0.954960 0.372043 0.129083
H45   H     H_    0.989810 0.934912 0.403774 0.181892
O32   O     O_3   0.984635 0.806744 0.609423 -0.551753
C84   C     C_3   0.017541 0.772849 0.664807 -0.259082
H46   H     H_    0.031767 0.620282 0.667619 0.130973
H47   H     H_    0.997852 0.809809 0.706525 0.141610
H48   H     H_    0.052150 0.868244 0.665088 0.163192
H49   H     H_    0.407988 0.711352 0.181468 0.145076
H50   H     H_    0.594389 0.299381 0.821444 0.149158
H51   H     H_    0.092012 0.211351 0.318532 0.145077
H52   H     H_    0.905609 0.799384 0.678555 0.149147
O33   O     O_3   0.316198 0.206902 0.080771 -0.564042
C85   C     C_3   0.330102 0.400864 0.094991 -0.204352
H53   H     H_    0.350911 0.414583 0.142687 0.137324
H54   H     H_    0.293983 0.488431 0.093639 0.151787
H55   H     H_    0.353818 0.463169 0.059954 0.119312
O34   O     O_3   0.681950 0.787414 0.917852 -0.565908
C86   C     C_3   0.666803 0.596204 0.901515 -0.182022
H56   H     H_    0.702214 0.504314 0.904059 0.149449
H57   H     H_    0.647594 0.588480 0.852908 0.140669
H58   H     H_    0.641023 0.534557 0.934496 0.137919
O35   O     O_3   0.183802 0.706902 0.419229 -0.564041
C87   C     C_3   0.169898 0.900863 0.405008 -0.204352
H59   H     H_    0.149091 0.914581 0.357311 0.137327
H60   H     H_    0.206017 0.988432 0.406363 0.151786
H61   H     H_    0.146179 0.963168 0.440043 0.119311
O36   O     O_3   0.818050 0.287414 0.582148 -0.565908
C88   C     C_3   0.833197 0.096204 0.598486 -0.182023
H62   H     H_    0.797785 0.004314 0.595941 0.149450
H63   H     H_    0.852405 0.088481 0.647093 0.140666
H64   H     H_    0.858978 0.034556 0.565506 0.137918
H65   H     H_    0.396660 0.207261 0.014300 0.150688
H66   H     H_    0.602072 0.792481 0.984899 0.161618
H67   H     H_    0.103340 0.707262 0.485700 0.150690
H68   H     H_    0.897928 0.292480 0.515102 0.161619

loop_
_geom_bond_atom_site_label_1
_geom_bond_atom_site_label_2
_ccdc_geom_bond_type
O17   V3    S    
C78   H30   S    
C55   C59   A    
C14   H2    S    
C20   H23   S    
O1    C5    A    
O21   C73   S    
C59   C63   A    
O19   V1    S    
C9    C21   A    
C46   C66   A    
O3    C7    A    
O23   C75   S    
C10   C18   A    
C79   H33   S    
C58   O34   S    
C52   C56   A    
O4    V2    S    
O15   V3    S    
C24   H19   S    
C75   H12   S    
C69   C70   T    
C23   H20   S    
C47   C67   A    
C78   H28   S    
C5    C12   S    
O33   C85   S    
C87   H59   S    
O7    C3    A    
C6    C11   S    
C35   C40   A    
C26   C30   A    
C36   C39   A    
C40   C44   A    
O9    V1    S    
O32   C84   S    
C79   H32   S    
C14   C18   A    
C13   H1    S    
C76   H15   S    
C59   O35   S    
O4    C8    A    
C67   C71   S    
C82   H41   S    
O22   C74   S    
C66   C70   S    
O1    V3    S    
O13   V1    S    
O24   C76   S    
C46   O30   S    
C73   H7    S    
O2    V4    S    
C51   H51   S    
O3    V1    S    
C85   H53   S    
C28   C36   A    
C18   H21   S    
C1    O15   A    
C15   C31   A    
C60   C64   A    
C2    O16   A    
C16   C32   A    
C81   H39   S    
C62   H66   S    
O2    C6    A    
C57   O33   S    
C74   H8    S    
C22   H17   S    
C10   C22   A    
C21   C25   A    
C11   C19   A    
C37   O25   S    
C86   H58   S    
C13   C29   A    
C34   C37   A    
O11   C7    A    
C48   C68   A    
C11   C23   A    
C35   C36   A    
O12   C8    A    
C82   H42   S    
C61   C65   A    
C74   H9    S    
C84   H47   S    
C88   H62   S    
C60   O36   S    
O10   V2    S    
C75   H11   S    
C80   H35   S    
C62   C66   A    
O5    V1    S    
C64   C68   A    
O17   V1    S    
C39   C43   A    
O7    V3    S    
C38   C42   A    
O19   V3    S    
C26   C34   A    
C83   H45   S    
O34   C86   S    
O20   V4    S    
C79   H31   S    
C58   C62   A    
C76   H16   S    
C57   C61   A    
O18   V4    S    
C23   C27   A    
C40   O28   S    
C33   C38   A    
C54   C58   A    
C3    C53   S    
O36   C88   S    
O8    V4    S    
C88   H64   S    
C77   H26   S    
O35   C87   S    
C50   H50   S    
O5    C1    A    
C63   H67   S    
C50   C54   A    
C31   C43   A    
O31   C83   S    
C14   C30   A    
C24   C28   A    
O8    C4    A    
C7    C10   S    
C61   H65   S    
C4    C54   S    
C73   H6    S    
C85   H55   S    
O30   C82   S    
C41   O21   S    
C44   O24   S    
O14   V2    S    
C43   O23   S    
O6    V2    S    
C1    C55   S    
O18   V2    S    
C84   H48   S    
C74   H10   S    
C81   H38   S    
C12   C20   A    
C77   H27   S    
C27   C35   A    
C52   H52   S    
C65   C69   S    
C80   H34   S    
C80   H36   S    
C29   C41   A    
O25   C77   S    
O16   V4    S    
C47   O31   S    
C78   H29   S    
C3    O13   A    
C45   C49   A    
C16   H4    S    
C45   O29   S    
C39   O27   S    
C17   H22   S    
C48   C52   A    
O28   C80   S    
C64   H68   S    
C19   H24   S    
O6    C2    A    
C25   C33   A    
C15   C19   A    
O27   C79   S    
C87   H61   S    
O11   V3    S    
O26   C78   S    
C30   C42   A    
C21   H18   S    
O12   V4    S    
C22   C26   A    
C8    C9    S    
C71   C72   T    
C9    C17   A    
C83   H43   S    
C38   O26   S    
O20   V2    S    
C77   H25   S    
C32   C44   A    
C76   H14   S    
O9    C5    A    
C51   C55   A    
O10   C6    A    
C33   C34   A    
C42   O22   S    
C56   C60   A    
C25   C29   A    
C45   C65   A    
C68   C72   S    
C2    C56   S    
C87   H60   S    
C12   C24   A    
C27   C31   A    
C13   C17   A    
C73   H5    S    
C85   H54   S    
C48   O32   S    
C63   C67   A    
C86   H56   S    
C37   C41   A    
C84   H46   S    
C16   C20   A    
C49   H49   S    
C49   C53   A    
C46   C50   A    
C4    O14   A    
C82   H40   S    
C15   H3    S    
C81   H37   S    
C88   H63   S    
O29   C81   S    
C47   C51   A    
C75   H13   S    
C53   C57   A    
C28   C32   A    
C83   H44   S    
C86   H57   S    
