data_mof_unit_55319.cif
_audit_creation_date              2013-03-05T16:34:04-0500
_audit_creation_method            fapswitch 2.2
_symmetry_space_group_name_H-M    P1
_symmetry_Int_Tables_number       1
_space_group_crystal_system       triclinic
_cell_length_a                    9.591302
_cell_length_b                    10.768161
_cell_length_c                    17.043673
_cell_angle_alpha                 88.583261
_cell_angle_beta                  93.081559
_cell_angle_gamma                 91.064861
_cell_volume                      1756.93702555

loop_
_atom_site_label
_atom_site_type_symbol
_atom_site_description
_atom_site_fract_x
_atom_site_fract_y
_atom_site_fract_z
_atom_type_partial_charge
O1    O     O_R   0.618810 0.319640 0.500000 -0.589256
O2    O     O_R   0.381230 0.319680 0.499990 -0.571714
C1    C     C_R   0.499763 0.262664 0.500451 0.783919
O3    O     O_R   0.631790 0.498830 0.613930 -0.582710
O4    O     O_R   0.394210 0.498870 0.613920 -0.594962
C2    C     C_R   0.516744 0.498469 0.650772 0.816487
Cu1   Cu    Cu3+1 0.640670 0.499980 0.500000 0.955006
Cu2   Cu    Cu3+1 0.359330 0.500020 0.500000 0.990882
O5    O     O_R   0.618770 0.680320 0.500010 -0.591748
O6    O     O_R   0.381190 0.680360 0.500000 -0.579642
O7    O     O_R   0.605790 0.501130 0.386080 -0.579551
O8    O     O_R   0.368210 0.501170 0.386070 -0.529217
C3    C     C_R   0.501223 0.737454 0.499493 0.816256
C4    C     C_R   0.483222 0.502222 0.348957 0.867252
C5    C     C_R   0.524787 0.492427 0.736745 -0.093344
C6    C     C_R   0.413446 0.534161 0.777702 -0.320605
C7    C     C_R   0.409845 0.514437 0.858618 0.338452
C8    C     C_R   0.528145 0.463723 0.900964 0.224656
C9    C     C_R   0.642138 0.422679 0.859700 -0.042171
C10   C     C_R   0.638852 0.437347 0.777703 -0.243482
C11   C     C_R   0.595352 0.476967 0.142623 -0.192533
C12   C     C_R   0.591405 0.465458 0.223682 -0.241417
C13   C     C_R   0.485487 0.533533 0.098358 0.250646
N1    N     N_2   0.533388 0.451963 0.984135 -0.234196
N2    N     N_2   0.487104 0.544896 0.015599 -0.140665
C14   C     C_R   0.476320 0.507251 0.262354 -0.179965
H1    H     H_    0.679231 0.423570 0.256338 0.193899
H2    H     H_    0.685392 0.443431 0.114443 0.177603
H3    H     H_    0.725059 0.404575 0.745649 0.166789
C15   C     C_R   0.362501 0.560725 0.217893 0.264908
C16   C     C_R   0.370106 0.578305 0.135966 0.250950
H4    H     H_    0.326167 0.578207 0.746103 0.182397
C17   C     C_R   0.592718 0.068246 0.456054 0.056924
C18   C     C_R   0.503502 0.129370 0.503363 -0.031505
C19   C     C_R   0.435140 0.061066 0.560994 -0.205219
H5    H     H_    0.385268 0.108475 0.606377 0.169760
C20   C     C_R   0.432829 0.931283 0.559790 -0.199632
H6    H     H_    0.373913 0.878767 0.602221 0.140375
C21   C     C_R   0.505972 0.870684 0.503125 -0.025663
C22   C     C_R   0.594105 0.940319 0.455705 -0.013196
C23   C     C_3   0.611148 0.941289 0.368592 0.162898
C24   C     C_3   0.610601 0.082621 0.369956 -0.492821
H7    H     H_    0.712311 0.903822 0.352125 0.110231
H8    H     H_    0.713356 0.125922 0.357373 0.180449
H9    H     H_    0.519345 0.126502 0.337981 0.224891
C25   C     C_R   0.070803 0.579956 0.451624 0.338455
N3    N     N_R   0.147870 0.500930 0.499500 -0.220254
C26   C     C_R   0.073229 0.413767 0.542933 0.046238
C27   C     C_R   0.925400 0.414846 0.542275 -0.103342
H10   H     H_    0.869260 0.348768 0.578372 0.155145
N4    N     N_R   0.851960 0.500890 0.499500 -0.203186
C28   C     C_R   0.923698 0.579453 0.451315 0.282052
C29   C     C_3   0.920409 0.717750 0.450638 -0.528953
C30   C     C_3   0.078497 0.718429 0.452126 -0.450557
H11   H     H_    0.872397 0.755463 0.394590 0.214976
H12   H     H_    0.879331 0.755352 0.504829 0.216783
H13   H     H_    0.121123 0.758926 0.397669 0.271048
H14   H     H_    0.127313 0.754929 0.507754 0.200352
N5    N     N_R   0.490593 0.888795 0.323847 0.154707
O9    O     O_R   0.363959 0.920444 0.337585 -0.323868
O10   O     O_R   0.510633 0.814544 0.266677 -0.347084
C31   C     C_R   0.136622 0.319796 0.597135 0.164179
C32   C     C_R   0.166996 0.351322 0.675659 -0.123140
C33   C     C_R   0.187000 0.259045 0.734121 -0.144135
C34   C     C_R   0.167931 0.134098 0.715489 -0.137231
C35   C     C_R   0.129914 0.101555 0.638305 -0.172575
C36   C     C_R   0.116791 0.193668 0.579101 -0.166395
H15   H     H_    0.165565 0.447380 0.692198 0.143399
H16   H     H_    0.210947 0.284645 0.794441 0.170700
H17   H     H_    0.179808 0.062739 0.761076 0.153966
H18   H     H_    0.112160 0.004919 0.624103 0.147278
H19   H     H_    0.083251 0.167317 0.520024 0.149398
C37   C     C_R   0.764341 0.361634 0.900580 0.126314
C38   C     C_R   0.811866 0.248232 0.873581 -0.149987
C39   C     C_R   0.926724 0.190122 0.911617 -0.129168
C40   C     C_R   0.994675 0.244039 0.977170 -0.061870
C41   C     C_R   0.948897 0.356884 0.004224 -0.044157
C42   C     C_R   0.835523 0.416427 0.965607 -0.097547
H20   H     H_    0.759300 0.204188 0.823477 0.134409
H21   H     H_    0.962619 0.102952 0.890463 0.152271
H22   H     H_    0.083201 0.198699 0.006802 0.162082
H23   H     H_    0.002065 0.398647 0.054828 0.193493
H24   H     H_    0.804051 0.505460 0.986189 0.163452
N6    N     N_R   0.242132 0.601985 0.255483 0.154344
O11   O     O_R   0.211231 0.719148 0.252516 -0.263110
O12   O     O_R   0.148654 0.520736 0.276868 -0.361756
N7    N     N_R   0.282177 0.537354 0.895927 0.155137
O13   O     O_R   0.235868 0.457062 0.946985 -0.353704
O14   O     O_R   0.200491 0.625892 0.869524 -0.333547
N8    N     N_R   0.259684 0.639605 0.090531 0.186846
O15   O     O_R   0.129562 0.611314 0.101381 -0.301307
O16   O     O_R   0.288954 0.725016 0.038332 -0.270566

loop_
_geom_bond_atom_site_label_1
_geom_bond_atom_site_label_2
_geom_bond_distance
_ccdc_geom_bond_type
N7    O13   1.300825 A    
C37   C38   1.407735 A    
C19   H5    1.075216 S    
Cu1   Cu2   2.698425 S    
C29   C30   1.514994 S    
Cu1   O7    1.952197 S    
C31   C32   1.402893 A    
C31   C36   1.407132 A    
C8    N1    1.418342 S    
C17   C24   1.490504 S    
C19   C20   1.397928 A    
N6    O12   1.300911 A    
C36   H19   1.083394 S    
C15   C16   1.410077 A    
O7    C4    1.304853 A    
C5    C6    1.393962 A    
C25   C28   1.410570 A    
C18   C19   1.396890 A    
C23   C24   1.522749 S    
O5    C3    1.293885 A    
C2    C5    1.463075 S    
C25   N3    1.364019 A    
N8    O16   1.301160 A    
C42   H24   1.082638 S    
C35   H18   1.082522 S    
C6    C7    1.392331 A    
C27   N4    1.349734 A    
C37   C42   1.406618 A    
N1    N2    1.246890 D    
C39   H21   1.082448 S    
C35   C36   1.399780 A    
N5    O9    1.302335 A    
O1    Cu1   1.949338 S    
C11   C12   1.386522 A    
C23   H7    1.110139 S    
C24   H8    1.111495 S    
O3    Cu1   1.947944 S    
C17   C18   1.391735 A    
C10   H3    1.084253 S    
C29   H11   1.109054 S    
C5    C10   1.399123 A    
N5    O10   1.300007 A    
C17   C22   1.378005 A    
C38   C39   1.397919 A    
N4    C28   1.366870 A    
C9    C37   1.486446 S    
N6    O11   1.300479 A    
C23   N5    1.462982 S    
O3    C2    1.298504 A    
C21   C22   1.396409 A    
C8    C9    1.414694 A    
C1    C18   1.436014 S    
C41   C42   1.398155 A    
C4    C14   1.473669 S    
O1    C1    1.286422 A    
C24   H9    1.112521 S    
C13   C16   1.406895 A    
C39   C40   1.396369 A    
C20   H6    1.083485 S    
C26   C31   1.470820 S    
N3    C26   1.392513 A    
Cu2   O8    1.947946 S    
C16   N8    1.438600 S    
C25   C30   1.491758 S    
C7    C8    1.421987 A    
C33   H16   1.082572 S    
C40   C41   1.396873 A    
C26   C27   1.417569 A    
C11   H2    1.082431 S    
O8    C4    1.300493 A    
C14   C15   1.417878 A    
C38   H20   1.083147 S    
C11   C13   1.402226 A    
C34   C35   1.397400 A    
C28   C29   1.489871 S    
C30   H14   1.111961 S    
C29   H12   1.111660 S    
Cu1   O5    1.957139 S    
C32   H15   1.079318 S    
C22   C23   1.502165 S    
C7    N7    1.437831 S    
O2    Cu2   1.957140 S    
O6    C3    1.295366 A    
C40   H22   1.082345 S    
O4    Cu2   1.952197 S    
C6    H4    1.081413 S    
C12   H1    1.083561 S    
C33   C34   1.396525 A    
C9    C10   1.401261 A    
N7    O14   1.301516 A    
O2    C1    1.301639 A    
Cu2   N3    2.027940 S    
Cu1   N4    2.026863 S    
C20   C21   1.404182 A    
N8    O15   1.300959 A    
O4    C2    1.302479 A    
C41   H23   1.081441 S    
C13   N2    1.413681 S    
C15   N6    1.432951 S    
C3    C21   1.437269 S    
C32   C33   1.398053 A    
Cu2   O6    1.949338 S    
C27   H10   1.083716 S    
C12   C14   1.402397 A    
C34   H17   1.082277 S    
C30   H13   1.110381 S    
