data_mof_unit_30187.cif
_audit_creation_date              2012-10-26T20:33:45-0400
_audit_creation_method            fapswitch 2.2
_symmetry_space_group_name_H-M    P1
_symmetry_Int_Tables_number       1
_space_group_crystal_system       triclinic
_cell_length_a                    10.985041
_cell_length_b                    9.068267
_cell_length_c                    7.940281
_cell_angle_alpha                 89.772206
_cell_angle_beta                  89.631434
_cell_angle_gamma                 89.410852
_cell_volume                      790.909128612

loop_
_atom_site_label
_atom_site_type_symbol
_atom_type_description
_atom_site_fract_x
_atom_site_fract_y
_atom_site_fract_z
_atom_type_partial_charge
C1    C     C_R   0.499801 0.220717 0.500122 0.591605
C2    C     C_1   0.500694 0.934468 0.499691 0.021442
C3    C     C_3   0.069826 0.665745 0.501095 -0.010291
C4    C     C_3   0.919529 0.664720 0.507745 -0.030683
C5    C     C_3   0.121479 0.493016 0.500459 -0.089789
C6    C     C_3   0.877235 0.491403 0.497226 -0.045498
C7    C     C_2   0.123138 0.235344 0.669309 0.250202
C8    C     C_2   0.138288 0.254999 0.315507 0.219920
C9    C     C_2   0.869491 0.238771 0.660425 0.262522
C10   C     C_2   0.883849 0.248683 0.308340 0.264934
C11   C     C_2   0.128157 0.754415 0.645563 0.232156
C12   C     C_R   0.259928 0.495893 0.500673 0.532804
C13   C     C_2   0.123396 0.754070 0.352177 0.285489
C14   C     C_2   0.867858 0.744074 0.665849 0.104809
C15   C     C_2   0.848997 0.766416 0.379837 0.333760
C16   C     C_R   0.739522 0.491320 0.499008 0.581685
C17   C     C_R   0.500940 0.779272 0.499822 0.561872
C18   C     C_1   0.500248 0.065541 0.500152 0.037721
C19   C     C_3   0.071070 0.396130 0.661472 0.057533
C20   C     C_3   0.078931 0.409011 0.331444 0.076712
C21   C     C_3   0.924634 0.396905 0.657801 0.078019
C22   C     C_3   0.931620 0.407884 0.329838 0.127593
Cu1   Cu    Cu3+1 0.500000 0.500010 0.669080 1.112885
Cu2   Cu    Cu3+1 0.500000 0.500010 0.330920 1.079633
H1    H     H_    0.201566 0.440323 0.851885 0.295292
H2    H     H_    0.223318 0.231392 0.378589 0.105300
H3    H     H_    0.918192 0.141380 0.627517 0.133314
H4    H     H_    0.840374 0.152824 0.363340 0.267114
H5    H     H_    0.080862 0.784554 0.759150 0.196760
H6    H     H_    0.220735 0.739762 0.322425 0.160042
H7    H     H_    0.790968 0.701696 0.735212 0.182322
H8    H     H_    0.787532 0.854051 0.423189 0.143309
H9    H     H_    0.095040 0.567480 0.843383 0.203358
H10   H     H_    0.202937 0.428430 0.115721 0.285613
H11   H     H_    0.113062 0.585147 0.135980 0.241075
H12   H     H_    0.806632 0.408204 0.881020 0.311107
H13   H     H_    0.910154 0.556971 0.863805 0.234462
H14   H     H_    0.798807 0.461608 0.136778 0.297789
H15   H     H_    0.932879 0.564613 0.120758 0.295403
H16   H     H_    0.098954 0.150220 0.582899 0.089630
N1    N     N_1   0.500000 0.499970 0.076820 -0.080828
N2    N     N_1   0.500000 0.499970 0.923180 -0.078358
N3    N     N_3   0.110634 0.457770 0.824106 -0.532038
N4    N     N_3   0.129979 0.479129 0.176603 -0.584672
N5    N     N_3   0.876653 0.460471 0.815085 -0.577857
N6    N     N_3   0.888084 0.476681 0.174166 -0.543560
O1    O     O_R   0.500000 0.288400 0.642760 -0.452624
O2    O     O_2   0.105248 0.166741 0.209117 -0.391721
O3    O     O_2   0.762059 0.220793 0.696927 -0.453564
O4    O     O_2   0.777295 0.220136 0.288434 -0.573609
O5    O     O_2   0.235116 0.791199 0.642185 -0.499795
O6    O     O_2   0.067499 0.847105 0.271791 -0.421544
O7    O     O_2   0.893626 0.872012 0.697983 -0.517343
O8    O     O_2   0.853506 0.758795 0.227990 -0.471891
O9    O     O_R   0.500000 0.288400 0.357240 -0.479368
O10   O     O_R   0.317700 0.499990 0.642790 -0.488096
O11   O     O_R   0.317700 0.499990 0.357210 -0.541106
O12   O     O_R   0.682300 0.499990 0.642790 -0.508024
O13   O     O_R   0.682300 0.499990 0.357210 -0.482506
O14   O     O_R   0.500000 0.711620 0.642810 -0.471681
O15   O     O_R   0.500000 0.711620 0.357190 -0.506595
O16   O     O_2   0.193187 0.194553 0.778398 -0.422141

loop_
_geom_bond_atom_site_label_1
_geom_bond_atom_site_label_2
_ccdc_geom_bond_type
Cu1   O12   S    
C7    H16   S    
C8    O2    D    
C7    O16   D    
Cu2   O15   S    
C5    C19   S    
C10   H4    S    
C2    C18   T    
C13   O6    D    
C8    H2    S    
N1    N2    T    
C7    C19   S    
C3    C13   S    
C14   H7    S    
Cu1   Cu2   S    
C17   O15   A    
H1    N3    S    
C4    C15   S    
C1    O9    A    
C9    O3    D    
C15   H8    S    
C5    C20   S    
C16   O12   A    
C10   C22   S    
Cu2   O9    S    
Cu2   N1    S    
C9    C21   S    
C1    C18   S    
C12   O10   A    
Cu1   N2    S    
C8    C20   S    
H15   N6    S    
C12   O11   A    
C19   C21   S    
C20   C22   S    
C20   N4    S    
C21   N5    S    
Cu2   O13   S    
C11   O5    D    
C4    C14   S    
Cu1   O14   S    
H14   N6    S    
C3    C11   S    
C11   H5    S    
Cu1   O1    S    
C17   O14   A    
C6    C16   S    
C3    C4    S    
C6    C22   S    
C15   O8    D    
C3    C5    S    
C13   H6    S    
H12   N5    S    
C14   O7    D    
H10   N4    S    
C9    H3    S    
C5    C12   S    
C4    C6    S    
Cu1   O10   S    
C1    O1    A    
C19   N3    S    
C22   N6    S    
H9    N3    S    
C6    C21   S    
H13   N5    S    
H11   N4    S    
Cu2   O11   S    
C2    C17   S    
C16   O13   A    
C10   O4    D    
