data_mof_unit_43624.cif
_audit_creation_date              2013-03-05T15:41:03-0500
_audit_creation_method            fapswitch 2.2
_symmetry_space_group_name_H-M    P1
_symmetry_Int_Tables_number       1
_space_group_crystal_system       triclinic
_cell_length_a                    28.122332
_cell_length_b                    18.323633
_cell_length_c                    17.028842
_cell_angle_alpha                 89.826369
_cell_angle_beta                  62.296993
_cell_angle_gamma                 90.011054
_cell_volume                      7769.08281271

loop_
_atom_site_label
_atom_site_type_symbol
_atom_site_description
_atom_site_fract_x
_atom_site_fract_y
_atom_site_fract_z
_atom_type_partial_charge
O1    O     O_R   0.746490 0.236330 0.638080 -0.635003
O2    O     O_R   0.253510 0.763670 0.361920 -0.676937
O3    O     O_R   0.253510 0.236330 0.361920 -0.637128
O4    O     O_R   0.746490 0.763670 0.638080 -0.631509
O5    O     O_R   0.246490 0.736330 0.638080 -0.651773
O6    O     O_R   0.753510 0.263670 0.361920 -0.656786
O7    O     O_R   0.753510 0.736330 0.361920 -0.652555
O8    O     O_R   0.246490 0.263670 0.638080 -0.635388
O9    O     O_R   0.674170 0.186160 0.516270 -0.652583
O10   O     O_R   0.325830 0.813840 0.483730 -0.645399
O11   O     O_R   0.325830 0.186160 0.483730 -0.672736
O12   O     O_R   0.674170 0.813840 0.516270 -0.647845
O13   O     O_R   0.174170 0.686160 0.516270 -0.642048
O14   O     O_R   0.825830 0.313840 0.483730 -0.670161
O15   O     O_R   0.825830 0.686160 0.483730 -0.660451
O16   O     O_R   0.174170 0.313840 0.516270 -0.668666
O17   O     O_R   0.739960 0.127620 0.525000 -0.545682
O18   O     O_R   0.260040 0.872380 0.475000 -0.549482
O19   O     O_R   0.260040 0.127620 0.475000 -0.552357
O20   O     O_R   0.739960 0.872380 0.525000 -0.553816
O21   O     O_R   0.239960 0.627620 0.525000 -0.571522
O22   O     O_R   0.760040 0.372380 0.475000 -0.569410
O23   O     O_R   0.760040 0.627620 0.475000 -0.559572
O24   O     O_R   0.239960 0.372380 0.525000 -0.557632
O25   O     O_R   0.680700 0.294870 0.629350 -0.554345
O26   O     O_R   0.319300 0.705130 0.370650 -0.547134
O27   O     O_R   0.319300 0.294870 0.370650 -0.559436
O28   O     O_R   0.680700 0.705130 0.629350 -0.543941
O29   O     O_R   0.180700 0.794870 0.629350 -0.529727
O30   O     O_R   0.819300 0.205130 0.370650 -0.545952
O31   O     O_R   0.819300 0.794870 0.370650 -0.564974
O32   O     O_R   0.180700 0.205130 0.629350 -0.559058
C1    C     C_R   0.706331 0.277326 0.673063 0.934009
C2    C     C_R   0.298193 0.732827 0.323428 0.894004
C3    C     C_R   0.293967 0.277087 0.326682 0.916343
C4    C     C_R   0.706305 0.722468 0.672919 0.935656
C5    C     C_R   0.201040 0.765980 0.676718 0.929021
C6    C     C_R   0.798716 0.233476 0.323443 0.906693
C7    C     C_R   0.790868 0.781849 0.329981 0.895249
C8    C     C_R   0.209977 0.216442 0.668814 0.924391
C9    C     C_R   0.690827 0.129693 0.536286 0.945667
C10   C     C_R   0.309478 0.870156 0.460828 0.911068
C11   C     C_R   0.309074 0.130076 0.461592 0.915282
C12   C     C_R   0.695059 0.872294 0.522354 0.927450
C13   C     C_R   0.195289 0.627730 0.521559 0.912821
C14   C     C_R   0.809123 0.370045 0.461499 0.879486
C15   C     C_R   0.809503 0.630001 0.460646 0.892668
C16   C     C_R   0.190944 0.370367 0.535667 0.911525
Zn1   Zn    Zn3+2 0.792340 0.208750 0.507670 1.118314
Zn2   Zn    Zn3+2 0.207660 0.791250 0.492330 1.116032
Zn3   Zn    Zn3+2 0.207660 0.208750 0.492330 1.112982
Zn4   Zn    Zn3+2 0.792340 0.791250 0.507670 1.113194
Zn5   Zn    Zn3+2 0.292340 0.708750 0.507670 1.097562
Zn6   Zn    Zn3+2 0.707660 0.291250 0.492330 1.090356
Zn7   Zn    Zn3+2 0.707660 0.708750 0.492330 1.107219
Zn8   Zn    Zn3+2 0.292340 0.291250 0.507670 1.093503
H1    H     H_    0.026746 0.251216 0.535290 0.177382
H2    H     H_    0.999901 0.740747 0.376115 0.173946
H3    H     H_    0.960670 0.249042 0.479067 0.179144
H4    H     H_    0.084145 0.735527 0.386416 0.160935
H5    H     H_    0.581132 0.764597 0.396081 0.172551
H6    H     H_    0.459025 0.251086 0.483949 0.171953
H7    H     H_    0.498015 0.759529 0.382375 0.183280
H8    H     H_    0.525000 0.248649 0.540462 0.173394
C17   C     C_R   0.539191 0.132242 0.521734 0.076654
C18   C     C_R   0.477000 0.872534 0.419167 0.085178
C19   C     C_R   0.460672 0.134175 0.463795 0.071992
C20   C     C_R   0.571555 0.877319 0.437512 0.096325
C21   C     C_R   0.073505 0.623195 0.432050 0.097256
C22   C     C_R   0.961929 0.366136 0.459754 0.074039
C23   C     C_R   0.978204 0.628051 0.415257 0.093223
C24   C     C_R   0.040637 0.367822 0.517098 0.077807
C25   C     C_R   0.514279 0.198090 0.519758 -0.161728
C26   C     C_R   0.509333 0.810244 0.401808 -0.156083
C27   C     C_R   0.476862 0.199509 0.487281 -0.162184
C28   C     C_R   0.556874 0.813166 0.409158 -0.182616
C29   C     C_R   0.059176 0.687138 0.402157 -0.178291
C30   C     C_R   0.978443 0.300635 0.482496 -0.138476
C31   C     C_R   0.011114 0.690139 0.396146 -0.160317
C32   C     C_R   0.015921 0.301903 0.514787 -0.149381
C33   C     C_R   0.483498 0.068014 0.469458 0.033862
C34   C     C_R   0.539189 0.939171 0.456307 0.035492
C35   C     C_R   0.525244 0.067725 0.492913 0.032736
C36   C     C_R   0.493428 0.937757 0.442797 0.030992
C37   C     C_R   0.994810 0.562741 0.438567 0.030512
C38   C     C_R   0.026779 0.432489 0.488200 0.031820
C39   C     C_R   0.040854 0.561285 0.451451 0.034220
C40   C     C_R   0.984890 0.432299 0.465135 0.030667
C41   C     C_R   0.966626 0.498096 0.445783 -0.028056
C42   C     C_R   0.054945 0.497146 0.481498 -0.026495
C43   C     C_R   0.465467 0.002360 0.449458 -0.026748
C44   C     C_R   0.553402 0.003165 0.486137 -0.026212
C45   C     C_R   0.895132 0.432496 0.433713 0.010739
C46   C     C_R   0.129184 0.560497 0.488298 0.015027
C47   C     C_R   0.111179 0.433171 0.534398 0.014600
C48   C     C_R   0.897370 0.565900 0.427416 0.017504
C49   C     C_R   0.396965 0.934660 0.428974 0.016279
C50   C     C_R   0.610271 0.066929 0.537729 0.017502
C51   C     C_R   0.627982 0.939893 0.491770 0.019777
C52   C     C_R   0.394631 0.067936 0.435558 0.015527
C53   C     C_R   0.844445 0.434030 0.433837 -0.209829
C54   C     C_R   0.167282 0.561911 0.522324 -0.222960
C55   C     C_R   0.156779 0.434378 0.550510 -0.198856
C56   C     C_R   0.845122 0.565550 0.432257 -0.226655
C57   C     C_R   0.345084 0.934803 0.432687 -0.218106
C58   C     C_R   0.656406 0.065668 0.552414 -0.197784
C59   C     C_R   0.666759 0.938222 0.524260 -0.209699
C60   C     C_R   0.344221 0.066260 0.434588 -0.209123
C61   C     C_R   0.823510 0.499838 0.421999 0.227557
C62   C     C_R   0.177132 0.499923 0.560082 0.216655
C63   C     C_R   0.323503 0.000418 0.422254 0.235292
C64   C     C_R   0.677047 0.000054 0.561405 0.222928
C65   C     C_R   0.919850 0.498908 0.434813 0.065405
C66   C     C_R   0.097970 0.497224 0.502536 0.064660
C67   C     C_R   0.419151 0.001593 0.437222 0.066891
C68   C     C_R   0.596682 0.003020 0.506559 0.065889
C69   C     C_R   0.079515 0.369884 0.546324 -0.175871
C70   C     C_R   0.929214 0.629810 0.411502 -0.178197
C71   C     C_R   0.922266 0.366793 0.432863 -0.168621
C72   C     C_R   0.119754 0.620139 0.443140 -0.192201
C73   C     C_R   0.618036 0.880537 0.447453 -0.187604
C74   C     C_R   0.421634 0.133662 0.435487 -0.156813
C75   C     C_R   0.428637 0.870899 0.413697 -0.164443
C76   C     C_R   0.578535 0.130150 0.550085 -0.159004
H9    H     H_    0.083842 0.321795 0.579342 0.192028
H10   H     H_    0.917836 0.680399 0.392029 0.188942
H11   H     H_    0.913663 0.315264 0.411674 0.205772
H12   H     H_    0.147508 0.664963 0.415314 0.174625
H13   H     H_    0.645643 0.836116 0.418954 0.157012
H14   H     H_    0.413546 0.185310 0.413579 0.211799
H15   H     H_    0.417615 0.820490 0.393528 0.205787
H16   H     H_    0.583398 0.178200 0.582354 0.203789
C77   C     C_R   0.734399 0.293307 0.941497 0.015541
C78   C     C_R   0.275561 0.729186 0.049045 0.015627
C79   C     C_R   0.276215 0.277346 0.048029 0.016241
C80   C     C_R   0.725717 0.719772 0.949203 0.015612
C81   C     C_R   0.212899 0.752329 0.959955 0.014796
C82   C     C_R   0.793214 0.259812 0.034759 0.014060
C83   C     C_R   0.779011 0.762638 0.048157 0.016661
C84   C     C_R   0.223141 0.233798 0.948747 0.016490
C85   C     C_R   0.788756 0.268749 0.893006 0.017669
C86   C     C_R   0.227265 0.769905 0.090897 0.008314
C87   C     C_R   0.220277 0.260605 0.093654 0.014876
C88   C     C_R   0.781597 0.737470 0.903240 0.012638
C89   C     C_R   0.260271 0.710152 0.919042 0.005512
C90   C     C_R   0.743183 0.295497 0.078282 0.003758
C91   C     C_R   0.724847 0.739283 0.092421 0.021941
C92   C     C_R   0.278198 0.253909 0.903821 0.016652
C93   C     C_R   0.817983 0.251166 0.941419 0.027972
C94   C     C_R   0.194061 0.776298 0.048315 0.032151
C95   C     C_R   0.193336 0.242008 0.042218 0.027196
C96   C     C_R   0.808676 0.756507 0.954535 0.022859
C97   C     C_R   0.293390 0.703355 0.961501 0.027636
C98   C     C_R   0.711381 0.303216 0.034237 0.028509
C99   C     C_R   0.697367 0.724026 0.042811 0.030780
C100  C     C_R   0.305140 0.270796 0.954361 0.029006
C101  C     C_R   0.646737 0.324325 0.947480 -0.018606
C102  C     C_R   0.358214 0.682353 0.048243 -0.023282
C103  C     C_R   0.360018 0.313811 0.050630 -0.021923
C104  C     C_R   0.641291 0.684469 0.947984 -0.017291
C105  C     C_R   0.133890 0.806657 0.956237 -0.014823
C106  C     C_R   0.869779 0.200337 0.042215 -0.016665
C107  C     C_R   0.858876 0.810504 0.056069 -0.026201
C108  C     C_R   0.142039 0.188602 0.942330 -0.022622
C109  C     C_R   0.616796 0.343067 0.901331 -0.235953
C110  C     C_R   0.385730 0.659683 0.097250 -0.241473
C111  C     C_R   0.386169 0.340018 0.098929 -0.237127
C112  C     C_R   0.614639 0.658972 0.900267 -0.234668
C113  C     C_R   0.110690 0.836586 0.904127 -0.229456
C114  C     C_R   0.890277 0.165120 0.095544 -0.228753
C115  C     C_R   0.879781 0.849512 0.106524 -0.228107
C116  C     C_R   0.120423 0.149973 0.892679 -0.223486
C117  C     C_R   0.635065 0.319640 0.814793 0.239225
C118  C     C_R   0.368462 0.684295 0.183839 0.231874
C119  C     C_R   0.366530 0.319716 0.186449 0.242890
C120  C     C_R   0.634181 0.679174 0.812819 0.234099
C121  C     C_R   0.130297 0.816484 0.815222 0.228158
C122  C     C_R   0.869055 0.182292 0.185471 0.228930
C123  C     C_R   0.851000 0.849509 0.199037 0.211633
C124  C     C_R   0.148836 0.149549 0.800027 0.214566
C125  C     C_R   0.688558 0.298753 0.765508 -0.206057
C126  C     C_R   0.320705 0.723516 0.226462 -0.193647
C127  C     C_R   0.313080 0.297292 0.233543 -0.210511
C128  C     C_R   0.687599 0.701560 0.765475 -0.215910
C129  C     C_R   0.176198 0.773074 0.774357 -0.209571
C130  C     C_R   0.823585 0.226505 0.226015 -0.207007
C131  C     C_R   0.805765 0.806560 0.239758 -0.200685
C132  C     C_R   0.194955 0.190624 0.758726 -0.205204
C133  C     C_R   0.723631 0.297148 0.805834 0.000481
C134  C     C_R   0.291598 0.744201 0.178924 -0.000749
C135  C     C_R   0.279997 0.292897 0.189339 0.001945
C136  C     C_R   0.721060 0.705504 0.808873 0.000566
C137  C     C_R   0.201338 0.745637 0.825217 0.000996
C138  C     C_R   0.799345 0.255880 0.174697 0.000724
C139  C     C_R   0.777413 0.785885 0.191933 0.023598
C140  C     C_R   0.223960 0.208962 0.805931 0.014016
C141  C     C_R   0.701742 0.305316 0.898167 0.050084
C142  C     C_R   0.307924 0.717284 0.092859 0.043466
C143  C     C_R   0.304946 0.295850 0.096159 0.051013
C144  C     C_R   0.696485 0.702072 0.901848 0.052330
C145  C     C_R   0.183040 0.768985 0.913338 0.047953
C146  C     C_R   0.820222 0.237271 0.084388 0.047596
C147  C     C_R   0.804715 0.787668 0.098599 0.048363
C148  C     C_R   0.196735 0.209277 0.899178 0.050576
C149  C     C_R   0.623281 0.318264 0.040681 0.194697
C150  C     C_R   0.380238 0.677336 0.954904 0.194719
C151  C     C_R   0.388570 0.293732 0.961468 0.191030
C152  C     C_R   0.613165 0.703628 0.037479 0.193616
C153  C     C_R   0.109075 0.808141 0.050203 0.191634
C154  C     C_R   0.898783 0.208483 0.948999 0.181454
C155  C     C_R   0.889965 0.787718 0.967781 0.183019
C156  C     C_R   0.111426 0.212525 0.030291 0.186313
C157  C     C_R   0.655385 0.310100 0.082465 -0.199038
C158  C     C_R   0.347618 0.684132 0.913803 -0.200016
C159  C     C_R   0.361462 0.270682 0.915531 -0.184066
C160  C     C_R   0.640896 0.723781 0.083427 -0.186834
C161  C     C_R   0.139624 0.795845 0.094466 -0.196429
C162  C     C_R   0.873174 0.234770 0.900872 -0.185674
C163  C     C_R   0.865069 0.760567 0.918840 -0.176138
C164  C     C_R   0.136927 0.239902 0.078016 -0.175839
C165  C     C_R   0.779086 0.283163 0.758014 -0.173534
C166  C     C_R   0.249649 0.796037 0.210479 -0.158656
C167  C     C_R   0.224278 0.280135 0.233591 -0.173234
C168  C     C_R   0.776806 0.718349 0.764014 -0.173922
C169  C     C_R   0.241298 0.691115 0.794422 -0.145132
C170  C     C_R   0.757898 0.308424 0.207399 -0.146440
C171  C     C_R   0.724168 0.759806 0.233516 -0.173471
C172  C     C_R   0.278195 0.229754 0.763017 -0.160903
C173  C     C_R   0.809368 0.260547 0.799400 0.131599
C174  C     C_R   0.217980 0.809160 0.168451 0.105811
C175  C     C_R   0.195440 0.259506 0.188591 0.134389
C176  C     C_R   0.805977 0.739086 0.808428 0.132434
C177  C     C_R   0.269980 0.672577 0.840183 0.118498
C178  C     C_R   0.729193 0.326827 0.162006 0.118407
C179  C     C_R   0.700432 0.730316 0.185474 0.113236
C180  C     C_R   0.303637 0.257673 0.809466 0.126895
H17   H     H_    0.635585 0.301999 0.153558 0.184991
H18   H     H_    0.366759 0.683550 0.842171 0.188526
H19   H     H_    0.385061 0.245919 0.851664 0.188667
H20   H     H_    0.617727 0.745247 0.149529 0.182649
H21   H     H_    0.119102 0.794479 0.166121 0.180621
H22   H     H_    0.898696 0.250620 0.833595 0.193914
H23   H     H_    0.890587 0.735051 0.856558 0.196110
H24   H     H_    0.111947 0.266538 0.139807 0.192625
H25   H     H_    0.800052 0.286053 0.686724 0.190447
H26   H     H_    0.243855 0.833028 0.263191 0.222079
H27   H     H_    0.201911 0.283839 0.304762 0.189171
H28   H     H_    0.798892 0.714780 0.692797 0.189399
H29   H     H_    0.247878 0.657352 0.738553 0.213945
H30   H     H_    0.749363 0.340713 0.265110 0.219693
H31   H     H_    0.699406 0.760199 0.304086 0.171195
H32   H     H_    0.302066 0.225649 0.692034 0.185699
O33   O     O_R   0.062020 0.072840 0.007170 -0.611831
O34   O     O_R   0.937980 0.927160 0.992830 -0.614397
O35   O     O_R   0.937980 0.072840 0.992830 -0.615022
O36   O     O_R   0.062020 0.927160 0.007170 -0.614696
O37   O     O_R   0.562020 0.572840 0.007170 -0.610280
O38   O     O_R   0.437980 0.427160 0.992830 -0.610851
O39   O     O_R   0.437980 0.572840 0.992830 -0.616603
O40   O     O_R   0.562020 0.427160 0.007170 -0.612634
O41   O     O_R   0.947860 0.073950 0.109290 -0.547646
O42   O     O_R   0.052140 0.926050 0.890710 -0.550548
O43   O     O_R   0.052140 0.073950 0.890710 -0.550656
O44   O     O_R   0.947860 0.926050 0.109290 -0.548374
O45   O     O_R   0.447860 0.573950 0.109290 -0.551847
O46   O     O_R   0.552140 0.426050 0.890710 -0.555652
O47   O     O_R   0.552140 0.573950 0.890710 -0.559389
O48   O     O_R   0.447860 0.426050 0.109290 -0.554926
C181  C     C_R   0.074320 0.100530 0.933681 0.935314
C182  C     C_R   0.925701 0.899421 0.066222 0.935876
C183  C     C_R   0.928777 0.103975 0.062990 0.933373
C184  C     C_R   0.071732 0.896738 0.936541 0.933747
C185  C     C_R   0.572240 0.603057 0.935869 0.918078
C186  C     C_R   0.428038 0.396671 0.063869 0.920340
C187  C     C_R   0.427088 0.602259 0.064273 0.924477
C188  C     C_R   0.572976 0.397440 0.935816 0.917931
Zn9   Zn    Zn3+2 0.505960 0.500000 0.080520 1.140580
Zn10  Zn    Zn3+2 0.494040 0.500000 0.919480 1.135059
Zn11  Zn    Zn3+2 0.005960 1.000000 0.080520 1.154362
Zn12  Zn    Zn3+2 0.994040 1.000000 0.919480 1.153109
N1    N     N_R   0.783418 0.499793 0.391816 0.229604
O49   O     O_R   0.732402 0.500735 0.447846 -0.327149
O50   O     O_R   0.798246 0.490969 0.307859 -0.370730
N2    N     N_R   0.205439 0.503104 0.612079 0.221391
O51   O     O_R   0.257712 0.501965 0.573915 -0.324892
O52   O     O_R   0.178830 0.493594 0.697469 -0.363812
N3    N     N_R   0.283528 0.000080 0.391814 0.224985
O53   O     O_R   0.232500 0.001135 0.447778 -0.302188
O54   O     O_R   0.298357 0.988462 0.308323 -0.365846
N4    N     N_R   0.706312 0.996743 0.611856 0.224753
O55   O     O_R   0.758608 0.997651 0.572088 -0.305220
O56   O     O_R   0.680704 0.007348 0.697051 -0.342136
N5    N     N_R   0.597831 0.309434 0.779854 0.228098
O57   O     O_R   0.588176 0.363085 0.739006 -0.334248
O58   O     O_R   0.588373 0.243066 0.763640 -0.362634
N6    N     N_R   0.399844 0.670132 0.229248 0.234577
O59   O     O_R   0.393416 0.608477 0.271405 -0.336786
O60   O     O_R   0.419533 0.725284 0.252624 -0.382204
N7    N     N_R   0.403061 0.312642 0.223284 0.231372
O61   O     O_R   0.409960 0.366897 0.266191 -0.330962
O62   O     O_R   0.417532 0.247472 0.234081 -0.370057
N8    N     N_R   0.597563 0.686354 0.776269 0.232135
O63   O     O_R   0.590928 0.632283 0.732824 -0.328114
O64   O     O_R   0.583112 0.751617 0.765717 -0.339107
N9    N     N_R   0.104218 0.842368 0.764963 0.233167
O65   O     O_R   0.118319 0.905024 0.724133 -0.288683
O66   O     O_R   0.076665 0.797110 0.743234 -0.338710
N10   N     N_R   0.893298 0.152869 0.236898 0.236134
O67   O     O_R   0.876865 0.090386 0.277230 -0.290920
O68   O     O_R   0.923844 0.193993 0.256771 -0.361680
N11   N     N_R   0.864281 0.897532 0.252876 0.238192
O69   O     O_R   0.830146 0.947736 0.299348 -0.355505
O70   O     O_R   0.902935 0.880604 0.271422 -0.317692
N12   N     N_R   0.134398 0.102603 0.746670 0.237390
O71   O     O_R   0.167007 0.050605 0.701224 -0.345543
O72   O     O_R   0.095808 0.121135 0.728659 -0.314189
I1    I     I_    0.541296 0.292535 0.121715 -0.180865
I2    I     I_    0.462251 0.697009 0.867818 -0.156164
I3    I     I_    0.470474 0.267117 0.904032 -0.181536
I4    I     I_    0.531585 0.733420 0.095138 -0.221025
I5    I     I_    0.024682 0.796490 0.130958 -0.272539
I6    I     I_    0.983914 0.214193 0.879629 -0.250131
I7    I     I_    0.972255 0.762830 0.918639 -0.229035
I8    I     I_    0.028737 0.236673 0.082526 -0.241146
I9    I     I_    0.877308 0.198325 0.708901 -0.334972
I10   I     I_    0.169110 0.904691 0.215346 -0.272961
I11   I     I_    0.120940 0.208534 0.277430 -0.311410
I12   I     I_    0.880133 0.790449 0.719196 -0.287643
I13   I     I_    0.314815 0.573530 0.796550 -0.250904
I14   I     I_    0.676746 0.418286 0.214926 -0.242284
I15   I     I_    0.639262 0.651364 0.257844 -0.304989
I16   I     I_    0.371935 0.323488 0.726696 -0.302523

loop_
_geom_bond_atom_site_label_1
_geom_bond_atom_site_label_2
_geom_bond_distance
_ccdc_geom_bond_type
C140  C172  1.402582 A    
O5    C5    1.257899 A    
C59   C64   1.393495 A    
O7    Zn7   2.044556 S    
O31   Zn4   2.092297 S    
O8    Zn8   2.044556 S    
C121  N9    1.441059 S    
C90   C178  1.414414 A    
O46   Zn10  2.001600 S    
C107  C147  1.411326 A    
C114  C122  1.397672 A    
C171  H31   1.072897 S    
N2    O51   1.302154 A    
C117  C125  1.393624 A    
C79   C143  1.434142 A    
C38   C40   1.404350 A    
C139  C147  1.407743 A    
C3    C127  1.464678 S    
C83   C96   1.419446 A    
C137  C145  1.409127 A    
O30   C6    1.296665 A    
C108  C148  1.413038 A    
O20   C12   1.284293 A    
C5    C129  1.480137 S    
C47   C55   1.430878 A    
C119  N7    1.436778 S    
N3    O54   1.300472 A    
C36   C43   1.396684 A    
C49   C67   1.412596 A    
C91   C99   1.413309 A    
C152  C160  1.387702 A    
C51   C73   1.425408 A    
C149  I1    2.116553 S    
O2    C2    1.250904 A    
C87   C95   1.440862 A    
C53   C61   1.396603 A    
H5    C28   1.080366 S    
C151  I3    2.099650 S    
C152  I4    2.105907 S    
C52   C67   1.404407 A    
O6    Zn6   2.048003 S    
C98   C157  1.402993 A    
C29   C31   1.403206 A    
C155  I7    2.113254 S    
C41   C65   1.412099 A    
C110  C118  1.397057 A    
C101  C149  1.411335 A    
C38   C42   1.399599 A    
C45   C53   1.424728 A    
C51   C68   1.404387 A    
C156  C164  1.403812 A    
O27   C3    1.292908 A    
N12   O71   1.301024 A    
O48   Zn9   1.999162 S    
C160  H20   1.080354 S    
C122  N10   1.440420 S    
C61   N1    1.440195 S    
C90   C98   1.416165 A    
C103  C151  1.398352 A    
C44   C68   1.412750 A    
H2    C31   1.083485 S    
N6    O59   1.303347 A    
O30   Zn1   2.092754 S    
C34   C36   1.408902 A    
C48   C56   1.432873 A    
H6    C27   1.083659 S    
C159  H19   1.077575 S    
O17   Zn1   2.014755 S    
C135  C167  1.406697 A    
C51   C59   1.434270 A    
C119  C127  1.395840 A    
C133  C141  1.405380 A    
C120  C128  1.395228 A    
O47   C185  1.265636 A    
C77   C141  1.437158 A    
C15   C56   1.478324 S    
C77   C85   1.431776 A    
C20   C73   1.395179 A    
O23   Zn7   2.016493 S    
H7    C26   1.083549 S    
O24   Zn8   2.016493 S    
O9    C9    1.246056 A    
C50   C58   1.431107 A    
C60   C63   1.397922 A    
C139  C171  1.408440 A    
C153  C161  1.399323 A    
C137  C169  1.411233 A    
O12   C12   1.249035 A    
O13   C13   1.247619 A    
O40   Zn9   2.001761 S    
C82   C146  1.434068 A    
C86   C94   1.428471 A    
C108  C156  1.407863 A    
C102  C142  1.411150 A    
C103  C111  1.418651 A    
C120  N8    1.435490 S    
C11   C60   1.461791 S    
C104  C112  1.417292 A    
C99   C160  1.406840 A    
C80   C144  1.431474 A    
C13   C54   1.437034 S    
C153  I5    2.129028 S    
C122  C130  1.396821 A    
C40   C41   1.407547 A    
C46   C54   1.435804 A    
O48   C186  1.265733 A    
O7    C7    1.249349 A    
O9    Zn6   2.097338 S    
O8    C8    1.254763 A    
C85   C173  1.428933 A    
O11   Zn8   2.099938 S    
C179  I15   2.141962 S    
O38   C186  1.238976 A    
C21   C29   1.407691 A    
O16   Zn3   2.099938 S    
C118  C126  1.394353 A    
C23   C31   1.405024 A    
C121  C129  1.397077 A    
O22   Zn6   2.014755 S    
C47   C69   1.417397 A    
C42   C66   1.412568 A    
C50   C76   1.417750 A    
C26   C28   1.400553 A    
C106  C146  1.410245 A    
C55   C62   1.372701 A    
C158  H18   1.080462 S    
C123  N11   1.441358 S    
C84   C148  1.432078 A    
C30   C32   1.397373 A    
C86   C174  1.419463 A    
C78   C97   1.416767 A    
C62   N2    1.441110 S    
O43   Zn12  1.999161 S    
C18   C26   1.403375 A    
C76   H16   1.081025 S    
C17   C76   1.398342 A    
O2    Zn2   2.048003 S    
C46   C72   1.428504 A    
N9    O66   1.301218 A    
H8    C25   1.083591 S    
O6    C6    1.256822 A    
O33   Zn11  1.996299 S    
C105  C113  1.431556 A    
C136  C144  1.403670 A    
C176  I12   2.141959 S    
H1    C32   1.083589 S    
C115  C123  1.396933 A    
C125  C133  1.440467 A    
H3    C30   1.083622 S    
C113  C121  1.399644 A    
C33   C35   1.404924 A    
N10   O68   1.300728 A    
O21   C13   1.284540 A    
C82   C93   1.417343 A    
C14   C53   1.464357 S    
N8    O64   1.301667 A    
C52   C60   1.425743 A    
O23   C15   1.296301 A    
C77   C98   1.413274 A    
O24   C16   1.304446 A    
C101  C109  1.434651 A    
C80   C99   1.414856 A    
C167  H27   1.077411 S    
C6    C130  1.476647 S    
C16   C55   1.462598 S    
C117  N5    1.437106 S    
C79   C100  1.419562 A    
N5    O57   1.302142 A    
C104  C152  1.397853 A    
C177  I13   2.138626 S    
C150  I2    2.113027 S    
O3    C3    1.254785 A    
C19   C33   1.395758 A    
N11   O70   1.302439 A    
C81   C94   1.414396 A    
C108  C116  1.437604 A    
C19   C27   1.404432 A    
O29   C5    1.297904 A    
C111  C119  1.376906 A    
C12   C59   1.438878 S    
C112  C120  1.375598 A    
O44   C182  1.261465 A    
C130  C138  1.438496 A    
C8    C132  1.463107 S    
N1    O50   1.300442 A    
C155  C163  1.406117 A    
O47   Zn10  1.999161 S    
C170  C178  1.393412 A    
C20   C34   1.395405 A    
C174  I10   2.140015 S    
C48   C70   1.420879 A    
C49   C57   1.430713 A    
C24   C32   1.403246 A    
C150  C158  1.394049 A    
C81   C145  1.430685 A    
C82   C90   1.410752 A    
C103  C143  1.410627 A    
C94   C161  1.404586 A    
C162  H22   1.070222 S    
O41   C183  1.266179 A    
O12   Zn7   2.099938 S    
O42   C184  1.264318 A    
O13   Zn2   2.097338 S    
O40   C188  1.234461 A    
O43   C181  1.260220 A    
C166  C174  1.398173 A    
C113  C184  1.470290 S    
C114  C183  1.476824 S    
C18   C75   1.406114 A    
C115  C182  1.465153 S    
C45   C71   1.422016 A    
C87   C175  1.432404 A    
C69   H9    1.080762 S    
O25   C1    1.294033 A    
C71   H11   1.078594 S    
C19   C74   1.389170 A    
C89   C177  1.420120 A    
O35   Zn12  2.001759 S    
O10   C10   1.262103 A    
C25   C27   1.398146 A    
O36   Zn11  2.001761 S    
O14   C14   1.260127 A    
C175  I11   2.143408 S    
O37   Zn9   1.996299 S    
C118  N6    1.441355 S    
C81   C89   1.413543 A    
C173  I9    2.144574 S    
C123  C131  1.376450 A    
C47   C66   1.411949 A    
N12   O72   1.302353 A    
C138  C146  1.410581 A    
C96   C163  1.411907 A    
O44   Zn11  1.999162 S    
C34   C44   1.408899 A    
N4    O55   1.302202 A    
O10   Zn5   2.097338 S    
C124  C132  1.375331 A    
O34   Zn12  1.996299 S    
C168  H28   1.077464 S    
O46   C188  1.274481 A    
O19   C11   1.289524 A    
O38   Zn10  1.996299 S    
C128  C136  1.443509 A    
O39   C187  1.233728 A    
C107  C115  1.438027 A    
C21   C39   1.398018 A    
C116  C124  1.398486 A    
N6    O60   1.301347 A    
C57   C63   1.394517 A    
C149  C157  1.393003 A    
O16   C16   1.245493 A    
C111  C186  1.470595 S    
C97   C158  1.399908 A    
C167  C175  1.402583 A    
C154  I6    2.123134 S    
C9    C58   1.462598 S    
C85   C93   1.444828 A    
C102  C150  1.415632 A    
O25   Zn6   2.092754 S    
C136  C168  1.407795 A    
O3    Zn3   2.044556 S    
O27   Zn8   2.092297 S    
C58   C64   1.373914 A    
C105  C153  1.417821 A    
N7    O61   1.302296 A    
O32   Zn3   2.092297 S    
C78   C86   1.418784 A    
O36   C184  1.237170 A    
N3    O53   1.302485 A    
C106  C114  1.434121 A    
O42   Zn12  2.001600 S    
C100  C159  1.404357 A    
C151  C159  1.388459 A    
C45   C65   1.405823 A    
O15   Zn4   2.099938 S    
C84   C95   1.421170 A    
O22   C14   1.290362 A    
C1    C125  1.467787 S    
C48   C65   1.412713 A    
C54   C62   1.393410 A    
C20   C28   1.405000 A    
O18   Zn2   2.014755 S    
O5    Zn5   2.048003 S    
C170  H30   1.075968 S    
C37   C41   1.398082 A    
C75   H15   1.080759 S    
C88   C176  1.431134 A    
C73   H13   1.073837 S    
C24   C38   1.404655 A    
C72   H12   1.077895 S    
C106  C154  1.414920 A    
C21   C72   1.399573 A    
O33   C181  1.239668 A    
C169  C177  1.398631 A    
C138  C170  1.412746 A    
C134  C166  1.413058 A    
C80   C88   1.428981 A    
C83   C147  1.431875 A    
C166  H26   1.076782 S    
O45   Zn9   2.001599 S    
C156  I8    2.115202 S    
N2    O52   1.300549 A    
C43   C67   1.411550 A    
C101  C141  1.418985 A    
C93   C162  1.407508 A    
C109  C188  1.478940 S    
C10   C57   1.478321 S    
C161  H21   1.080580 S    
C110  C187  1.473798 S    
C33   C43   1.408258 A    
O28   C4    1.291490 A    
C49   C75   1.418746 A    
N9    O65   1.302844 A    
C39   C42   1.408956 A    
C165  C173  1.396425 A    
C63   N3    1.440272 S    
C95   C164  1.410778 A    
C92   C100  1.420668 A    
C88   C96   1.443898 A    
C172  H32   1.078664 S    
C91   C179  1.412837 A    
N11   O69   1.300944 A    
C22   C30   1.403841 A    
C64   N4    1.440913 S    
O15   C15   1.262662 A    
C22   C40   1.396617 A    
C84   C92   1.419545 A    
C46   C66   1.404837 A    
O1    C1    1.253848 A    
C104  C144  1.412447 A    
O35   C183  1.239583 A    
C35   C44   1.398593 A    
C164  H24   1.074649 S    
C83   C91   1.414830 A    
C165  H25   1.076237 S    
O4    Zn4   2.044556 S    
C105  C145  1.409001 A    
C135  C143  1.406180 A    
C157  H17   1.081587 S    
C168  C176  1.402839 A    
C56   C61   1.396222 A    
C133  C165  1.407681 A    
C17   C35   1.405200 A    
O14   Zn1   2.097338 S    
C109  C117  1.385570 A    
C17   C25   1.403494 A    
O18   C10   1.296534 A    
C23   C37   1.406219 A    
O26   C2    1.303062 A    
C163  H23   1.074192 S    
O41   Zn11  2.001599 S    
C24   C69   1.396618 A    
O11   C11   1.259992 A    
C4    C128  1.460504 S    
C52   C74   1.423337 A    
C134  C142  1.407417 A    
N5    O58   1.302342 A    
C89   C97   1.425277 A    
C180  I16   2.145161 S    
O28   Zn7   2.092297 S    
C126  C134  1.443387 A    
O29   Zn2   2.092754 S    
C37   C39   1.410528 A    
H4    C29   1.083689 S    
O4    C4    1.254050 A    
C107  C155  1.407431 A    
N1    O49   1.302445 A    
O34   C182  1.238684 A    
C92   C180  1.424352 A    
C178  I14   2.137823 S    
C140  C148  1.406164 A    
C50   C68   1.411140 A    
C22   C71   1.388833 A    
N7    O62   1.301489 A    
C112  C185  1.470604 S    
O26   Zn5   2.092754 S    
N10   O67   1.302303 A    
C78   C142  1.436298 A    
N8    O63   1.302498 A    
C169  H29   1.077984 S    
C23   C70   1.408935 A    
C131  C139  1.431083 A    
C129  C137  1.438579 A    
C116  C181  1.464010 S    
C127  C135  1.445732 A    
C171  C179  1.384614 A    
O37   C185  1.238875 A    
C154  C162  1.403154 A    
C7    C131  1.462291 S    
O20   Zn4   2.016493 S    
O21   Zn5   2.014755 S    
C124  N12   1.441538 S    
C79   C87   1.426330 A    
O31   C7    1.300635 A    
C2    C126  1.478592 S    
N4    O56   1.300564 A    
O32   C8    1.299105 A    
O17   C9    1.304127 A    
C172  C180  1.388470 A    
C18   C36   1.406857 A    
C102  C110  1.437431 A    
O19   Zn3   2.016493 S    
C132  C140  1.426741 A    
O45   C187  1.269640 A    
O39   Zn10  2.001759 S    
C70   H10   1.080982 S    
O1    Zn1   2.048003 S    
C74   H14   1.078612 S    
