data_mof_unit_8337.cif
_audit_creation_date              2012-12-10T16:50:12-0500
_audit_creation_method            fapswitch 2.2
_symmetry_space_group_name_H-M    P1
_symmetry_Int_Tables_number       1
_space_group_crystal_system       triclinic
_cell_length_a                    23.479483
_cell_length_b                    8.684063
_cell_length_c                    7.446123
_cell_angle_alpha                 103.075709
_cell_angle_beta                  94.073826
_cell_angle_gamma                 92.378305
_cell_volume                      1472.55100862

loop_
_atom_site_label
_atom_site_type_symbol
_atom_type_description
_atom_site_fract_x
_atom_site_fract_y
_atom_site_fract_z
_atom_type_partial_charge
C1    C     C_R   0.498282 0.199666 0.453160 0.889213
C2    C     C_R   0.501721 0.800335 0.546839 0.886491
C3    C     C_R   0.234377 0.522362 0.358645 0.536760
C4    C     C_R   0.755950 0.433583 0.329856 0.552811
C5    C     C_R   0.293893 0.517460 0.352955 -0.304930
C6    C     C_R   0.696353 0.432306 0.331971 -0.293052
C7    C     C_R   0.328556 0.501410 0.508693 -0.090785
C8    C     C_R   0.671319 0.504411 0.493137 -0.097205
C9    C     C_R   0.303080 0.485766 0.669128 -0.218623
C10   C     C_R   0.706322 0.579249 0.651939 -0.212610
C11   C     C_R   0.243851 0.484409 0.672950 -0.197993
C12   C     C_R   0.765525 0.581059 0.650386 -0.192650
C13   C     C_R   0.209540 0.502282 0.518490 0.286047
C14   C     C_R   0.790766 0.506346 0.491300 0.249728
C15   C     C_2   0.497458 0.031696 0.426867 -0.363696
C16   C     C_2   0.502546 0.968304 0.573132 -0.361088
C17   C     C_R   0.390998 0.499930 0.502664 0.821884
C18   C     C_R   0.608936 0.501081 0.497548 0.825037
C19   C     C_R   0.883778 0.646175 0.527694 0.516452
C20   C     C_R   0.117298 0.361225 0.489302 0.581925
C21   C     C_R   0.877551 0.363552 0.470885 0.594105
C22   C     C_R   0.123541 0.644337 0.560492 0.556375
C23   C     C_R   0.937265 0.359955 0.474439 -0.030471
C24   C     C_R   0.063859 0.647808 0.556068 -0.012238
C25   C     C_R   0.970475 0.504029 0.510382 -0.017608
C26   C     C_R   0.030649 0.503506 0.517480 -0.013728
C27   C     C_R   0.943663 0.648656 0.539132 -0.011424
C28   C     C_R   0.057462 0.358709 0.485436 -0.017715
C29   C     C_R   0.964431 0.216263 0.443666 -0.158160
C30   C     C_R   0.036720 0.791459 0.587742 -0.167362
C31   C     C_R   0.023920 0.215611 0.448332 -0.169393
C32   C     C_R   0.977207 0.791860 0.578529 -0.169623
Cu1   Cu    Cu3+1 0.506340 0.517380 0.684380 0.955755
Cu2   Cu    Cu3+1 0.493660 0.482620 0.315620 0.954137
H1    H     H_    0.939795 0.103943 0.414190 0.192537
H2    H     H_    0.061347 0.903868 0.618851 0.193325
H3    H     H_    0.043485 0.102810 0.422160 0.182694
H4    H     H_    0.957622 0.904606 0.603369 0.185681
H5    H     H_    0.312905 0.525834 0.226981 0.165763
H6    H     H_    0.669864 0.372954 0.208635 0.177036
H7    H     H_    0.328800 0.472125 0.790574 0.167751
H8    H     H_    0.687904 0.637113 0.777254 0.168034
H9    H     H_    0.224447 0.469169 0.795804 0.186278
H10   H     H_    0.792025 0.639501 0.773895 0.166348
N1    N     N_R   0.852006 0.505102 0.494941 -0.463460
N2    N     N_R   0.148783 0.502558 0.524764 -0.450353
N3    N     N_2   0.484110 0.456420 0.038520 -0.218472
N4    N     N_2   0.515890 0.543580 0.961480 -0.217228
O1    O     O_R   0.504120 0.286130 0.619770 -0.582384
O2    O     O_R   0.495880 0.713870 0.380230 -0.584093
O3    O     O_R   0.493410 0.256770 0.308360 -0.583802
O4    O     O_R   0.506590 0.743230 0.691640 -0.584566
O5    O     O_R   0.423230 0.514630 0.655730 -0.592152
O6    O     O_R   0.576770 0.485370 0.344270 -0.590564
O7    O     O_R   0.412530 0.485280 0.344320 -0.584292
O8    O     O_R   0.587470 0.514720 0.655680 -0.581070
O9    O     O_2   0.857439 0.783571 0.548007 -0.516633
O10   O     O_2   0.143842 0.223930 0.456418 -0.519605
O11   O     O_2   0.845293 0.226910 0.445686 -0.487096
O12   O     O_2   0.156164 0.781238 0.599444 -0.541018
O13   O     O_3   0.199300 0.532759 0.204693 -0.585902
C33   C     C_3   0.210724 0.679967 0.160160 -0.283100
H11   H     H_    0.210219 0.780752 0.282763 0.210193
H12   H     H_    0.252066 0.682897 0.096791 0.150709
H13   H     H_    0.176652 0.696335 0.056155 0.206640
O14   O     O_3   0.779960 0.355223 0.173338 -0.546102
C34   C     C_3   0.788814 0.462910 0.060949 -0.295451
H14   H     H_    0.819524 0.562874 0.131965 0.170037
H15   H     H_    0.747697 0.508542 0.017585 0.154530
H16   H     H_    0.807599 0.399980 0.934113 0.211808
H17   H     H_    0.492664 0.959870 0.286008 0.179618
H18   H     H_    0.507340 0.040129 0.713990 0.180409
H19   H     H_    0.454896 0.379287 0.948883 0.224560
H20   H     H_    0.545092 0.620745 0.051119 0.227026

loop_
_geom_bond_atom_site_label_1
_geom_bond_atom_site_label_2
_ccdc_geom_bond_type
C30   C32   A    
C10   H8    S    
C16   H18   S    
C19   O9    S    
Cu1   O4    S    
Cu2   O3    S    
C23   C29   A    
C24   C26   A    
C21   O11   S    
C22   O12   S    
C13   N2    S    
Cu1   O1    S    
C15   C16   D    
C33   H12   S    
C2    O2    A    
C7    C17   S    
C11   H9    S    
C1    C15   S    
C32   H4    S    
C2    C16   S    
C17   O7    A    
C3    C13   A    
C18   O8    A    
Cu1   O8    S    
O14   C34   S    
Cu2   O7    S    
C10   C12   A    
C14   N1    S    
C21   N1    A    
C3    O13   S    
Cu1   O5    S    
Cu2   O2    S    
C34   H14   S    
N4    H20   S    
N3    H19   S    
C4    C6    A    
C5    C7    A    
C6    C8    A    
C20   C28   A    
C25   C26   A    
C8    C18   S    
C31   H3    S    
C34   H15   S    
C33   H11   S    
C1    O3    A    
N3    N4    D    
Cu1   Cu2   S    
C9    C11   A    
C2    O4    A    
C22   N2    A    
C12   C14   A    
Cu2   O6    S    
C21   C23   A    
C22   C24   A    
C20   O10   S    
C17   O5    A    
C19   C27   A    
C7    C9    A    
C33   H13   S    
C27   C32   A    
C26   C28   A    
C28   C31   A    
C3    C5    A    
C19   N1    A    
C25   C27   A    
C15   H17   S    
C29   H1    S    
C9    H7    S    
C30   H2    S    
C34   H16   S    
C5    H5    S    
C29   C31   A    
C4    O14   S    
C11   C13   A    
C6    H6    S    
C23   C25   A    
C4    C14   A    
O13   C33   S    
C24   C30   A    
C18   O6    A    
C8    C10   A    
Cu1   N4    S    
C12   H10   S    
Cu2   N3    S    
C1    O1    A    
C20   N2    A    
