data_mof_unit_38983.cif
_audit_creation_date              2012-12-11T15:53:36-0500
_audit_creation_method            fapswitch 2.2
_symmetry_space_group_name_H-M    P1
_symmetry_Int_Tables_number       1
_space_group_crystal_system       triclinic
_cell_length_a                    6.928514
_cell_length_b                    14.56874
_cell_length_c                    16.016526
_cell_angle_alpha                 90.571433
_cell_angle_beta                  90.721844
_cell_angle_gamma                 89.714283
_cell_volume                      1616.47582971

loop_
_atom_site_label
_atom_site_type_symbol
_atom_type_description
_atom_site_fract_x
_atom_site_fract_y
_atom_site_fract_z
_atom_type_partial_charge
O1    O     O_R   0.361600 0.167310 0.164620 -0.508435
O2    O     O_R   0.638400 0.832690 0.835380 -0.508437
O3    O     O_R   0.691080 0.157570 0.338750 -0.541149
O4    O     O_R   0.308920 0.842430 0.661250 -0.541148
O5    O     O_R   0.861410 0.336420 0.339360 -0.521892
O6    O     O_R   0.138590 0.663580 0.660640 -0.521892
C1    C     C_R   0.523946 0.135438 0.367784 0.731235
C2    C     C_R   0.476054 0.864562 0.632216 0.731234
O7    O     O_R   0.691320 0.156280 0.165240 -0.543261
O8    O     O_R   0.308680 0.843720 0.834760 -0.543260
O9    O     O_R   0.861640 0.335130 0.164600 -0.538574
O10   O     O_R   0.138360 0.664870 0.835400 -0.538572
C3    C     C_R   0.521446 0.134579 0.135499 0.768146
C4    C     C_R   0.478554 0.865421 0.864501 0.768147
O11   O     O_R   0.361370 0.168600 0.339370 -0.547164
O12   O     O_R   0.638630 0.831400 0.660630 -0.547164
O13   O     O_3   0.527990 0.310540 0.251980 -0.374838
O14   O     O_3   0.472010 0.689460 0.748020 -0.374838
V1    V     V_3+5 0.802830 0.240980 0.251990 1.501669
V2    V     V_3+5 0.197170 0.759020 0.748010 1.501668
O15   O     O_R   0.191360 0.346160 0.165220 -0.543283
O16   O     O_R   0.808640 0.653840 0.834780 -0.543284
C5    C     C_R   0.020407 0.368571 0.136398 0.743216
C6    C     C_R   0.979593 0.631429 0.863603 0.743222
O17   O     O_R   0.191130 0.347440 0.338740 -0.545633
O18   O     O_R   0.808870 0.652560 0.661260 -0.545633
C7    C     C_R   0.022622 0.369284 0.367789 0.701035
C8    C     C_R   0.977378 0.630715 0.632211 0.701035
V3    V     V_3+5 0.302840 0.262750 0.251990 1.493024
V4    V     V_3+5 0.697160 0.737250 0.748010 1.493022
O19   O     O_3   0.027820 0.193180 0.251990 -0.365893
O20   O     O_3   0.972180 0.806820 0.748010 -0.365895
C9    C     C_3   0.831363 0.461417 0.488198 0.430292
C10   C     C_3   0.168637 0.538583 0.511802 0.430292
C11   C     C_3   0.947232 0.457329 0.570875 -0.278763
C12   C     C_3   0.052768 0.542671 0.429125 -0.278762
H1    H     H_    0.900136 0.422478 0.628417 0.129075
H2    H     H_    0.099864 0.577521 0.371583 0.129077
C13   C     C_3   0.987516 0.561231 0.562201 -0.067815
C14   C     C_3   0.012484 0.438769 0.437799 -0.067814
C15   C     C_3   0.867631 0.565165 0.479961 -0.208182
C16   C     C_3   0.132369 0.434834 0.520039 -0.208182
H3    H     H_    0.757672 0.617953 0.463949 0.132048
H4    H     H_    0.242328 0.382047 0.536051 0.132047
C17   C     C_R   0.831421 0.511444 0.952733 -0.189710
C18   C     C_R   0.168578 0.488556 0.047267 -0.189712
H5    H     H_    0.699056 0.518948 0.916834 0.161455
H6    H     H_    0.300943 0.481053 0.083166 0.161457
C19   C     C_R   0.833447 0.450628 0.019842 0.365981
C20   C     C_R   0.166551 0.549373 0.980158 0.365983
C21   C     C_R   0.005346 0.437151 0.067706 -0.209746
C22   C     C_R   0.994653 0.562849 0.932294 -0.209743
C23   C     C_R   0.673002 0.006866 0.455591 0.363349
C24   C     C_R   0.326998 0.993134 0.544409 0.363348
C25   C     C_R   0.652779 0.940299 0.517177 -0.188136
C26   C     C_R   0.347221 0.059700 0.482823 -0.188136
H7    H     H_    0.773014 0.894335 0.529200 0.147285
H8    H     H_    0.226986 0.105665 0.470799 0.147285
C27   C     C_R   0.482868 0.932925 0.563510 -0.204479
C28   C     C_R   0.517132 0.067075 0.436490 -0.204479
C29   C     C_R   0.668553 0.010324 0.047754 -0.325004
C30   C     C_R   0.331445 0.989675 0.952248 -0.325019
H9    H     H_    0.799244 0.017253 0.085075 0.156361
H10   H     H_    0.200739 0.982739 0.914936 0.156347
C31   C     C_R   0.662318 0.944272 0.982903 0.375289
C32   C     C_R   0.337689 0.055731 0.017094 0.375266
C33   C     C_R   0.491700 0.933894 0.934189 -0.104763
C34   C     C_R   0.508302 0.066107 0.065810 -0.104765
O21   O     O_3   0.652685 0.419353 0.474496 -0.645853
H11   H     H_    0.582340 0.426787 0.527606 0.287742
O22   O     O_3   0.347315 0.580647 0.525504 -0.645853
H12   H     H_    0.417660 0.573213 0.472394 0.287742
O23   O     O_3   0.665693 0.404359 0.035542 -0.635795
H13   H     H_    0.627957 0.422161 0.092933 0.292135
O24   O     O_3   0.334303 0.595643 0.964459 -0.635789
H14   H     H_    0.372045 0.577839 0.907070 0.292131
O25   O     O_3   0.845282 0.009292 0.414157 -0.636248
H15   H     H_    0.899231 0.071241 0.424437 0.297071
O26   O     O_3   0.154718 0.990707 0.585843 -0.636249
H16   H     H_    0.100768 0.928759 0.575563 0.297071
O27   O     O_3   0.820085 0.888429 0.967558 -0.636553
H17   H     H_    0.926119 0.904310 0.007205 0.284783
O28   O     O_3   0.179921 0.111575 0.032437 -0.636566
H18   H     H_    0.073928 0.095721 0.992769 0.284794

loop_
_geom_bond_atom_site_label_1
_geom_bond_atom_site_label_2
_ccdc_geom_bond_type
C6    C22   S    
C32   C34   A    
C25   C27   A    
O13   V3    S    
O23   H13   S    
C11   C13   S    
C10   C16   S    
O4    C2    A    
V1    O19   S    
O27   H17   S    
C13   C15   S    
O25   H15   S    
O9    V1    S    
C30   C33   A    
O16   C6    A    
C11   H1    S    
O3    C1    A    
C2    C27   S    
O12   V4    S    
C29   H9    S    
C11   C16   S    
O7    C3    A    
C30   H10   S    
C9    C11   S    
C32   O28   S    
O5    C7    A    
C5    C21   S    
O7    V1    S    
O6    C8    A    
O8    V2    S    
C19   C21   A    
C20   C22   A    
C4    C33   S    
O3    V1    S    
O14   V4    S    
O14   V2    S    
C9    O21   S    
C17   H5    S    
C2    O12   A    
C15   H3    S    
C12   C15   S    
C16   H4    S    
C23   C28   A    
O11   V3    S    
C18   H6    S    
C24   C27   A    
C23   C25   A    
O17   V3    S    
C24   C26   A    
C9    C14   S    
C30   C32   A    
C10   C13   S    
C12   C14   S    
O8    C4    A    
C1    O11   A    
C17   C22   A    
C31   C33   A    
O15   V3    S    
C18   C21   A    
C26   C28   A    
C23   O25   S    
O24   H14   S    
C31   O27   S    
O28   H18   S    
C17   C19   A    
C7    C14   S    
O10   V2    S    
O1    V3    S    
O18   V4    S    
O15   C5    A    
C19   O23   S    
O1    C3    A    
C12   H2    S    
C1    C28   S    
C24   O26   S    
V2    O20   S    
C18   C20   A    
O16   V4    S    
C14   C16   S    
O5    V1    S    
O17   C7    A    
O6    V2    S    
O10   C6    A    
O18   C8    A    
C8    C13   S    
O2    V4    S    
C9    C15   S    
C25   H7    S    
O22   H12   S    
V3    O19   S    
C20   O24   S    
V4    O20   S    
C29   C34   A    
O9    C5    A    
O13   V1    S    
C26   H8    S    
C10   C12   S    
O21   H11   S    
O2    C4    A    
O26   H16   S    
O4    V2    S    
C29   C31   A    
C10   O22   S    
C3    C34   S    
