data_mof_unit_12266.cif
_audit_creation_date              2012-12-10T19:24:33-0500
_audit_creation_method            fapswitch 2.2
_symmetry_space_group_name_H-M    P1
_symmetry_Int_Tables_number       1
_space_group_crystal_system       triclinic
_cell_length_a                    17.736766
_cell_length_b                    16.532468
_cell_length_c                    10.875636
_cell_angle_alpha                 90.029015
_cell_angle_beta                  90.755555
_cell_angle_gamma                 89.91818
_cell_volume                      3188.80920105

loop_
_atom_site_label
_atom_site_type_symbol
_atom_type_description
_atom_site_fract_x
_atom_site_fract_y
_atom_site_fract_z
_atom_type_partial_charge
C1    C     C_R   0.355282 0.499826 0.510575 0.940361
C2    C     C_R   0.644678 0.499719 0.489057 0.933650
C3    C     C_R   0.884427 0.522357 0.504340 -0.241628
C4    C     C_R   0.115385 0.522239 0.493295 -0.253796
C5    C     C_1   0.965922 0.527407 0.501511 0.260634
C6    C     C_1   0.033884 0.527380 0.495993 0.265883
C7    C     C_R   0.559602 0.828473 0.555885 0.198803
C8    C     C_R   0.459224 0.170538 0.409607 0.172402
C9    C     C_R   0.439838 0.828670 0.445684 0.183447
C10   C     C_R   0.541139 0.170849 0.591239 0.256263
C11   C     C_R   0.552984 0.743180 0.567195 -0.005700
C12   C     C_R   0.457707 0.256728 0.414802 0.023419
C13   C     C_R   0.446575 0.743355 0.433884 0.045862
C14   C     C_R   0.542611 0.257022 0.585259 -0.004391
C15   C     C_R   0.499651 0.872983 0.501137 -0.144406
C16   C     C_R   0.500085 0.126688 0.500770 -0.116733
C17   C     C_1   0.499815 0.962613 0.501653 0.227616
C18   C     C_1   0.499963 0.036958 0.501613 0.247573
C19   C     C_R   0.508318 0.500518 0.262239 0.848087
C20   C     C_R   0.491486 0.500550 0.737700 0.851378
C21   C     C_R   0.531657 0.653145 0.116539 -0.120444
C22   C     C_R   0.459632 0.355416 0.890377 -0.173245
C23   C     C_R   0.468342 0.653485 0.883423 -0.131576
C24   C     C_R   0.542071 0.355998 0.109021 -0.171853
C25   C     C_R   0.517296 0.726710 0.058205 -0.046748
C26   C     C_R   0.478101 0.282118 0.947149 -0.031474
C27   C     C_R   0.483112 0.726906 0.942045 -0.044144
C28   C     C_R   0.525872 0.282569 0.050988 -0.016108
C29   C     C_R   0.487738 0.577955 0.937900 0.081443
C30   C     C_R   0.514731 0.429667 0.060079 0.060352
C31   C     C_R   0.511782 0.577884 0.062053 0.067160
C32   C     C_R   0.485507 0.429564 0.939738 0.059241
C33   C     C_R   0.482464 0.502933 0.873222 -0.125334
C34   C     C_R   0.517146 0.502930 0.126675 -0.123093
C35   C     C_R   0.840529 0.584801 0.451444 0.296936
C36   C     C_R   0.149597 0.447947 0.462446 0.290065
C37   C     C_R   0.159135 0.585543 0.543648 0.282673
C38   C     C_R   0.850413 0.448615 0.537944 0.289496
C39   C     C_R   0.763518 0.570735 0.425259 0.212341
C40   C     C_R   0.225566 0.433881 0.496003 0.221982
C41   C     C_R   0.236107 0.571916 0.570567 0.320082
C42   C     C_R   0.774534 0.433990 0.504828 0.228799
C43   C     C_R   0.728322 0.500461 0.471458 -0.332310
C44   C     C_R   0.271562 0.500849 0.527364 -0.358490
Cu1   Cu    Cu3+1 0.500000 0.580420 0.500000 1.011717
Cu2   Cu    Cu3+1 0.500000 0.419580 0.500000 1.021804
H1    H     H_    0.561064 0.656595 0.203197 0.237118
H2    H     H_    0.423838 0.354242 0.809106 0.199464
H3    H     H_    0.439297 0.657452 0.796384 0.213470
H4    H     H_    0.577848 0.355442 0.190367 0.198709
N1    N     N_R   0.500000 0.701220 0.500000 -0.242686
N2    N     N_R   0.500000 0.298780 0.500000 -0.251944
O1    O     O_R   0.391260 0.567930 0.500000 -0.551138
O2    O     O_R   0.608740 0.432070 0.500000 -0.547966
O3    O     O_R   0.608740 0.567930 0.500000 -0.578471
O4    O     O_R   0.391260 0.432070 0.500000 -0.551090
O5    O     O_R   0.500000 0.567910 0.319660 -0.604225
O6    O     O_R   0.500000 0.432090 0.680340 -0.616096
O7    O     O_R   0.500000 0.567910 0.680340 -0.595786
O8    O     O_R   0.500000 0.432090 0.319660 -0.615379
C45   C     C_1   0.560048 0.209495 0.098129 0.372754
N3    N     N_1   0.588484 0.151325 0.135466 -0.215695
C46   C     C_1   0.464302 0.801633 0.879706 0.278915
N4    N     N_1   0.449281 0.861381 0.829614 -0.208986
C47   C     C_1   0.447086 0.208074 0.897808 0.378771
N5    N     N_1   0.421418 0.149003 0.858581 -0.146669
C48   C     C_1   0.536805 0.801155 0.120731 0.343616
N6    N     N_1   0.552399 0.860653 0.171020 -0.215102
S1    S     S_3+6 0.881637 0.681817 0.429086 0.129643
O9    O     O_2   0.927284 0.703093 0.541730 -0.193037
O10   O     O_2   0.932366 0.678146 0.319621 -0.187849
O11   O     O_3   0.817059 0.755037 0.407173 -0.451628
H5    H     H_    0.846611 0.805195 0.395708 0.409678
S2    S     S_3+6 0.100751 0.375324 0.370266 0.121626
O12   O     O_2   0.070106 0.309343 0.449969 -0.142561
O13   O     O_2   0.036860 0.413998 0.299546 -0.267766
O14   O     O_3   0.161038 0.334832 0.269214 -0.447610
H6    H     H_    0.132287 0.291064 0.227801 0.405033
S3    S     S_3+6 0.118266 0.683152 0.561333 0.142830
O15   O     O_2   0.072774 0.702563 0.447717 -0.191698
O16   O     O_2   0.067550 0.682240 0.670937 -0.192275
O17   O     O_3   0.183513 0.755875 0.579907 -0.418885
H7    H     H_    0.154401 0.806352 0.592072 0.402834
S4    S     S_3+6 0.899359 0.377324 0.632517 0.120597
O18   O     O_2   0.929298 0.309588 0.555213 -0.141112
O19   O     O_2   0.963722 0.416653 0.700997 -0.268641
O20   O     O_3   0.839226 0.339277 0.735743 -0.449511
H8    H     H_    0.867916 0.296060 0.778741 0.404769
S5    S     S_3+6 0.719017 0.621336 0.299465 0.082570
O21   O     O_2   0.776267 0.653706 0.211612 -0.140532
O22   O     O_2   0.670835 0.561235 0.231288 -0.323334
O23   O     O_3   0.664829 0.697965 0.348592 -0.513080
H9    H     H_    0.682737 0.709279 0.433207 0.372433
S6    S     S_3+6 0.249079 0.335107 0.551140 0.108783
O24   O     O_2   0.262941 0.278743 0.445675 -0.170939
O25   O     O_2   0.316885 0.335377 0.635345 -0.304065
O26   O     O_3   0.176327 0.298875 0.631817 -0.398941
H10   H     H_    0.167765 0.339498 0.697179 0.359472
S7    S     S_3+6 0.280536 0.625287 0.693336 0.068793
O27   O     O_2   0.223053 0.658688 0.780246 -0.184736
O28   O     O_2   0.329980 0.567427 0.763792 -0.340674
O29   O     O_3   0.332829 0.701203 0.637202 -0.512043
H11   H     H_    0.335061 0.742301 0.703415 0.368999
S8    S     S_3+6 0.751824 0.334591 0.451578 0.107478
O30   O     O_2   0.739495 0.278780 0.558139 -0.170647
O31   O     O_2   0.683483 0.333373 0.368557 -0.304351
O32   O     O_3   0.824558 0.298736 0.370177 -0.399846
H12   H     H_    0.832161 0.339032 0.304115 0.359409
S9    S     S_3+6 0.644256 0.877648 0.604081 0.088515
O33   O     O_2   0.634752 0.909258 0.732300 -0.178009
O34   O     O_2   0.710198 0.820464 0.603931 -0.239859
O35   O     O_3   0.663548 0.954550 0.508544 -0.442116
H13   H     H_    0.668335 0.929181 0.426467 0.358925
S10   S     S_3+6 0.407480 0.118073 0.291772 0.087126
O36   O     O_2   0.330104 0.100182 0.338939 -0.094532
O37   O     O_2   0.399153 0.167794 0.176871 -0.306455
O38   O     O_3   0.449772 0.030775 0.253628 -0.453156
H14   H     H_    0.502728 0.045142 0.236855 0.342859
S11   S     S_3+6 0.355165 0.877254 0.395646 0.101844
O39   O     O_2   0.361484 0.898675 0.262061 -0.155877
O40   O     O_2   0.288986 0.821575 0.409914 -0.209190
O41   O     O_3   0.338736 0.961164 0.478337 -0.434771
H15   H     H_    0.332640 0.941845 0.563840 0.357284
S12   S     S_3+6 0.591573 0.117734 0.709845 0.064326
O42   O     O_2   0.664334 0.086961 0.658587 -0.109969
O43   O     O_2   0.609490 0.170653 0.818689 -0.326426
O44   O     O_3   0.539527 0.039310 0.758576 -0.503186
H16   H     H_    0.555358 0.030254 0.845177 0.403129
C49   C     C_1   0.601577 0.700512 0.652601 0.404726
N7    N     N_1   0.640647 0.666853 0.721735 -0.216011
C50   C     C_1   0.409877 0.300928 0.330218 0.509799
N8    N     N_1   0.371280 0.335950 0.261885 -0.196224
C51   C     C_1   0.397192 0.700786 0.349667 0.460875
N9    N     N_1   0.357497 0.667258 0.281424 -0.223191
C52   C     C_1   0.590674 0.301619 0.668794 0.513253
N10   N     N_1   0.629420 0.337099 0.736274 -0.192453

loop_
_geom_bond_atom_site_label_1
_geom_bond_atom_site_label_2
_ccdc_geom_bond_type
C22   H2    S    
O20   H8    S    
C4    C36   A    
C12   C50   S    
C29   C33   A    
C25   C48   S    
S4    O20   S    
S8    O31   D    
O26   H10   S    
C52   N10   T    
Cu1   Cu2   S    
C19   O5    A    
C7    C11   A    
C37   S3    S    
Cu1   O5    S    
C22   C32   A    
C23   C29   A    
C1    O4    A    
S4    O19   D    
C38   C42   A    
C10   S12   S    
C2    O3    A    
S9    O34   D    
C5    C6    T    
C23   H3    S    
C14   C52   S    
Cu1   N1    S    
Cu2   N2    S    
S1    O10   D    
C1    O1    A    
O35   H13   S    
C9    C13   A    
O29   H11   S    
C13   N1    A    
C14   N2    A    
C3    C38   A    
S2    O14   S    
O32   H12   S    
C41   S7    S    
C23   C27   A    
S5    O22   D    
C8    S10   S    
Cu2   O8    S    
C28   C45   S    
C7    C15   A    
Cu1   O1    S    
C8    C16   A    
Cu2   O6    S    
S1    O9    D    
C11   C49   S    
S8    O30   D    
C12   N2    A    
S10   O36   D    
S11   O40   D    
C24   H4    S    
S2    O12   D    
C30   C34   A    
C48   N6    T    
C36   C40   A    
S4    O18   D    
C4    C6    S    
C10   C14   A    
S9    O35   S    
S3    O16   D    
C39   C43   A    
S6    O26   S    
O14   H6    S    
S3    O15   D    
C20   O7    A    
S1    O11   S    
C35   C39   A    
C21   C31   A    
C1    C44   S    
S7    O27   D    
C3    C35   A    
C2    C43   S    
C8    C12   A    
Cu2   O2    S    
C17   C18   T    
C31   C34   A    
S6    O24   D    
S5    O23   S    
S6    O25   D    
C35   S1    S    
S2    O13   D    
S12   O44   S    
C20   C33   S    
S7    O28   D    
C47   N5    T    
C2    O2    A    
C51   N9    T    
C9    S11   S    
C41   C44   A    
C42   C43   A    
C20   O6    A    
O44   H16   S    
S12   O43   D    
C49   N7    T    
S11   O41   S    
C15   C17   S    
C21   C25   A    
Cu1   O7    S    
C38   S4    S    
C26   C47   S    
C13   C51   S    
C24   C28   A    
C40   S6    S    
O11   H5    S    
C3    C5    S    
C19   C34   S    
C42   S8    S    
S3    O17   S    
S10   O37   D    
S11   O39   D    
C19   O8    A    
C25   C27   A    
C26   C28   A    
C32   C33   A    
C9    C15   A    
C29   C31   A    
C10   C16   A    
O38   H14   S    
C30   C32   A    
O23   H9    S    
S8    O32   S    
C37   C41   A    
C45   N3    T    
C24   C30   A    
S10   O38   S    
C11   N1    A    
C46   N4    T    
C7    S9    S    
C40   C44   A    
S7    O29   S    
C4    C37   A    
Cu1   O3    S    
C16   C18   S    
O17   H7    S    
C22   C26   A    
Cu2   O4    S    
O41   H15   S    
C27   C46   S    
S5    O21   D    
S9    O33   D    
C39   S5    S    
C36   S2    S    
C50   N8    T    
S12   O42   D    
C21   H1    S    
