data_mof_unit_55962.cif
_audit_creation_date              2013-03-05T16:10:14-0500
_audit_creation_method            fapswitch 2.2
_symmetry_space_group_name_H-M    P1
_symmetry_Int_Tables_number       1
_space_group_crystal_system       triclinic
_cell_length_a                    9.838899
_cell_length_b                    10.711082
_cell_length_c                    13.118609
_cell_angle_alpha                 89.845537
_cell_angle_beta                  70.083415
_cell_angle_gamma                 89.974768
_cell_volume                      1299.81464218

loop_
_atom_site_label
_atom_site_type_symbol
_atom_site_description
_atom_site_fract_x
_atom_site_fract_y
_atom_site_fract_z
_atom_type_partial_charge
O1    O     O_R   0.385370 0.683250 0.500010 -0.609762
O2    O     O_R   0.614700 0.683220 0.500010 -0.624787
C1    C     C_R   0.499937 0.740119 0.500199 0.864124
O3    O     O_R   0.328400 0.499990 0.653620 -0.603993
O4    O     O_R   0.557730 0.499960 0.653620 -0.613306
C2    C     C_R   0.420102 0.507716 0.704095 0.861727
Zn1   Zn    Zn3+2 0.346870 0.500020 0.500000 0.964003
Zn2   Zn    Zn3+2 0.653130 0.499980 0.500000 0.955777
O5    O     O_R   0.385300 0.316780 0.499990 -0.626399
O6    O     O_R   0.614630 0.316750 0.499990 -0.624486
O7    O     O_R   0.442270 0.500040 0.346380 -0.624236
O8    O     O_R   0.671600 0.500010 0.346380 -0.618161
C3    C     C_R   0.499860 0.259866 0.500250 0.874342
C4    C     C_R   0.580024 0.500835 0.295522 0.869964
C5    C     C_R   0.782975 0.621947 0.016895 -0.132866
H1    H     H_    0.839528 0.594473 0.159634 0.152200
H2    H     H_    0.886632 0.663952 0.973763 0.191073
C6    C     C_R   0.627880 0.520032 0.178960 -0.053890
C7    C     C_R   0.229513 0.479791 0.882745 -0.170930
C8    C     C_R   0.188122 0.472514 0.994856 -0.149303
C9    C     C_R   0.288020 0.498687 0.045692 -0.174494
C10   C     C_R   0.429907 0.539187 0.984666 0.091759
C11   C     C_R   0.462084 0.566980 0.874401 0.024603
C12   C     C_R   0.541302 0.551567 0.029123 0.038318
C13   C     C_R   0.673147 0.613195 0.970520 0.034400
C14   C     C_R   0.691809 0.662232 0.866887 0.271187
C15   C     C_R   0.587194 0.637381 0.819712 -0.271385
C16   C     C_R   0.526404 0.498634 0.129148 -0.223975
C17   C     C_R   0.758748 0.578522 0.121955 -0.224773
C18   C     C_R   0.368107 0.522773 0.821671 -0.089654
H3    H     H_    0.433574 0.442047 0.171777 0.148327
H4    H     H_    0.154522 0.449012 0.843717 0.159173
H5    H     H_    0.250522 0.489691 0.132872 0.125354
H6    H     H_    0.080346 0.441250 0.042143 0.146837
H7    H     H_    0.602406 0.677721 0.740883 0.201284
C19   C     C_R   0.606612 0.935854 0.527818 -0.182288
H8    H     H_    0.689201 0.886868 0.549636 0.180951
C20   C     C_R   0.606646 0.063808 0.527761 -0.178585
H9    H     H_    0.689298 0.112580 0.549487 0.160720
C21   C     C_R   0.499621 0.127419 0.500709 -0.024710
C22   C     C_R   0.392304 0.064036 0.474073 -0.184357
H10   H     H_    0.309588 0.112942 0.452372 0.158569
C23   C     C_R   0.392332 0.936134 0.474044 -0.159837
H11   H     H_    0.309667 0.887414 0.452290 0.161917
C24   C     C_R   0.499629 0.872519 0.500716 -0.025261
C25   C     C_R   0.896355 0.425290 0.570015 -0.029161
H12   H     H_    0.816531 0.365509 0.625956 0.128295
C26   C     C_R   0.040237 0.425394 0.570064 -0.047362
H13   H     H_    0.069455 0.365781 0.626041 0.123823
N1    N     N_R   0.142790 0.500030 0.500030 -0.077801
C27   C     C_R   0.103544 0.574863 0.430165 -0.042792
H14   H     H_    0.183325 0.634759 0.374301 0.122698
C28   C     C_R   0.959657 0.574765 0.430123 -0.051777
H15   H     H_    0.930391 0.634492 0.374237 0.118974
N2    N     N_R   0.857180 0.499940 0.500010 -0.078025
N3    N     N_R   0.815858 0.735993 0.807838 0.197247
O9    O     O_R   0.874192 0.723673 0.703240 -0.406341
O10   O     O_R   0.854803 0.829571 0.854680 -0.402950

loop_
_geom_bond_atom_site_label_1
_geom_bond_atom_site_label_2
_geom_bond_distance
_ccdc_geom_bond_type
C25   N2    1.366831 A    
O4    Zn2   1.911445 S    
C20   C21   1.397018 A    
C23   H11   1.083792 S    
C16   H3    1.079338 S    
C5    H2    1.081018 S    
C11   C15   1.412371 A    
C22   C23   1.369973 A    
C22   H10   1.083716 S    
C4    C6    1.452610 S    
C7    C8    1.387926 A    
Zn2   O8    1.960833 S    
C8    H6    1.082789 S    
C8    C9    1.391852 A    
C19   C20   1.370519 A    
N1    C27   1.366932 A    
C13   C14   1.408562 A    
C1    C24   1.418181 S    
C19   C24   1.396951 A    
C6    C17   1.397066 A    
O1    Zn1   1.998985 S    
C28   H15   1.082052 S    
C12   C13   1.424111 A    
Zn1   O7    1.911446 S    
C23   C24   1.396757 A    
C14   C15   1.395862 A    
O4    C2    1.291623 A    
O3    Zn1   1.960832 S    
C26   H13   1.082014 S    
C7    H4    1.083380 S    
Zn2   N2    2.007672 S    
C26   N1    1.366183 A    
C19   H8    1.083875 S    
C2    C18   1.459618 S    
O8    C4    1.290951 A    
C5    C17   1.394825 A    
O2    C1    1.282143 A    
C28   N2    1.366175 A    
C20   H9    1.083762 S    
O7    C4    1.290766 A    
C10   C12   1.412446 A    
C5    C13   1.412394 A    
O3    C2    1.291022 A    
C9    H5    1.079522 S    
C27   H14   1.082035 S    
C11   C18   1.412654 A    
C6    C16   1.386331 A    
N3    O9    1.301552 A    
Zn2   O6    1.998987 S    
O1    C1    1.282253 A    
Zn1   O5    1.998616 S    
O5    C3    1.282222 A    
C25   H12   1.081951 S    
C21   C22   1.396843 A    
C3    C21   1.418641 S    
C15   H7    1.081999 S    
H1    C17   1.083250 S    
C9    C10   1.419562 A    
C7    C18   1.402692 A    
C25   C26   1.415856 A    
C10   C11   1.402503 A    
O2    Zn2   1.998616 S    
C12   C16   1.389169 A    
Zn1   N1    2.007788 S    
N3    O10   1.301225 A    
C27   C28   1.415868 A    
O6    C3    1.282320 A    
C14   N3    1.437810 S    
