data_mof_unit_50299.cif
_audit_creation_date              2012-12-10T21:18:24-0500
_audit_creation_method            fapswitch 2.2
_symmetry_space_group_name_H-M    P1
_symmetry_Int_Tables_number       1
_space_group_crystal_system       triclinic
_cell_length_a                    17.68889
_cell_length_b                    16.728913
_cell_length_c                    10.511319
_cell_angle_alpha                 89.802162
_cell_angle_beta                  89.748168
_cell_angle_gamma                 89.731934
_cell_volume                      3110.38403107

loop_
_atom_site_label
_atom_site_type_symbol
_atom_type_description
_atom_site_fract_x
_atom_site_fract_y
_atom_site_fract_z
_atom_type_partial_charge
C1    C     C_R   0.352819 0.500182 0.502600 1.009964
C2    C     C_R   0.646771 0.499858 0.498269 1.049952
C3    C     C_1   0.965813 0.506178 0.492931 0.134665
C4    C     C_1   0.032527 0.506912 0.503495 0.137916
C5    C     C_R   0.473055 0.832740 0.395119 -0.238162
C6    C     C_R   0.517577 0.167220 0.610473 -0.287930
C7    C     C_R   0.527813 0.831986 0.604303 -0.254843
C8    C     C_R   0.482129 0.167823 0.389791 -0.279510
C9    C     C_R   0.473512 0.748511 0.396982 0.152825
C10   C     C_R   0.517240 0.251453 0.608484 0.082556
C11   C     C_R   0.527219 0.747769 0.602496 0.102363
C12   C     C_R   0.482511 0.252038 0.391663 0.075916
C13   C     C_R   0.500360 0.875574 0.499781 0.155672
C14   C     C_R   0.499895 0.124309 0.500132 0.151971
C15   C     C_1   0.500211 0.963372 0.499930 -0.024253
C16   C     C_1   0.500061 0.036512 0.500058 -0.022462
C17   C     C_R   0.500068 0.500180 0.256795 0.907520
C18   C     C_R   0.500071 0.499779 0.743269 0.906769
C19   C     C_3   0.499120 0.576145 0.040037 -0.125306
C20   C     C_3   0.501758 0.423588 0.960193 -0.137288
C21   C     C_3   0.561968 0.538520 0.957060 -0.112658
C22   C     C_3   0.438922 0.461200 0.043160 -0.206313
C23   C     C_3   0.437512 0.536675 0.958390 -0.186797
C24   C     C_3   0.563358 0.463036 0.042007 -0.106393
C25   C     C_3   0.500314 0.499199 0.878021 0.004317
C26   C     C_3   0.500472 0.500583 0.122161 0.006890
C27   C     C_R   0.845962 0.568716 0.438450 0.354349
C28   C     C_R   0.149073 0.431804 0.508704 0.347656
C29   C     C_R   0.151770 0.575986 0.529046 0.352611
C30   C     C_R   0.849749 0.433672 0.524143 0.352000
C31   C     C_R   0.767392 0.563297 0.426793 0.244076
C32   C     C_R   0.227040 0.430086 0.486320 0.317908
C33   C     C_R   0.230136 0.572635 0.545982 0.238023
C34   C     C_R   0.771734 0.435854 0.545159 0.315861
C35   C     C_R   0.729308 0.499811 0.490890 -0.468744
C36   C     C_R   0.269560 0.500935 0.510887 -0.469138
C37   C     C_R   0.886311 0.502925 0.484020 -0.238899
C38   C     C_R   0.112013 0.505148 0.514353 -0.236451
H1    H     H_    0.385998 0.566383 0.921073 0.199069
H2    H     H_    0.614495 0.433258 0.081095 0.165027
H3    H     H_    0.498095 0.638315 0.076695 0.162499
H4    H     H_    0.502857 0.361414 0.923576 0.156534
H5    H     H_    0.611979 0.569836 0.917116 0.159683
H6    H     H_    0.388908 0.429855 0.083004 0.187295
H7    H     H_    0.451413 0.864107 0.312553 0.138531
H8    H     H_    0.531714 0.135913 0.697597 0.149205
H9    H     H_    0.549599 0.862764 0.686775 0.142610
H10   H     H_    0.468000 0.136992 0.302699 0.153475
H11   H     H_    0.451994 0.716227 0.315999 0.105042
H12   H     H_    0.531443 0.283571 0.694076 0.148213
H13   H     H_    0.548861 0.714911 0.683370 0.116837
H14   H     H_    0.468378 0.284590 0.305976 0.156299
N1    N     N_R   0.500000 0.707230 0.500000 -0.065112
N2    N     N_R   0.500000 0.292770 0.500000 -0.076525
O1    O     O_R   0.389110 0.566570 0.499990 -0.567242
O2    O     O_R   0.610890 0.433430 0.500010 -0.552055
O3    O     O_R   0.610890 0.566570 0.500010 -0.578269
O4    O     O_R   0.389110 0.433430 0.499990 -0.540358
O5    O     O_R   0.499980 0.566530 0.313950 -0.621686
O6    O     O_R   0.500020 0.433470 0.686050 -0.630721
O7    O     O_R   0.500020 0.566530 0.686050 -0.630310
O8    O     O_R   0.499980 0.433470 0.313950 -0.645526
Zn1   Zn    Zn3+2 0.500000 0.588860 0.500000 1.051040
Zn2   Zn    Zn3+2 0.500000 0.411140 0.500000 1.045997
O9    O     O_3   0.883829 0.636257 0.397274 -0.588430
C39   C     C_3   0.888424 0.691131 0.499117 0.088556
H15   H     H_    0.941520 0.679642 0.552592 0.172666
H16   H     H_    0.839831 0.687067 0.567183 0.110066
C40   C     C_3   0.889852 0.776052 0.445211 -0.304103
H17   H     H_    0.938722 0.782539 0.379539 0.231025
H18   H     H_    0.837418 0.787341 0.390066 0.261500
C41   C     C_3   0.895295 0.838129 0.550793 -0.959027
H19   H     H_    0.946622 0.827630 0.609065 0.271832
H20   H     H_    0.898545 0.898853 0.508200 0.274555
H21   H     H_    0.844544 0.835248 0.613238 0.269962
O10   O     O_3   0.108384 0.362035 0.525785 -0.585457
C42   C     C_3   0.118382 0.337235 0.653634 0.135377
H22   H     H_    0.101762 0.385775 0.720963 0.130381
H23   H     H_    0.178506 0.320417 0.670808 0.182818
C43   C     C_3   0.069030 0.264644 0.681771 -0.346488
H24   H     H_    0.008644 0.282183 0.673478 0.260074
H25   H     H_    0.081739 0.216666 0.611874 0.240307
C44   C     C_3   0.082673 0.232466 0.815787 -0.900578
H26   H     H_    0.069569 0.279168 0.887567 0.273223
H27   H     H_    0.045472 0.180287 0.833538 0.271343
H28   H     H_    0.142448 0.213000 0.826416 0.272041
O11   O     O_3   0.113290 0.648021 0.536648 -0.587649
C45   C     C_3   0.109933 0.683015 0.413990 0.086658
H29   H     H_    0.056755 0.664020 0.367065 0.171839
H30   H     H_    0.158529 0.665987 0.351144 0.107965
C46   C     C_3   0.109875 0.773938 0.427304 -0.305109
H31   H     H_    0.061188 0.792882 0.487042 0.231741
H32   H     H_    0.162518 0.793039 0.475528 0.265100
C47   C     C_3   0.105268 0.815228 0.297862 -0.948360
H33   H     H_    0.053569 0.796522 0.246575 0.270545
H34   H     H_    0.103269 0.881012 0.311241 0.275611
H35   H     H_    0.155760 0.800061 0.239380 0.272507
O12   O     O_3   0.890895 0.363953 0.542157 -0.585572
C48   C     C_3   0.883657 0.317537 0.430454 0.134817
H36   H     H_    0.902750 0.351814 0.344957 0.132098
H37   H     H_    0.823768 0.299215 0.416964 0.184231
C49   C     C_3   0.932406 0.242305 0.440899 -0.341085
H38   H     H_    0.992848 0.259718 0.442736 0.260592
H39   H     H_    0.918304 0.209851 0.530293 0.239868
C50   C     C_3   0.920071 0.186706 0.328161 -0.914643
H40   H     H_    0.934475 0.217662 0.237635 0.274127
H41   H     H_    0.956970 0.133179 0.337983 0.270577
H42   H     H_    0.860264 0.166861 0.325099 0.269960
S1    S     S_3+6 0.720167 0.632872 0.324633 0.061672
O13   O     O_2   0.774581 0.671223 0.232997 -0.241789
O14   O     O_2   0.661265 0.589831 0.248886 -0.301872
O15   O     O_3   0.677772 0.704884 0.410942 -0.529364
H43   H     H_    0.715230 0.720177 0.476027 0.325577
S2    S     S_3+6 0.266017 0.339954 0.422240 0.036906
O16   O     O_2   0.204607 0.286334 0.373741 -0.259829
O17   O     O_2   0.318361 0.359155 0.313379 -0.331006
O18   O     O_3   0.314001 0.291339 0.536909 -0.564012
H44   H     H_    0.325605 0.238069 0.500719 0.374339
S3    S     S_3+6 0.274041 0.657196 0.618207 0.067555
O19   O     O_2   0.217149 0.707161 0.689288 -0.234894
O20   O     O_2   0.332938 0.629534 0.711201 -0.294675
O21   O     O_3   0.315390 0.714551 0.506427 -0.533832
H45   H     H_    0.283427 0.709341 0.429894 0.320183
S4    S     S_3+6 0.731372 0.360142 0.643873 0.033660
O22   O     O_2   0.791343 0.321299 0.724416 -0.262940
O23   O     O_2   0.672289 0.395621 0.730351 -0.328926
O24   O     O_3   0.691646 0.290378 0.551100 -0.569710
H46   H     H_    0.685397 0.242991 0.606839 0.369308

loop_
_geom_bond_atom_site_label_1
_geom_bond_atom_site_label_2
_ccdc_geom_bond_type
C2    C35   S    
C39   H16   S    
O11   C45   S    
O18   H44   S    
C19   C23   S    
S2    O16   D    
C2    O3    A    
C42   H22   S    
C7    C11   A    
C50   H41   S    
C17   C26   S    
C32   C36   A    
C19   C21   S    
C24   C26   S    
S1    O14   D    
C42   C43   S    
C39   C40   S    
C46   H32   S    
C20   C25   S    
C15   C16   T    
C29   C33   A    
C33   C36   A    
C49   C50   S    
C40   H18   S    
C34   C35   A    
O7    Zn1   S    
C19   C26   S    
O8    Zn2   S    
C21   H5    S    
C22   H6    S    
C48   H36   S    
O1    Zn1   S    
C29   C38   A    
C34   S4    S    
O2    Zn2   S    
C5    C13   A    
C11   N1    A    
C42   H23   S    
C39   H15   S    
C40   H17   S    
C18   C25   S    
C41   H21   S    
O15   H43   S    
C12   H14   S    
O3    Zn1   S    
S3    O20   D    
O4    Zn2   S    
C50   H42   S    
C30   C34   A    
C27   C31   A    
C20   C24   S    
C28   C32   A    
C9    H11   S    
O10   C42   S    
C41   H20   S    
S1    O15   S    
C46   H31   S    
C43   H24   S    
C47   H35   S    
C5    H7    S    
C30   C37   A    
C7    H9    S    
C40   C41   S    
C49   H39   S    
C8    H10   S    
C5    C9    A    
C27   O9    S    
C17   O8    A    
C6    C14   A    
S2    O17   D    
C44   H26   S    
C45   C46   S    
C28   C38   A    
C8    C12   A    
C48   C49   S    
C31   S1    S    
C47   H33   S    
C47   H34   S    
C17   O5    A    
S4    O24   S    
C18   O6    A    
C44   H27   S    
C45   H30   S    
C33   S3    S    
C13   C15   S    
C14   C16   S    
C9    N1    A    
C3    C4    T    
C10   H12   S    
S4    O23   D    
S3    O21   S    
C21   C25   S    
C8    C14   A    
C6    H8    S    
C48   H37   S    
C20   C22   S    
C41   H19   S    
C6    C10   A    
C20   H4    S    
S3    O19   D    
C18   O7    A    
C50   H40   S    
C30   O12   S    
O5    Zn1   S    
O6    Zn2   S    
C1    O1    A    
O9    C39   S    
C2    O2    A    
C1    O4    A    
C46   C47   S    
N1    Zn1   S    
N2    Zn2   S    
C27   C37   A    
C23   H1    S    
C43   C44   S    
C24   H2    S    
C43   H25   S    
C31   C35   A    
C23   C25   S    
C49   H38   S    
C10   N2    A    
C29   O11   S    
S2    O18   S    
C11   H13   S    
C19   H3    S    
C7    C13   A    
C44   H28   S    
C45   H29   S    
C3    C37   S    
O12   C48   S    
C22   C26   S    
C21   C24   S    
S1    O13   D    
C22   C23   S    
C32   S2    S    
O21   H45   S    
C4    C38   S    
C12   N2    A    
O24   H46   S    
C1    C36   S    
S4    O22   D    
C28   O10   S    
