data_mof_unit_50896.cif
_audit_creation_date              2012-12-10T18:43:07-0500
_audit_creation_method            fapswitch 2.2
_symmetry_space_group_name_H-M    P1
_symmetry_Int_Tables_number       1
_space_group_crystal_system       triclinic
_cell_length_a                    10.713597
_cell_length_b                    9.991254
_cell_length_c                    10.617053
_cell_angle_alpha                 92.202816
_cell_angle_beta                  93.800431
_cell_angle_gamma                 89.952139
_cell_volume                      1133.13465675

loop_
_atom_site_label
_atom_site_type_symbol
_atom_type_description
_atom_site_fract_x
_atom_site_fract_y
_atom_site_fract_z
_atom_type_partial_charge
C1    C     C_R   0.260350 0.499888 0.500168 0.924519
C2    C     C_R   0.739663 0.499836 0.499738 0.891770
C3    C     C_R   0.499412 0.497184 0.262671 1.006751
C4    C     C_R   0.493037 0.502817 0.736782 1.020018
C5    C     C_2   0.398892 0.429965 0.924601 0.360133
C6    C     C_2   0.392691 0.447706 0.060707 0.429666
C7    C     C_2   0.472037 0.514098 0.867516 -0.449541
C8    C     C_2   0.496393 0.487745 0.129422 -0.417771
C9    C     C_R   0.063610 0.377501 0.493132 -0.083799
C10   C     C_R   0.935748 0.377490 0.492922 -0.126622
C11   C     C_R   0.872383 0.499647 0.499429 -0.046233
C12   C     C_R   0.127668 0.499667 0.500223 -0.021746
C13   C     C_R   0.936489 0.621703 0.505978 -0.109639
C14   C     C_R   0.064305 0.621675 0.507089 -0.118056
C15   C     C_R   0.579315 0.077136 0.581260 0.334506
C16   C     C_R   0.421699 0.070799 0.418091 0.301640
C17   C     C_R   0.580783 0.933870 0.583196 0.313294
C18   C     C_R   0.419444 0.927456 0.416491 0.206917
H1    H     H_    0.511195 0.603095 0.917573 0.176836
H2    H     H_    0.585286 0.502430 0.088280 0.125890
H3    H     H_    0.111688 0.282218 0.487673 0.202318
H4    H     H_    0.887086 0.282211 0.487402 0.199044
H5    H     H_    0.888488 0.716980 0.510543 0.209548
H6    H     H_    0.112986 0.716825 0.513591 0.172044
N1    N     N_R   0.500000 0.857200 0.500000 -0.233528
N2    N     N_R   0.500000 0.142810 0.500000 -0.198818
O1    O     O_R   0.316770 0.614620 0.499990 -0.606110
O2    O     O_R   0.683230 0.614620 0.500010 -0.594244
O3    O     O_R   0.316800 0.385290 0.500000 -0.585010
O4    O     O_R   0.683200 0.385290 0.500000 -0.602248
O5    O     O_R   0.500000 0.614630 0.319080 -0.565457
O6    O     O_R   0.500000 0.614630 0.680920 -0.571805
O7    O     O_R   0.500030 0.385300 0.319080 -0.566280
O8    O     O_R   0.499970 0.385300 0.680920 -0.533713
Zn1   Zn    Zn3+2 0.500000 0.653120 0.500000 1.085281
Zn2   Zn    Zn3+2 0.500000 0.346880 0.500000 1.101153
Cl1   Cl    Cl    0.308470 0.302221 0.842543 -0.453410
Cl2   Cl    Cl    0.248939 0.420533 0.128486 -0.405372
Cl3   Cl    Cl    0.681886 0.176090 0.683598 -0.431160
Cl4   Cl    Cl    0.325218 0.162313 0.311689 -0.390742
S1    S     S_3+6 0.692453 0.868906 0.699825 0.096265
O9    O     O_2   0.703896 0.721195 0.711841 -0.274498
O10   O     O_2   0.819482 0.920703 0.673303 -0.282945
O11   O     O_3   0.655398 0.933199 0.841368 -0.477238
H7    H     H_    0.732140 0.923846 0.897686 0.402771
S2    S     S_3+6 0.310016 0.853798 0.296795 0.133252
O12   O     O_2   0.353710 0.889697 0.170740 -0.176916
O13   O     O_2   0.287969 0.706372 0.292130 -0.243439
O14   O     O_3   0.169354 0.925506 0.312184 -0.458037
H8    H     H_    0.154409 0.920366 0.402922 0.330761

loop_
_geom_bond_atom_site_label_1
_geom_bond_atom_site_label_2
_ccdc_geom_bond_type
C2    O2    A    
C6    Cl2   S    
C15   C17   A    
C5    Cl1   S    
C11   C13   A    
S1    O9    D    
O8    Zn2   S    
S2    O14   S    
O4    Zn2   S    
C2    O4    A    
C15   Cl3   S    
C1    O3    A    
C17   N1    A    
C16   C18   A    
C4    O6    A    
C13   C14   A    
C10   H4    S    
C3    O5    A    
S1    O10   D    
O3    Zn2   S    
C9    H3    S    
C8    H2    S    
C18   N1    A    
N1    Zn1   S    
C4    C7    S    
C2    C11   S    
C18   S2    S    
N2    Zn2   S    
S1    O11   S    
C12   C14   A    
C3    C8    S    
C7    H1    S    
C4    O8    A    
C16   N2    A    
C5    C6    S    
C9    C12   A    
O5    Zn1   S    
C17   S1    S    
C10   C11   A    
C3    O7    A    
S2    O13   D    
C16   Cl4   S    
O7    Zn2   S    
O11   H7    S    
C13   H5    S    
C1    O1    A    
O14   H8    S    
C9    C10   A    
C14   H6    S    
C5    C7    D    
S2    O12   D    
C15   N2    A    
C6    C8    D    
O1    Zn1   S    
C1    C12   S    
O6    Zn1   S    
O2    Zn1   S    
