data_mof_unit_67426.cif
_audit_creation_date              2013-03-05T15:40:04-0500
_audit_creation_method            fapswitch 2.2
_symmetry_space_group_name_H-M    P1
_symmetry_Int_Tables_number       1
_space_group_crystal_system       triclinic
_cell_length_a                    7.552216
_cell_length_b                    8.685764
_cell_length_c                    11.17474
_cell_angle_alpha                 86.902266
_cell_angle_beta                  72.444686
_cell_angle_gamma                 102.293111
_cell_volume                      677.337606302

loop_
_atom_site_label
_atom_site_type_symbol
_atom_site_description
_atom_site_fract_x
_atom_site_fract_y
_atom_site_fract_z
_atom_type_partial_charge
O1    O     O_R   0.622710 0.286400 0.490790 -0.627973
O2    O     O_R   0.377290 0.713600 0.509210 -0.622584
O3    O     O_R   0.303660 0.256330 0.514730 -0.554543
O4    O     O_R   0.696340 0.743670 0.485270 -0.598827
C1    C     C_R   0.452543 0.200264 0.508782 0.824540
C2    C     C_R   0.547019 0.799588 0.493489 0.827459
O5    O     O_R   0.600900 0.509520 0.671740 -0.624586
O6    O     O_R   0.399100 0.490480 0.328260 -0.587262
O7    O     O_R   0.281840 0.479450 0.695690 -0.514879
O8    O     O_R   0.718160 0.520550 0.304310 -0.513871
C3    C     C_R   0.423051 0.489281 0.741742 0.827212
C4    C     C_R   0.577017 0.511468 0.258408 0.819827
Cu1   Cu    Cu3+1 0.688910 0.517800 0.485820 0.989961
Cu2   Cu    Cu3+1 0.311090 0.482200 0.514180 1.010358
C5    C     C_2   0.384579 0.499513 0.876259 -0.406114
C6    C     C_2   0.615583 0.504395 0.123778 -0.408410
C7    C     C_2   0.505995 0.473157 0.938149 -0.004435
C8    C     C_2   0.489927 0.526807 0.064199 -0.046572
H1    H     H_    0.740541 0.461402 0.078696 0.221189
H2    H     H_    0.262823 0.547160 0.919748 0.214032
C9    C     C_2   0.430798 0.033176 0.536958 -0.224724
C10   C     C_2   0.570194 0.967136 0.469248 -0.223358
N1    N     N_2   0.027170 0.455360 0.535550 -0.198975
N2    N     N_2   0.972830 0.544640 0.464450 -0.194930
C11   C     C_2   0.341264 0.612150 0.122605 0.416077
H3    H     H_    0.384209 0.726051 0.153953 0.075991
O9    O     O_2   0.171952 0.552548 0.141495 -0.516942
C12   C     C_2   0.649776 0.381975 0.883936 0.365783
H4    H     H_    0.602762 0.262916 0.862224 0.034950
O10   O     O_2   0.820318 0.441190 0.860410 -0.542816
C13   C     C_R   0.298070 0.959270 0.665000 0.106737
C14   C     C_R   0.373118 0.929381 0.762372 -0.195028
C15   C     C_R   0.250808 0.873846 0.885601 -0.153466
C16   C     C_R   0.052703 0.844637 0.912461 -0.061268
C17   C     C_R   0.976703 0.873917 0.816365 -0.087193
C18   C     C_R   0.098867 0.933100 0.693531 -0.044520
H5    H     H_    0.526458 0.952960 0.743410 0.124461
H6    H     H_    0.309962 0.854614 0.960373 0.137214
H7    H     H_    0.958333 0.801052 0.007919 0.157779
H8    H     H_    0.823254 0.852986 0.837412 0.124840
H9    H     H_    0.037944 0.959715 0.621152 0.133006
C19   C     C_R   0.720094 0.047014 0.349164 0.125882
C20   C     C_R   0.913606 0.085555 0.342027 -0.046309
C21   C     C_R   0.055538 0.150226 0.226764 -0.064526
C22   C     C_R   0.005117 0.175261 0.118017 -0.044223
C23   C     C_R   0.812735 0.137691 0.124625 -0.151640
C24   C     C_R   0.670278 0.074170 0.239861 -0.196437
H10   H     H_    0.954283 0.064155 0.425293 0.119547
H11   H     H_    0.204643 0.179395 0.221463 0.128742
H12   H     H_    0.115040 0.222848 0.028488 0.145309
H13   H     H_    0.774146 0.156337 0.040198 0.152076
H14   H     H_    0.521785 0.043283 0.243584 0.126054
C25   C     C_2   0.897464 0.320568 0.616316 0.670547
H15   H     H_    0.746678 0.302383 0.643703 0.053430
O11   O     O_2   0.957700 0.226523 0.668354 -0.594936
C26   C     C_2   0.078066 0.703562 0.425043 0.720826
H16   H     H_    0.112915 0.776621 0.492866 -0.001990
O12   O     O_2   0.098186 0.767321 0.320378 -0.600489

loop_
_geom_bond_atom_site_label_1
_geom_bond_atom_site_label_2
_geom_bond_distance
_ccdc_geom_bond_type
Cu2   N1    2.044825 S    
C21   H11   1.082775 S    
O7    Cu2   1.971218 S    
N1    C25   1.417370 S    
C24   H14   1.083462 S    
O3    Cu2   1.950300 S    
C11   O9    1.221088 D    
C9    C13   1.491865 S    
C20   H10   1.082945 S    
C13   C18   1.404922 A    
C17   C18   1.399073 A    
O6    C4    1.302146 A    
N1    N2    1.290990 D    
C14   C15   1.397616 A    
C12   O10   1.221289 D    
C7    C8    1.485897 S    
C1    C9    1.431871 S    
C10   C19   1.487335 S    
C25   H15   1.059878 S    
C21   C22   1.398173 A    
O5    C3    1.302938 A    
O7    C3    1.306328 A    
C18   H9    1.081162 S    
O2    C2    1.293860 A    
C8    C11   1.483448 S    
O8    C4    1.305357 A    
C22   H12   1.081249 S    
C6    H1    1.080470 S    
O1    C1    1.292359 A    
C9    C10   1.354009 D    
C12   H4    1.084932 S    
C26   O12   1.218482 D    
C15   C16   1.397181 A    
C19   C24   1.404619 A    
C25   O11   1.216069 D    
C20   C21   1.398597 A    
C5    H2    1.080365 S    
O2    Cu2   1.958563 S    
O4    C2    1.300617 A    
N2    C26   1.409601 S    
C19   C20   1.404528 A    
C17   H8    1.082866 S    
C16   H7    1.082586 S    
C2    C10   1.429058 S    
C22   C23   1.397740 A    
O5    Cu1   1.973287 S    
O1    Cu1   1.958563 S    
C26   H16   1.071247 S    
C6    C8    1.351861 D    
C16   C17   1.397039 A    
O4    Cu1   1.950299 S    
C5    C7    1.351430 D    
C23   C24   1.398156 A    
C15   H6    1.080518 S    
O6    Cu2   1.973286 S    
C14   H5    1.083618 S    
C11   H3    1.084448 S    
Cu1   Cu2   2.721398 S    
C7    C12   1.481409 S    
C3    C5    1.453922 S    
C23   H13   1.081984 S    
C13   C14   1.405978 A    
C4    C6    1.450957 S    
Cu1   N2    2.044825 S    
O3    C1    1.302845 A    
O8    Cu1   1.971218 S    
