data_mof_unit_56720.cif
_audit_creation_date              2012-10-26T19:41:06-0400
_audit_creation_method            fapswitch 2.2
_symmetry_space_group_name_H-M    P1
_symmetry_Int_Tables_number       1
_space_group_crystal_system       triclinic
_cell_length_a                    11.6587
_cell_length_b                    11.128292
_cell_length_c                    10.096334
_cell_angle_alpha                 113.066412
_cell_angle_beta                  98.117347
_cell_angle_gamma                 93.340788
_cell_volume                      1183.79660812

loop_
_atom_site_label
_atom_site_type_symbol
_atom_type_description
_atom_site_fract_x
_atom_site_fract_y
_atom_site_fract_z
_atom_type_partial_charge
C1    C     C_R   0.490507 0.252934 0.437971 0.532850
C2    C     C_2   0.519401 0.890577 0.600778 0.160572
C3    C     C_2   0.509392 0.069676 0.509953 -0.108187
C4    C     C_2   0.495453 0.930945 0.490970 -0.102171
C5    C     C_2   0.512664 0.510465 0.081818 0.466062
C6    C     C_2   0.487131 0.489567 0.918034 0.466921
C7    C     C_3   0.290376 0.432347 0.831933 0.033977
C8    C     C_3   0.201001 0.329599 0.708125 -0.339352
C9    C     C_3   0.709361 0.568883 0.167725 0.034093
C10   C     C_3   0.798413 0.672356 0.291150 -0.342743
C11   C     C_3   0.709419 0.700998 0.913814 0.087562
C12   C     C_R   0.509698 0.747128 0.562245 0.513622
C13   C     C_3   0.788002 0.817969 0.035354 -0.343408
C14   C     C_3   0.288194 0.303051 0.087250 0.091381
C15   C     C_3   0.205545 0.190649 0.964873 -0.388540
C16   C     C_R   0.284786 0.502025 0.500732 0.518062
C17   C     C_R   0.715237 0.498183 0.499310 0.524357
C18   C     C_1   0.162928 0.502949 0.500910 -0.039478
C19   C     C_1   0.837110 0.497536 0.499135 -0.034131
C20   C     C_1   0.060103 0.501625 0.500395 -0.047790
C21   C     C_1   0.939938 0.499001 0.499626 -0.045643
C22   C     C_2   0.481244 0.109725 0.400447 0.213321
Cu1   Cu    Cu3+1 0.519790 0.521810 0.644910 1.015159
Cu2   Cu    Cu3+1 0.480210 0.478190 0.355090 1.054618
H1    H     H_    0.463987 0.857289 0.381651 0.219262
H2    H     H_    0.735075 0.556083 0.062804 0.123339
H3    H     H_    0.714325 0.471086 0.171811 0.158877
H4    H     H_    0.778804 0.683668 0.399105 0.161428
H5    H     H_    0.887839 0.644509 0.282484 0.097799
H6    H     H_    0.794182 0.770028 0.287307 0.166719
H7    H     H_    0.690773 0.729807 0.821656 0.216934
H8    H     H_    0.759995 0.615399 0.881825 0.111728
H9    H     H_    0.857094 0.783018 0.093594 0.092381
H10   H     H_    0.832863 0.878315 0.987943 0.138476
H11   H     H_    0.736789 0.881866 0.113916 0.242282
H12   H     H_    0.544385 0.143173 0.618492 0.211661
H13   H     H_    0.240664 0.391031 0.122128 0.114150
H14   H     H_    0.306436 0.271612 0.177674 0.215414
H15   H     H_    0.253586 0.126743 0.881993 0.209100
H16   H     H_    0.160235 0.129139 0.010606 0.119107
H17   H     H_    0.136963 0.230423 0.911735 0.109966
H18   H     H_    0.494493 0.890541 0.892455 0.381410
H19   H     H_    0.352731 0.009090 0.017215 0.350514
H20   H     H_    0.286198 0.530428 0.828388 0.148146
H21   H     H_    0.264238 0.445363 0.936657 0.120609
H22   H     H_    0.203049 0.232092 0.712807 0.164519
H23   H     H_    0.112003 0.359170 0.715464 0.097018
H24   H     H_    0.221968 0.316757 0.600321 0.164121
N1    N     N_2   0.450460 0.445430 0.137370 -0.067120
N2    N     N_2   0.549540 0.554570 0.862630 -0.073565
O1    O     O_R   0.510560 0.332330 0.577400 -0.496035
O2    O     O_2   0.480112 0.104077 0.826485 -0.245707
O3    O     O_3   0.574791 0.931718 0.903631 -0.446712
O4    O     O_2   0.513230 0.896393 0.170487 -0.245996
O5    O     O_2   0.312611 0.924823 0.211053 -0.342623
O6    O     O_3   0.412297 0.069276 0.100767 -0.459677
O7    O     O_3   0.402236 0.389557 0.821613 -0.507756
O8    O     O_3   0.597247 0.610808 0.178289 -0.513276
O9    O     O_3   0.605659 0.673240 0.960179 -0.451942
O10   O     O_3   0.392230 0.327928 0.039800 -0.429127
O11   O     O_R   0.489440 0.667670 0.422600 -0.487229
O12   O     O_R   0.477140 0.295500 0.332650 -0.438487
O13   O     O_R   0.522860 0.704500 0.667350 -0.496268
O14   O     O_R   0.353910 0.518430 0.622380 -0.495307
O15   O     O_R   0.646090 0.481570 0.377620 -0.486436
O16   O     O_R   0.320490 0.481600 0.377630 -0.545615
O17   O     O_R   0.679510 0.518400 0.622370 -0.541963
O18   O     O_2   0.683194 0.075569 0.801019 -0.282018
S1    S     S_3+6 0.565152 0.004855 0.786080 0.006612
S2    S     S_3+6 0.428612 0.995210 0.217169 -0.009829

loop_
_geom_bond_atom_site_label_1
_geom_bond_atom_site_label_2
_ccdc_geom_bond_type
C11   H8    S    
C2    C4    D    
Cu1   Cu2   S    
C8    H24   S    
C13   H9    S    
Cu2   O11   S    
C14   H14   S    
C2    S1    S    
C14   O10   S    
C9    C10   S    
C10   H6    S    
Cu1   O1    S    
C10   H5    S    
Cu2   O16   S    
C2    C12   S    
C1    O12   A    
Cu1   O13   S    
C4    H1    S    
C8    H23   S    
C11   H7    S    
C1    C22   S    
C7    H20   S    
C6    N2    D    
C14   H13   S    
Cu2   O12   S    
C12   O11   A    
C1    O1    A    
C6    O7    S    
C5    N1    D    
N1    O10   S    
C3    H12   S    
C11   O9    S    
N2    O9    S    
C7    H21   S    
Cu1   O14   S    
C19   C21   T    
C22   S2    S    
C9    H2    S    
C13   H11   S    
O6    S2    S    
H18   O3    S    
C5    C6    S    
C8    H22   S    
C15   H16   S    
C17   O17   A    
O5    S2    D    
C7    C8    S    
C15   H17   S    
Cu1   O17   S    
C3    C4    S    
H19   O6    S    
C11   C13   S    
C16   O16   A    
C20   C21   S    
C9    H3    S    
C18   C20   T    
C16   C18   S    
C5    O8    S    
C10   H4    S    
Cu2   N1    S    
C12   O13   A    
Cu2   O15   S    
C14   C15   S    
C9    O8    S    
C3    C22   D    
C13   H10   S    
O2    S1    D    
C16   O14   A    
C17   C19   S    
O3    S1    S    
C17   O15   A    
C7    O7    S    
C15   H15   S    
O18   S1    D    
Cu1   N2    S    
O4    S2    D    
