data_mof_unit_19983.cif
_audit_creation_date              2012-12-11T14:49:27-0500
_audit_creation_method            fapswitch 2.2
_symmetry_space_group_name_H-M    P1
_symmetry_Int_Tables_number       1
_space_group_crystal_system       triclinic
_cell_length_a                    16.902246
_cell_length_b                    16.708031
_cell_length_c                    19.624373
_cell_angle_alpha                 116.282371
_cell_angle_beta                  61.975525
_cell_angle_gamma                 100.395672
_cell_volume                      4383.76441602

loop_
_atom_site_label
_atom_site_type_symbol
_atom_type_description
_atom_site_fract_x
_atom_site_fract_y
_atom_site_fract_z
_atom_type_partial_charge
C1    C     C_R   0.035687 0.759600 0.013661 -0.162707
C2    C     C_R   0.251323 0.517973 0.827087 -0.134278
C3    C     C_R   0.180162 0.490499 0.089972 -0.184076
C4    C     C_R   0.764176 0.418852 0.165669 -0.139704
C5    C     C_R   0.001440 0.333444 0.755788 -0.209917
C6    C     C_R   0.254390 0.541199 0.069464 0.002907
C7    C     C_R   0.965828 0.252620 0.756273 0.167507
C8    C     C_R   0.258224 0.459520 0.746820 0.103168
C9    C     C_R   0.020688 0.224331 0.013318 0.045534
C10   C     C_R   0.000223 0.096709 0.661862 0.455021
C11   C     C_R   0.958244 0.177225 0.688595 -0.088802
C12   C     C_R   0.767256 0.438036 0.240945 0.084204
C13   C     C_R   0.908396 0.185846 0.652509 -0.290005
C14   C     C_R   0.901669 0.112988 0.585051 -0.014576
C15   C     C_R   0.951002 0.033556 0.551611 -0.072643
C16   C     C_R   0.801764 0.553925 0.956472 0.493900
C17   C     C_R   0.002960 0.026408 0.588215 -0.001413
C18   C     C_R   0.849269 0.118793 0.548780 0.546093
C19   C     C_R   0.848301 0.045683 0.477540 -0.403332
C20   C     C_R   0.899515 0.968343 0.442618 0.087970
C21   C     C_R   0.951838 0.962575 0.479247 0.066491
C22   C     C_R   0.007951 0.886802 0.441314 0.156395
C23   C     C_R   0.720583 0.543278 0.019438 -0.047169
C24   C     C_R   0.061471 0.881354 0.475674 -0.218793
C25   C     C_R   0.059453 0.951120 0.548613 -0.192889
C26   C     C_R   0.903029 0.897762 0.369078 -0.266817
C27   C     C_R   0.961822 0.825852 0.331297 0.111374
C28   C     C_R   0.955787 0.670721 0.247008 -0.192332
C29   C     C_R   0.012863 0.819026 0.367021 -0.262628
C30   C     C_R   0.341371 0.354106 0.591956 0.460034
C31   C     C_R   0.341853 0.415257 0.670017 -0.058383
C32   C     C_R   0.424738 0.441646 0.672356 -0.322927
C33   C     C_R   0.503742 0.423245 0.597689 0.149512
C34   C     C_R   0.973391 0.756263 0.252561 -0.110545
C35   C     C_R   0.500220 0.376868 0.519345 -0.035259
C36   C     C_R   0.419837 0.339030 0.516068 -0.019488
C37   C     C_R   0.584535 0.458670 0.600345 -0.189046
C38   C     C_R   0.659011 0.456250 0.526439 -0.207684
C39   C     C_R   0.652979 0.418723 0.449542 0.137579
C40   C     C_R   0.738706 0.482180 0.040329 -0.234720
C41   C     C_R   0.575031 0.374949 0.445004 0.065940
C42   C     C_R   0.568870 0.336644 0.367696 0.151945
C43   C     C_R   0.491766 0.291930 0.363461 -0.236151
C44   C     C_R   0.417880 0.292569 0.437064 -0.142117
C45   C     C_R   0.249634 0.569067 0.014158 0.181562
C46   C     C_R   0.719971 0.431669 0.379346 -0.276608
C47   C     C_R   0.708781 0.403833 0.305545 0.105638
C48   C     C_R   0.636311 0.350646 0.298039 -0.263833
C49   C     C_R   0.630922 0.582104 0.055650 0.163049
C50   C     C_R   0.317094 0.564953 0.107389 0.096031
C51   C     C_R   0.398002 0.515360 0.157584 0.158645
C52   C     C_R   0.034683 0.751975 0.171994 0.522998
C53   C     C_R   0.323594 0.511202 0.143054 -0.212349
C54   C     C_R   0.376635 0.634243 0.101179 -0.302318
C55   C     C_R   0.457832 0.629513 0.101035 0.182136
C56   C     C_R   0.934027 0.256035 0.835200 -0.072122
C57   C     C_R   0.470271 0.565952 0.124602 0.060514
C58   C     C_R   0.556808 0.544513 0.102966 -0.275749
C59   C     C_R   0.617270 0.653136 0.042174 -0.133619
C60   C     C_R   0.530403 0.677841 0.066136 -0.233438
C61   C     C_R   0.811549 0.171501 0.140312 0.083430
C62   C     C_R   0.954729 0.862475 0.998053 0.141584
C63   C     C_R   0.888633 0.948340 0.963609 -0.217748
C64   C     C_R   0.842426 0.487716 0.239619 -0.134445
C65   C     C_R   0.928600 0.869397 0.942676 -0.163966
C66   C     C_R   0.943133 0.937411 0.073719 -0.276505
C67   C     C_R   0.172510 0.454523 0.752496 -0.115745
C68   C     C_R   0.902454 0.017800 0.096155 0.074005
C69   C     C_R   0.873528 0.021915 0.040563 0.184511
C70   C     C_R   0.828050 0.098736 0.063420 -0.289072
C71   C     C_R   0.840402 0.169038 0.195195 -0.204793
C72   C     C_R   0.886540 0.092676 0.174233 0.146759
C73   C     C_R   0.959106 0.691715 0.938100 -0.138070
C74   C     C_R   0.984274 0.774833 0.982082 0.033417
C75   C     C_3   0.006572 0.040489 0.746894 0.249828
C76   C     C_3   0.065781 0.031373 0.782345 -0.892193
C77   C     C_3   0.713726 0.192533 0.623396 0.252504
C78   C     C_R   0.046551 0.308048 0.056815 -0.116848
C79   C     C_3   0.667655 0.282065 0.658997 -0.878776
C80   C     C_3   0.254720 0.233673 0.596402 0.228615
C81   C     C_3   0.202252 0.170366 0.549755 -0.825800
C82   C     C_3   0.861364 0.523620 0.815551 0.249061
C83   C     C_3   0.858326 0.552227 0.753258 -0.904045
C84   C     C_3   0.329196 0.416224 0.234455 -0.933230
C85   C     C_3   0.885445 0.156006 0.316126 -0.909161
C86   C     C_3   0.070839 0.902641 0.203489 0.243501
C87   C     C_3   0.133798 0.961137 0.160271 -0.944497
C88   C     C_3   0.278379 0.712258 0.003608 -0.870700
C89   C     C_R   0.968494 0.240144 0.982300 -0.108686
H1    H     H_    0.074629 0.808436 0.041446 0.166319
H2    H     H_    0.722569 0.370510 0.140111 0.086716
H3    H     H_    0.810407 0.050749 0.447727 0.162840
H4    H     H_    0.864062 0.900175 0.339066 0.134524
H5    H     H_    0.057967 0.761530 0.335414 0.138048
H6    H     H_    0.105775 0.823768 0.445472 0.131768
H7    H     H_    0.103810 0.946494 0.572525 0.161562
H8    H     H_    0.428214 0.483295 0.731424 0.144354
H9    H     H_    0.588511 0.493051 0.660138 0.131247
H10   H     H_    0.719235 0.488730 0.530406 0.133365
H11   H     H_    0.776710 0.470090 0.385738 0.122007
H12   H     H_    0.889598 0.210741 0.860643 0.063274
H13   H     H_    0.628264 0.325575 0.240614 0.120693
H14   H     H_    0.486725 0.260774 0.304126 0.132931
H15   H     H_    0.357547 0.261623 0.432372 0.169910
H16   H     H_    0.565893 0.490153 0.114128 0.123557
H17   H     H_    0.673180 0.686931 0.010203 0.167740
H18   H     H_    0.521024 0.728387 0.049879 0.131271
H19   H     H_    0.273844 0.462397 0.154485 0.136695
H20   H     H_    0.365771 0.685107 0.086567 0.146349
H21   H     H_    0.804760 0.102536 0.022053 0.120769
H22   H     H_    0.918335 0.650069 0.298455 0.135961
H23   H     H_    0.151974 0.419157 0.702913 0.165877
H24   H     H_    0.826815 0.227821 0.253566 0.148995
H25   H     H_    0.867593 0.951163 0.920345 0.119070
H26   H     H_    0.937414 0.813120 0.883673 0.116427
H27   H     H_    0.961252 0.930832 0.117028 0.125392
H28   H     H_    0.693938 0.455954 0.085869 0.132704
H29   H     H_    0.873645 0.502146 0.280605 0.085123
H30   H     H_    0.927094 0.679433 0.898623 0.157035
H31   H     H_    0.993375 0.972213 0.707704 0.086019
H32   H     H_    0.941328 0.071983 0.800450 0.073240
H33   H     H_    0.081356 0.098417 0.821218 0.263882
H34   H     H_    0.084547 0.321243 0.091979 0.097909
H35   H     H_    0.030905 0.993732 0.822479 0.214641
H36   H     H_    0.129510 0.994928 0.729608 0.250855
H37   H     H_    0.699097 0.176277 0.677417 0.084450
H38   H     H_    0.685186 0.140929 0.581759 0.095198
H39   H     H_    0.679960 0.299654 0.606530 0.262686
H40   H     H_    0.594260 0.278280 0.695553 0.207720
H41   H     H_    0.694007 0.335057 0.701637 0.252722
H42   H     H_    0.217305 0.246614 0.664643 0.139786
H43   H     H_    0.320364 0.199169 0.569182 0.081111
H44   H     H_    0.239661 0.155018 0.481108 0.232091
H45   H     H_    0.933842 0.190441 0.948955 0.099107
H46   H     H_    0.192622 0.107027 0.557709 0.233649
H47   H     H_    0.135960 0.201423 0.574979 0.258637
H48   H     H_    0.835649 0.454733 0.803411 0.101205
H49   H     H_    0.932500 0.522950 0.803644 0.093139
H50   H     H_    0.884641 0.620326 0.762920 0.247718
H51   H     H_    0.900095 0.504943 0.687369 0.219018
H52   H     H_    0.788192 0.552427 0.762713 0.260704
H53   H     H_    0.441886 0.492405 0.230681 0.167835
H54   H     H_    0.346795 0.383066 0.263907 0.250925
H55   H     H_    0.310625 0.363238 0.185593 0.252201
H56   H     H_    0.304870 0.535043 0.844933 0.124731
H57   H     H_    0.271592 0.463848 0.284519 0.251978
H58   H     H_    0.985350 0.073034 0.200635 0.167872
H59   H     H_    0.908744 0.136632 0.351229 0.259810
H60   H     H_    0.810940 0.159476 0.347899 0.259493
H61   H     H_    0.912155 0.222404 0.318083 0.246321
H62   H     H_    0.076169 0.923231 0.263195 0.142791
H63   H     H_    0.001571 0.914913 0.216391 0.087771
H64   H     H_    0.127827 0.948712 0.102485 0.244475
H65   H     H_    0.116644 0.032621 0.204311 0.220494
H66   H     H_    0.204245 0.946859 0.142426 0.272120
H67   H     H_    0.153579 0.468783 0.140753 0.104989
H68   H     H_    0.377244 0.616825 0.959377 0.153751
H69   H     H_    0.330553 0.746216 0.965592 0.233705
H70   H     H_    0.263416 0.751803 0.071279 0.275674
H71   H     H_    0.217556 0.708936 0.994730 0.277613
H72   H     H_    0.021014 0.356173 0.706491 0.114003
H73   H     H_    0.874639 0.249199 0.677950 0.183813
N1    N     N_R   0.036080 0.671900 0.995420 -0.044977
N2    N     N_R   0.867430 0.509300 0.948100 -0.109724
N3    N     N_R   0.003360 0.617250 0.167070 -0.065553
N4    N     N_R   0.825450 0.461270 0.995400 -0.064691
N5    N     N_R   0.045340 0.665280 0.119770 -0.078121
N6    N     N_R   0.883740 0.497640 0.167070 -0.036055
N7    N     N_R   0.987050 0.628910 0.948110 -0.050250
N8    N     N_R   0.174550 0.538730 0.004600 -0.058502
N9    N     N_2   0.405783 0.463067 0.195946 -0.109659
N10   N     N_2   0.918127 0.089930 0.229334 -0.116631
N11   N     N_2   0.310744 0.623515 0.975115 -0.144867
N12   N     N_R   0.954660 0.334720 0.880230 -0.044574
N13   N     N_R   0.116260 0.502360 0.832930 -0.054755
N14   N     N_R   0.012950 0.371090 0.051890 -0.039560
N15   N     N_R   0.963920 0.328100 0.004580 -0.040534
N16   N     N_R   0.165290 0.545350 0.880240 -0.041986
N17   N     N_R   0.132570 0.490700 0.051900 -0.050161
N18   N     N_R   0.996640 0.382750 0.832930 -0.050583
N19   N     N_R   0.834710 0.454650 0.119760 -0.034733
Ni1   Ni    Ni4+2 0.104370 0.604370 0.000010 0.231632
Ni2   Ni    Ni4+2 0.895630 0.395630 0.999990 0.199280
Ni3   Ni    Ni4+2 0.991920 0.505780 0.891500 0.193342
Ni4   Ni    Ni4+2 0.008080 0.494220 0.108500 0.201498
O1    O     O_3   0.050298 0.092924 0.699865 -0.635087
O2    O     O_3   0.806836 0.198721 0.577450 -0.629167
O3    O     O_3   0.263569 0.314930 0.587900 -0.661994
O4    O     O_3   0.807975 0.584347 0.899075 -0.667520
O5    O     O_3   0.099418 0.812452 0.150645 -0.667088

loop_
_geom_bond_atom_site_label_1
_geom_bond_atom_site_label_2
_ccdc_geom_bond_type
C61   C70   A    
N4    Ni2   S    
C66   C68   A    
C79   H39   S    
C63   C65   A    
C1    H1    S    
C80   H43   S    
C6    C45   A    
C27   C29   A    
C41   C42   A    
C14   C18   A    
C35   C36   A    
C85   H59   S    
C75   C76   S    
C84   N9    S    
C45   N8    A    
C83   H50   S    
C44   H15   S    
N14   Ni4   S    
C39   C41   A    
C16   N2    A    
C2    H56   S    
C7    C11   S    
C26   C27   A    
C50   C54   A    
C66   H27   S    
C73   H30   S    
C1    C74   A    
C72   N10   S    
C22   C29   A    
C56   H12   S    
C82   H48   S    
C45   N11   S    
C52   N5    A    
C29   H5    S    
C12   C64   A    
C23   C49   S    
N5    Ni1   S    
C84   H55   S    
C10   C17   A    
C23   C40   A    
C79   H40   S    
C18   O2    S    
C64   H29   S    
C32   H8    S    
C71   H24   S    
C18   C19   A    
C73   C74   A    
C88   H70   S    
C3    N17   A    
C85   H61   S    
C37   H9    S    
C19   H3    S    
C70   H21   S    
C13   C14   A    
C10   O1    S    
C46   C47   A    
C63   H25   S    
C63   C69   A    
C67   N13   A    
C68   C69   A    
C87   H64   S    
C51   C57   A    
C88   H69   S    
C4    N19   A    
C4    C12   A    
C40   N4    A    
C77   H38   S    
C4    H2    S    
C61   C71   A    
C26   H4    S    
N19   Ni2   S    
C40   H28   S    
C28   C34   A    
C59   C60   A    
C27   C34   S    
C80   H42   S    
C55   C60   A    
N8    Ni1   S    
N1    Ni1   S    
C78   N14   A    
C76   H36   S    
C65   H26   S    
N3    N5    A    
C7    C56   A    
C12   C47   S    
N1    N7    A    
C83   H51   S    
C81   H46   S    
N13   N16   A    
C57   C58   A    
C77   C79   S    
C28   H22   S    
C86   O5    S    
C85   N10   S    
C30   O3    S    
C62   C66   A    
C50   C53   A    
C13   H73   S    
C24   C25   A    
C16   O4    S    
C24   H6    S    
C9    C89   A    
C5    C7    A    
C86   C87   S    
C38   H10   S    
C42   C48   A    
C84   H54   S    
N15   Ni2   S    
C79   H41   S    
C33   C37   A    
C49   C58   A    
C54   H20   S    
C56   N12   A    
C51   C53   A    
C76   H35   S    
C43   C44   A    
N7    Ni3   S    
C37   C38   A    
N2    Ni3   S    
C86   H63   S    
C47   C48   A    
C30   C31   A    
C68   C72   A    
C48   H13   S    
C80   O3    S    
C87   H65   S    
C52   O5    S    
C6    C50   S    
C78   H34   S    
N16   Ni1   S    
C60   H18   S    
C28   N3    A    
C8    C67   A    
C39   C46   A    
N14   N15   A    
C82   C83   S    
C16   C23   A    
C89   N15   A    
C55   C57   A    
C82   O4    S    
C77   O2    S    
C87   H66   S    
C36   C44   A    
C75   O1    S    
C42   C43   A    
C73   N7    A    
N12   N18   A    
H58   N10   S    
C81   H47   S    
C83   H52   S    
C15   C17   A    
C46   H11   S    
C54   C55   A    
N6    Ni4   S    
C62   C65   A    
N3    Ni4   S    
C75   H32   S    
C8    C31   S    
C31   C32   A    
C2    C8    A    
C75   H31   S    
C80   C81   S    
N12   Ni2   S    
C81   H44   S    
N17   Ni4   S    
C84   H57   S    
C85   H60   S    
C5    N18   A    
C34   C52   A    
C49   C59   A    
C30   C36   A    
N8    N17   A    
C58   H16   S    
C17   C25   A    
C32   C33   A    
C19   C20   A    
C51   N9    S    
C76   H33   S    
C71   C72   A    
C64   N6    A    
C86   H62   S    
C11   C13   A    
C53   H19   S    
C59   H17   S    
C38   C39   A    
C20   C26   A    
N2    N4    A    
C3    H67   S    
C33   C35   A    
C22   C24   A    
C9    C78   A    
C88   H71   S    
C69   C70   A    
C35   C41   A    
C43   H14   S    
C89   H45   S    
C10   C11   A    
C88   N11   S    
C67   H23   S    
C15   C21   A    
C20   C21   A    
C1    N1    A    
C25   H7    S    
C82   H49   S    
N6    N19   A    
C3    C6    A    
H68   N11   S    
C14   C15   A    
C62   C74   S    
C2    N16   A    
C21   C22   A    
C77   H37   S    
N18   Ni3   S    
C5    H72   S    
H53   N9    S    
N13   Ni3   S    
