data_mof_unit_17638.cif
_audit_creation_date              2012-12-11T16:45:53-0500
_audit_creation_method            fapswitch 2.2
_symmetry_space_group_name_H-M    P1
_symmetry_Int_Tables_number       1
_space_group_crystal_system       triclinic
_cell_length_a                    19.941139
_cell_length_b                    17.100749
_cell_length_c                    15.35593
_cell_angle_alpha                 90.107767
_cell_angle_beta                  52.650306
_cell_angle_gamma                 89.713049
_cell_volume                      4162.6122096

loop_
_atom_site_label
_atom_site_type_symbol
_atom_type_description
_atom_site_fract_x
_atom_site_fract_y
_atom_site_fract_z
_atom_type_partial_charge
C1    C     C_R   0.877340 0.694805 0.990130 -0.213917
C2    C     C_R   0.209227 0.345700 0.982744 -0.021607
C3    C     C_3   0.103182 0.117925 0.956704 -0.966803
C4    C     C_3   0.383732 0.687653 0.007478 0.258587
C5    C     C_3   0.391406 0.616337 0.060290 -1.013055
C6    C     C_3   0.617548 0.691271 0.999159 0.258357
C7    C     C_3   0.603081 0.617928 0.956829 -0.967145
C8    C     C_3   0.830527 0.568805 0.784226 0.229866
C9    C     C_3   0.855814 0.510609 0.693679 -0.891544
C10   C     C_3   0.167376 0.569961 0.218271 0.239812
C11   C     C_3   0.141985 0.510092 0.306451 -0.943077
C12   C     C_3   0.330581 0.068819 0.784164 0.229791
C13   C     C_R   0.294203 0.843037 0.010768 -0.017853
C14   C     C_3   0.355906 0.010654 0.693574 -0.891200
C15   C     C_3   0.667574 0.069896 0.218029 0.239719
C16   C     C_3   0.642211 0.010090 0.306265 -0.943331
C17   C     C_R   0.709215 0.845686 0.982758 -0.021655
C18   C     C_R   0.806685 0.637509 0.323027 0.037370
C19   C     C_R   0.190605 0.636800 0.676756 0.029643
C20   C     C_R   0.306694 0.137552 0.323039 0.037370
C21   C     C_R   0.690591 0.136870 0.676736 0.029696
C22   C     C_R   0.698454 0.633653 0.526563 0.106515
C23   C     C_R   0.261939 0.653513 0.482241 0.045930
C24   C     C_R   0.198327 0.133643 0.526574 0.106433
C25   C     C_R   0.123046 0.694377 0.008946 -0.215252
C26   C     C_R   0.762380 0.153295 0.482032 0.046533
C27   C     C_R   0.726775 0.663801 0.424578 0.076360
C28   C     C_R   0.261710 0.666138 0.572396 0.107684
C29   C     C_R   0.226752 0.163846 0.424573 0.076266
C30   C     C_R   0.761845 0.166138 0.572387 0.107605
C31   C     C_R   0.185593 0.231196 0.424792 -0.208037
C32   C     C_R   0.820185 0.218191 0.563422 -0.191132
C33   C     C_R   0.685589 0.731134 0.424813 -0.208067
C34   C     C_R   0.320181 0.718069 0.563303 -0.191298
C35   C     C_R   0.136543 0.277690 0.519515 -0.176427
C36   C     C_R   0.377339 0.194807 0.990134 -0.213912
C37   C     C_R   0.869737 0.264806 0.469818 -0.186913
C38   C     C_R   0.636630 0.777676 0.519495 -0.176541
C39   C     C_R   0.369612 0.764762 0.469775 -0.187027
C40   C     C_R   0.128527 0.256858 0.614180 0.041692
C41   C     C_R   0.859395 0.259142 0.387340 0.092887
C42   C     C_R   0.628727 0.756895 0.614096 0.041730
C43   C     C_R   0.358981 0.759309 0.387550 0.093378
C44   C     C_R   0.651914 0.680618 0.618984 -0.078124
C45   C     C_R   0.307553 0.701602 0.393510 -0.031241
C46   C     C_R   0.151695 0.180560 0.619046 -0.078127
C47   C     C_R   0.623055 0.194373 0.008929 -0.215370
C48   C     C_R   0.808160 0.201268 0.393168 -0.031216
C49   C     C_3   0.692199 0.644204 0.666273 0.455333
C50   C     C_3   0.236393 0.712626 0.386377 0.487124
C51   C     C_3   0.191898 0.144080 0.666416 0.454914
C52   C     C_3   0.737189 0.212112 0.385642 0.487930
C53   C     C_R   0.899958 0.302699 0.208074 -0.145898
C54   C     C_R   0.098813 0.301763 0.791798 -0.044241
C55   C     C_R   0.399832 0.802731 0.208154 -0.148555
C56   C     C_R   0.598941 0.801786 0.791731 -0.043745
C57   C     C_3   0.742273 0.592084 0.565825 -0.677554
C58   C     C_R   0.888321 0.317410 0.304150 0.052192
C59   C     C_3   0.187842 0.655521 0.479358 -0.573473
C60   C     C_3   0.242061 0.092024 0.565915 -0.677116
C61   C     C_3   0.688467 0.155154 0.478769 -0.575258
C62   C     C_2   0.685357 0.243217 0.097682 -0.170366
C63   C     C_2   0.318148 0.244622 0.897283 -0.158093
C64   C     C_2   0.185312 0.743238 0.097758 -0.170284
C65   C     C_2   0.818138 0.744612 0.897290 -0.157762
C66   C     C_2   0.223307 0.803234 0.028016 -0.191416
C67   C     C_2   0.780660 0.806026 0.965443 -0.191414
C68   C     C_2   0.723372 0.303191 0.027912 -0.191628
C69   C     C_R   0.110190 0.315862 0.695271 -0.011198
C70   C     C_2   0.280686 0.306050 0.965411 -0.191375
C71   C     C_R   0.833785 0.407971 0.944436 -0.248894
C72   C     C_R   0.168279 0.409936 0.051314 -0.256347
C73   C     C_R   0.333765 0.907991 0.944473 -0.249186
C74   C     C_R   0.668269 0.909919 0.051331 -0.256338
C75   C     C_R   0.856971 0.577129 0.313800 -0.100234
C76   C     C_R   0.141108 0.576858 0.685811 -0.096795
C77   C     C_R   0.356980 0.077166 0.313819 -0.100594
C78   C     C_R   0.641095 0.076913 0.685786 -0.096621
C79   C     C_R   0.845299 0.315964 0.037042 0.497947
C80   C     C_R   0.388065 0.817500 0.304291 0.051495
C81   C     C_R   0.157640 0.317868 0.957576 0.533030
C82   C     C_R   0.345265 0.815990 0.037088 0.497809
C83   C     C_R   0.657633 0.817859 0.957584 0.533201
C84   C     C_R   0.849925 0.671380 0.219902 -0.128348
C85   C     C_R   0.149618 0.670984 0.779535 -0.118383
C86   C     C_R   0.349937 0.171400 0.219899 -0.128301
C87   C     C_R   0.649597 0.171017 0.779538 -0.118475
C88   C     C_R   0.906530 0.394588 0.304628 -0.116390
C89   C     C_R   0.093291 0.394263 0.695554 -0.143495
C90   C     C_R   0.406400 0.894638 0.304707 -0.116714
C91   C     C_R   0.610387 0.815904 0.695165 -0.010731
C92   C     C_R   0.593391 0.894285 0.695496 -0.143696
C93   C     C_R   0.872242 0.604933 0.888653 0.494277
C94   C     C_R   0.127843 0.604971 0.111035 0.494051
C95   C     C_R   0.372251 0.104939 0.888644 0.494246
C96   C     C_R   0.627887 0.104962 0.110985 0.494141
C97   C     C_R   0.853574 0.682962 0.924076 -0.014581
C98   C     C_R   0.147363 0.682436 0.074287 -0.005133
C99   C     C_R   0.353579 0.182968 0.924075 -0.014489
C100  C     C_R   0.647399 0.182424 0.074235 -0.004961
C101  C     C_3   0.798562 0.743985 0.594917 0.336858
C102  C     C_R   0.794247 0.342999 0.010696 -0.018316
C103  C     C_3   0.887029 0.730966 0.560254 -0.950552
C104  C     C_3   0.182759 0.822321 0.355284 0.287423
C105  C     C_3   0.096615 0.795987 0.391713 -0.999352
C106  C     C_3   0.298046 0.244013 0.595433 0.337034
C107  C     C_3   0.386480 0.231364 0.560915 -0.951379
C108  C     C_3   0.682050 0.320939 0.355361 0.286447
C109  C     C_3   0.595857 0.293445 0.393398 -1.000326
C110  C     C_3   0.883771 0.187621 0.007246 0.258684
C111  C     C_3   0.891614 0.116291 0.059881 -1.013231
C112  C     C_3   0.117641 0.191255 0.999062 0.258542
H1    H     H_    0.886452 0.750387 0.015023 0.123156
H2    H     H_    0.251577 0.690669 0.307816 0.032723
H3    H     H_    0.124486 0.454156 0.288424 0.254988
H4    H     H_    0.195510 0.499138 0.309415 0.209676
H5    H     H_    0.087209 0.532338 0.387677 0.263796
H6    H     H_    0.313190 0.123996 0.764903 0.179756
H7    H     H_    0.274595 0.045549 0.863029 0.061786
H8    H     H_    0.374651 0.953915 0.708353 0.244085
H9    H     H_    0.301938 0.000992 0.691318 0.219499
H10   H     H_    0.409833 0.033715 0.613028 0.259634
H11   H     H_    0.682366 0.124734 0.241224 0.113657
H12   H     H_    0.725078 0.047776 0.138778 0.072562
H13   H     H_    0.145304 0.110057 0.740907 0.055258
H14   H     H_    0.624566 0.954165 0.288416 0.255101
H15   H     H_    0.695801 0.999081 0.309079 0.209685
H16   H     H_    0.587538 0.032425 0.387504 0.263775
H17   H     H_    0.752672 0.190041 0.306967 0.032835
H18   H     H_    0.811187 0.601721 0.515807 0.216770
H19   H     H_    0.129555 0.680980 0.554609 0.241749
H20   H     H_    0.310966 0.101697 0.516015 0.216784
H21   H     H_    0.630099 0.180700 0.553813 0.241875
H22   H     H_    0.723626 0.529660 0.584651 0.184381
H23   H     H_    0.178459 0.598352 0.453722 0.154301
H24   H     H_    0.223435 0.029589 0.584635 0.184370
H25   H     H_    0.114370 0.749874 0.983359 0.122872
H26   H     H_    0.679179 0.097911 0.453193 0.154436
H27   H     H_    0.212768 0.816475 0.968221 0.136894
H28   H     H_    0.791015 0.819924 0.025280 0.136125
H29   H     H_    0.712854 0.316418 0.968093 0.136980
H30   H     H_    0.291064 0.319967 0.025222 0.136126
H31   H     H_    0.814432 0.440104 0.903146 0.151122
H32   H     H_    0.188177 0.442974 0.091348 0.151554
H33   H     H_    0.314412 0.940126 0.903183 0.151123
H34   H     H_    0.688151 0.942925 0.091398 0.151620
H35   H     H_    0.829369 0.719731 0.196218 0.095822
H36   H     H_    0.386450 0.250387 0.015032 0.123134
H37   H     H_    0.170066 0.720684 0.801169 0.098735
H38   H     H_    0.329386 0.219744 0.196201 0.095798
H39   H     H_    0.670048 0.220695 0.801203 0.098682
H40   H     H_    0.199557 0.253737 0.349685 0.123284
H41   H     H_    0.821888 0.227792 0.631777 0.122426
H42   H     H_    0.699478 0.753627 0.349726 0.123302
H43   H     H_    0.322100 0.727495 0.631511 0.122502
H44   H     H_    0.779657 0.805248 0.624464 0.116979
H45   H     H_    0.801032 0.738155 0.521046 0.091117
H46   H     H_    0.906964 0.669136 0.535455 0.266128
H47   H     H_    0.614368 0.249873 0.983358 0.122894
H48   H     H_    0.930728 0.769018 0.489334 0.232218
H49   H     H_    0.889659 0.745981 0.628501 0.261982
H50   H     H_    0.231768 0.810198 0.267035 0.120570
H51   H     H_    0.180802 0.886861 0.364905 0.126919
H52   H     H_    0.048373 0.812057 0.479160 0.280288
H53   H     H_    0.081053 0.825318 0.341468 0.232168
H54   H     H_    0.096129 0.731701 0.381939 0.265940
H55   H     H_    0.278872 0.305190 0.625183 0.117209
H56   H     H_    0.300691 0.238184 0.521440 0.091154
H57   H     H_    0.406850 0.169697 0.535503 0.266427
H58   H     H_    0.114472 0.333724 0.513258 0.124966
H59   H     H_    0.429910 0.269849 0.490463 0.232050
H60   H     H_    0.388892 0.246126 0.629399 0.262005
H61   H     H_    0.730526 0.308916 0.266989 0.120815
H62   H     H_    0.679380 0.385509 0.364895 0.127291
H63   H     H_    0.548191 0.309117 0.481117 0.280922
H64   H     H_    0.578964 0.322354 0.344343 0.232255
H65   H     H_    0.596088 0.229128 0.383359 0.266231
H66   H     H_    0.694355 0.233022 0.159136 0.174119
H67   H     H_    0.309507 0.234242 0.835466 0.181993
H68   H     H_    0.194319 0.733042 0.159210 0.174477
H69   H     H_    0.909797 0.309155 0.466451 0.122781
H70   H     H_    0.809522 0.734249 0.835441 0.182130
H71   H     H_    0.904493 0.245628 0.175531 0.148956
H72   H     H_    0.090946 0.245238 0.827147 0.151814
H73   H     H_    0.404317 0.745643 0.175689 0.149852
H74   H     H_    0.591078 0.745250 0.827056 0.151633
H75   H     H_    0.841347 0.534224 0.374158 0.116802
H76   H     H_    0.154090 0.537922 0.621790 0.108969
H77   H     H_    0.341359 0.034285 0.374199 0.116700
H78   H     H_    0.654102 0.037960 0.621770 0.109024
H79   H     H_    0.948503 0.206670 0.938667 0.080748
H80   H     H_    0.614531 0.833694 0.513246 0.124984
H81   H     H_    0.849596 0.170421 0.973906 0.108507
H82   H     H_    0.829459 0.098535 0.133636 0.251223
H83   H     H_    0.921055 0.066859 0.000531 0.232943
H84   H     H_    0.930107 0.129966 0.087524 0.259064
H85   H     H_    0.054672 0.213980 0.069271 0.078082
H86   H     H_    0.154650 0.175112 0.028822 0.099556
H87   H     H_    0.163216 0.094277 0.884179 0.260641
H88   H     H_    0.071761 0.072728 0.021575 0.221114
H89   H     H_    0.063479 0.132070 0.930958 0.252245
H90   H     H_    0.448511 0.706674 0.939005 0.080756
H91   H     H_    0.409847 0.808979 0.466260 0.122841
H92   H     H_    0.349675 0.670450 0.973974 0.108457
H93   H     H_    0.329211 0.598770 0.134150 0.251373
H94   H     H_    0.420667 0.566809 0.001091 0.232908
H95   H     H_    0.430002 0.629936 0.087802 0.258975
H96   H     H_    0.554578 0.714035 0.069315 0.078380
H97   H     H_    0.654513 0.675131 0.028986 0.099630
H98   H     H_    0.663119 0.594257 0.884334 0.260522
H99   H     H_    0.571641 0.572751 0.021726 0.221226
H100  H     H_    0.563388 0.632059 0.931058 0.252194
H101  H     H_    0.914597 0.422413 0.361009 0.103793
H102  H     H_    0.645639 0.610223 0.740828 0.055256
H103  H     H_    0.082777 0.422630 0.641930 0.111295
H104  H     H_    0.414429 0.922455 0.361127 0.103940
H105  H     H_    0.582882 0.922635 0.641856 0.111286
H106  H     H_    0.813149 0.623980 0.764941 0.179794
H107  H     H_    0.774539 0.545561 0.863114 0.061787
H108  H     H_    0.874507 0.453860 0.708508 0.244096
H109  H     H_    0.801846 0.500981 0.691419 0.219465
H110  H     H_    0.909768 0.533621 0.613117 0.259626
H111  H     H_    0.182029 0.624805 0.241637 0.113632
H112  H     H_    0.224954 0.547907 0.139038 0.072620
N1    N     N_R   0.908660 0.628630 0.995840 -0.068791
N2    N     N_R   0.096530 0.421430 0.063580 -0.062503
N3    N     N_R   0.403470 0.921430 0.936420 -0.060690
N4    N     N_R   0.596530 0.921430 0.063580 -0.062419
N5    N     N_R   0.927500 0.575670 0.211370 -0.030722
N6    N     N_R   0.072500 0.575670 0.788630 -0.030378
N7    N     N_R   0.427500 0.075670 0.211370 -0.030718
N8    N     N_R   0.572500 0.075670 0.788630 -0.030368
N9    N     N_R   0.908660 0.365680 0.995820 -0.100033
N10   N     N_R   0.091340 0.365680 0.004180 -0.106249
N11   N     N_R   0.408660 0.865680 0.995820 -0.100134
N12   N     N_R   0.091340 0.628630 0.004160 -0.068599
N13   N     N_R   0.591340 0.865680 0.004180 -0.106163
N14   N     N_R   0.922310 0.631420 0.151980 -0.039430
N15   N     N_R   0.077690 0.631420 0.848020 -0.040229
N16   N     N_R   0.422310 0.131420 0.151980 -0.039428
N17   N     N_R   0.577690 0.131420 0.848020 -0.040212
N18   N     N_R   0.927500 0.426330 0.211360 -0.047083
N19   N     N_R   0.072500 0.426330 0.788640 -0.044659
N20   N     N_R   0.427500 0.926330 0.211360 -0.047033
N21   N     N_R   0.572500 0.926330 0.788640 -0.044651
N22   N     N_R   0.903470 0.570760 0.936440 -0.079060
N23   N     N_R   0.408660 0.128630 0.995840 -0.068804
N24   N     N_R   0.096530 0.570760 0.063560 -0.078375
N25   N     N_R   0.403470 0.070760 0.936440 -0.079054
N26   N     N_R   0.596530 0.070760 0.063560 -0.078407
N27   N     N_R   0.591340 0.128630 0.004160 -0.068599
N28   N     N_R   0.922310 0.368460 0.151950 -0.050815
N29   N     N_R   0.077690 0.368460 0.848050 -0.059760
N30   N     N_R   0.422310 0.868460 0.151950 -0.050774
N31   N     N_R   0.577690 0.868460 0.848050 -0.059833
N32   N     N_R   0.903470 0.421430 0.936420 -0.060688
Ni1   Ni    Ni4+2 0.000000 0.630300 0.000000 0.201968
Ni2   Ni    Ni4+2 0.500000 0.130300 0.000000 0.201929
Ni3   Ni    Ni4+2 0.000000 0.369700 0.000000 0.209761
Ni4   Ni    Ni4+2 0.500000 0.869700 0.000000 0.209625
Ni5   Ni    Ni4+2 0.988090 0.497570 0.863760 0.245906
Ni6   Ni    Ni4+2 0.011910 0.497570 0.136240 0.244813
Ni7   Ni    Ni4+2 0.488090 0.997570 0.863760 0.245893
Ni8   Ni    Ni4+2 0.511910 0.997570 0.136240 0.244823
O1    O     O_3   0.741879 0.692926 0.682422 -0.604030
O2    O     O_3   0.099243 0.582533 0.214791 -0.631749
O3    O     O_3   0.399681 0.080849 0.785679 -0.637120
O4    O     O_3   0.599371 0.082511 0.214702 -0.631656
O5    O     O_3   0.201674 0.789083 0.422120 -0.609877
O6    O     O_3   0.241555 0.192718 0.682691 -0.603900
O7    O     O_3   0.702552 0.288624 0.420969 -0.609936
O8    O     O_3   0.838502 0.246639 0.087361 -0.690418
O9    O     O_3   0.162499 0.245974 0.913284 -0.637052
O10   O     O_3   0.338392 0.746703 0.087519 -0.690328
O11   O     O_3   0.662473 0.745950 0.913337 -0.637148
O12   O     O_3   0.899646 0.580829 0.785705 -0.637112

loop_
_geom_bond_atom_site_label_1
_geom_bond_atom_site_label_2
_ccdc_geom_bond_type
C44   C49   S    
C96   O4    S    
C110  O8    S    
N7    Ni8   S    
C83   N13   A    
C18   C75   A    
C23   C45   A    
N8    Ni7   S    
C90   N20   A    
C87   H39   S    
C81   O9    S    
N12   N24   A    
C78   H78   S    
C96   N26   A    
C36   N23   A    
C95   N25   A    
C22   C57   S    
C21   C87   A    
C7    H100  S    
C109  H64   S    
C63   H67   S    
N9    Ni3   S    
C6    H97   S    
C107  H59   S    
N5    Ni6   S    
C105  H54   S    
C32   H41   S    
C23   C59   S    
N21   N31   A    
C59   H19   S    
N12   Ni1   S    
C15   H11   S    
C20   C77   A    
C14   H10   S    
C50   C59   S    
C19   C76   A    
C82   O10   S    
C26   C61   S    
C68   C102  S    
C41   C58   S    
C38   C42   A    
C50   O5    S    
C39   H91   S    
C52   C61   S    
C86   H38   S    
N27   Ni2   S    
C88   N18   A    
C64   H68   S    
C95   C99   A    
C61   H26   S    
C4    H92   S    
C52   O7    S    
C106  C107  S    
C94   C98   A    
C78   N8    A    
C15   C16   S    
C110  H79   S    
C47   H47   S    
C49   C57   S    
C108  C109  S    
N14   Ni1   S    
C42   C91   S    
C112  H86   S    
C75   N5    A    
C104  O5    S    
C63   C99   S    
N9    N32   A    
C5    H94   S    
C110  C111  S    
C4    H90   S    
C9    H110  S    
C36   H36   S    
C56   C91   A    
C22   C44   A    
C66   H27   S    
C25   N12   A    
C82   N11   A    
N11   Ni4   S    
C65   C67   D    
C20   C86   A    
C21   C78   A    
C3    H87   S    
C89   N19   A    
C79   C102  A    
N20   Ni8   S    
C77   H77   S    
C11   H3    S    
N2    Ni6   S    
C47   N27   A    
C76   H76   S    
C10   H112  S    
C111  H84   S    
C20   C29   S    
C104  H50   S    
C31   H40   S    
C64   C98   S    
N6    Ni5   S    
C101  H45   S    
C101  C103  S    
C14   H9    S    
N20   N30   A    
N32   Ni5   S    
C80   C90   A    
C60   H20   S    
N6    N15   A    
C1    H1    S    
C104  H51   S    
C2    C72   A    
C13   C82   A    
C90   H104  S    
C104  C105  S    
N15   Ni1   S    
C2    C81   A    
N24   Ni6   S    
C13   C66   S    
N23   N25   A    
N10   Ni3   S    
C94   O2    S    
C75   H75   S    
C17   C67   S    
C103  H49   S    
C40   C69   S    
N3    Ni7   S    
C34   C39   A    
C51   H13   S    
C57   H18   S    
C68   H29   S    
C112  O9    S    
C79   N9    A    
C93   O12   S    
C15   O4    S    
C15   H12   S    
C74   N4    A    
C91   C92   A    
C73   N3    A    
N2    N10   A    
C33   H42   S    
C8    C9    S    
C39   C43   A    
C101  H44   S    
C43   C80   S    
C34   H43   S    
C5    H93   S    
C46   C51   S    
C27   C33   A    
C47   C100  A    
N8    N17   A    
C108  H62   S    
N7    N16   A    
C50   H2    S    
C53   N28   A    
C64   C66   D    
C25   H25   S    
C49   H102  S    
C67   H28   S    
C79   O8    S    
C109  H65   S    
C5    H95   S    
C12   H7    S    
C43   C45   A    
N29   Ni3   S    
C86   N16   A    
C65   H70   S    
C63   C70   D    
N30   Ni4   S    
C3    C112  S    
C24   C60   S    
C37   H69   S    
C108  H61   S    
N13   Ni4   S    
C3    H88   S    
N18   Ni6   S    
C105  H52   S    
C107  H60   S    
C52   H17   S    
C6    O11   S    
C32   C37   A    
N25   Ni7   S    
C24   C29   A    
C19   C28   S    
C16   H16   S    
N26   Ni8   S    
C8    O12   S    
N22   Ni5   S    
C10   H111  S    
C62   C100  S    
C18   C84   A    
C9    H108  S    
C71   C102  A    
C12   C14   S    
C26   C30   A    
C14   H8    S    
C22   C27   A    
C111  H83   S    
C76   N6    A    
C17   C74   A    
C3    H89   S    
C54   N29   A    
C54   H72   S    
C57   H22   S    
C83   O11   S    
C25   C98   A    
C23   C28   A    
C40   C46   A    
C1    C97   A    
N21   Ni7   S    
C93   C97   A    
C112  H85   S    
N23   Ni2   S    
C71   H31   S    
C12   H6    S    
C77   N7    A    
C1    N1    A    
N1    N22   A    
C72   H32   S    
C101  O1    S    
N31   Ni4   S    
C10   O2    S    
N16   Ni2   S    
C13   C73   A    
C6    H96   S    
C74   H34   S    
C108  O7    S    
C84   N14   A    
C18   C27   S    
C110  H81   S    
C88   H101  S    
N17   Ni2   S    
C19   C85   A    
C58   C88   A    
C62   H66   S    
C70   H30   S    
C7    H99   S    
C92   N21   A    
C109  H63   S    
C103  H46   S    
C106  O6    S    
C6    C7    S    
C26   C48   A    
C84   H35   S    
N3    N11   A    
C21   C30   S    
C69   C89   A    
C38   H80   S    
C85   N15   A    
N19   N29   A    
C55   N30   A    
C89   H103  S    
C60   H24   S    
N18   N28   A    
C106  H55   S    
N1    Ni1   S    
C53   H71   S    
C56   H74   S    
N26   N27   A    
C42   C44   A    
C4    O10   S    
N4    N13   A    
C29   C31   A    
C8    H107  S    
C11   H4    S    
C72   N2    A    
C30   C32   A    
C55   C80   A    
C107  H57   S    
C54   C69   A    
C16   H14   S    
C45   C50   S    
C4    C5    S    
C96   C100  A    
C59   H23   S    
C49   O1    S    
C41   C48   A    
C105  H53   S    
C35   C40   A    
C36   C99   A    
C31   C35   A    
C62   C68   D    
C55   H73   S    
C37   C41   A    
C92   H105  S    
C103  H48   S    
C16   H15   S    
C85   H37   S    
C71   N32   A    
C12   O3    S    
C56   N31   A    
C8    H106  S    
C93   N22   A    
C111  H82   S    
C28   C34   A    
C87   N17   A    
C9    H109  S    
C95   O3    S    
C48   C52   S    
C7    H98   S    
C65   C97   S    
C51   O6    S    
C73   H33   S    
C10   C11   S    
C35   H58   S    
C81   N10   A    
C33   C38   A    
C61   H21   S    
C51   C60   S    
N19   Ni5   S    
C17   C83   A    
N5    N14   A    
C2    C70   S    
C94   N24   A    
C53   C58   A    
N4    Ni8   S    
N28   Ni3   S    
C106  H56   S    
C24   C46   A    
C11   H5    S    
