data_mof_unit_35647.cif
_audit_creation_date              2012-12-11T17:39:32-0500
_audit_creation_method            fapswitch 2.2
_symmetry_space_group_name_H-M    P1
_symmetry_Int_Tables_number       1
_space_group_crystal_system       triclinic
_cell_length_a                    15.0846
_cell_length_b                    15.076869
_cell_length_c                    14.924068
_cell_angle_alpha                 108.688439
_cell_angle_beta                  109.84058
_cell_angle_gamma                 110.261314
_cell_volume                      2600.21557019

loop_
_atom_site_label
_atom_site_type_symbol
_atom_type_description
_atom_site_fract_x
_atom_site_fract_y
_atom_site_fract_z
_atom_type_partial_charge
C1    C     C_R   0.910345 0.911240 0.713828 -0.135416
C2    C     C_R   0.909721 0.685497 0.443100 -0.157322
C3    C     C_R   0.697338 0.794885 0.202005 -0.196959
C4    C     C_R   0.092544 0.298111 0.495764 -0.152920
C5    C     C_R   0.302293 0.005889 0.598621 -0.161586
C6    C     C_R   0.630904 0.703697 0.200317 -0.023879
C7    C     C_R   0.364941 0.063812 0.567313 0.059611
C8    C     C_R   0.002589 0.677929 0.461179 0.025646
C9    C     C_R   0.001924 0.945867 0.178324 0.050122
C10   C     C_R   0.484733 0.678206 0.408800 -0.023759
C11   C     C_R   0.505766 0.783728 0.434345 -0.144073
C12   C     C_R   0.002795 0.301530 0.437337 0.054820
C13   C     C_R   0.540803 0.859554 0.541325 0.106066
C14   C     C_R   0.553276 0.827988 0.621750 -0.188114
C15   C     C_R   0.532817 0.722709 0.595961 -0.147519
C16   C     C_R   0.258994 0.221840 0.814355 -0.162107
C17   C     C_R   0.498389 0.647819 0.489554 -0.072384
C18   C     C_R   0.477410 0.985141 0.583433 -0.237452
C19   C     C_R   0.470103 0.076022 0.588313 0.059907
C20   C     C_R   0.552918 0.162912 0.594721 0.027148
C21   C     C_R   0.636150 0.149132 0.583391 -0.242339
C22   C     C_R   0.635002 0.051494 0.565331 0.072413
C23   C     C_R   0.290366 0.324896 0.825992 0.139181
C24   C     C_R   0.555813 0.969287 0.567811 0.020903
C25   C     C_R   0.579855 0.315004 0.550886 -0.154921
C26   C     C_R   0.571183 0.406451 0.559938 -0.117314
C27   C     C_R   0.531772 0.447250 0.625298 -0.086661
C28   C     C_R   0.741735 0.055777 0.466230 -0.137502
C29   C     C_R   0.504170 0.398687 0.684516 -0.093047
C30   C     C_R   0.518621 0.311341 0.680948 -0.145977
C31   C     C_R   0.552290 0.265390 0.610417 0.111355
C32   C     C_R   0.819952 0.121720 0.084175 -0.114850
C33   C     C_R   0.892457 0.218648 0.184589 -0.137281
C34   C     C_R   0.712925 0.033867 0.539223 0.035190
C35   C     C_R   0.855414 0.285715 0.228909 0.121198
C36   C     C_R   0.744654 0.254489 0.169341 -0.175198
C37   C     C_R   0.672714 0.157928 0.068293 -0.114843
C38   C     C_R   0.710196 0.091435 0.026028 -0.091070
C39   C     C_R   0.933148 0.484491 0.348129 -0.246072
C40   C     C_R   0.257173 0.313736 0.722261 -0.131198
C41   C     C_R   0.009498 0.582309 0.447536 0.077828
C42   C     C_R   0.090309 0.587265 0.535275 0.018924
C43   C     C_R   0.090624 0.493799 0.522643 -0.238139
C44   C     C_R   0.010115 0.394832 0.427440 0.059166
C45   C     C_R   0.695323 0.702056 0.291512 0.493437
C46   C     C_R   0.932917 0.388699 0.336199 0.023707
C47   C     C_R   0.282220 0.733475 0.684112 -0.194997
C48   C     C_R   0.356880 0.825205 0.788224 -0.122058
C49   C     C_R   0.319317 0.867440 0.855193 -0.096786
C50   C     C_R   0.206984 0.817730 0.818250 -0.120616
C51   C     C_R   0.132020 0.726290 0.714105 -0.117984
C52   C     C_R   0.751563 0.970036 0.564452 -0.091955
C53   C     C_R   0.169170 0.684379 0.645905 0.113688
C54   C     C_2   0.366997 0.521248 0.935504 -0.128827
C55   C     C_2   0.355280 0.426672 0.929952 -0.218874
C56   C     C_R   0.303749 0.093110 0.503607 -0.137943
C57   C     C_2   0.461424 0.625851 0.030172 -0.126268
C58   C     C_2   0.511457 0.635289 0.128690 -0.174511
C59   C     C_R   0.405846 0.150134 0.091143 -0.111048
C60   C     C_R   0.307161 0.063674 0.061162 -0.186652
C61   C     C_R   0.213063 0.072458 0.034975 0.108716
C62   C     C_R   0.221483 0.172324 0.049202 -0.131835
C63   C     C_R   0.321244 0.259665 0.081906 -0.138063
C64   C     C_R   0.910098 0.210448 0.407622 -0.123266
C65   C     C_R   0.412084 0.246968 0.098703 -0.106509
C66   C     C_R   0.106631 0.959115 0.084917 -0.226588
C67   C     C_R   0.092297 0.780956 0.525214 -0.103199
C68   C     C_R   0.006911 0.903213 0.077664 0.050799
C69   C     C_R   0.911906 0.832018 0.973434 0.023195
C70   C     C_R   0.914003 0.842900 0.884355 -0.239974
C71   C     C_R   0.009510 0.923554 0.899825 0.059632
C72   C     C_R   0.108501 0.979974 0.002014 0.010740
C73   C     C_R   0.824908 0.682632 0.008185 -0.129925
C74   C     C_R   0.733856 0.605501 0.000121 -0.100692
C75   C     C_R   0.630622 0.590207 0.941419 -0.082961
C76   C     C_R   0.091932 0.999710 0.800425 -0.135232
C77   C     C_R   0.617818 0.651397 0.889873 -0.135295
C78   C     C_R   0.909946 0.934401 0.187659 -0.130845
C79   C     C_R   0.708621 0.728160 0.896908 -0.177131
C80   C     C_R   0.813250 0.745230 0.957322 0.122738
C81   C     C_R   0.003828 0.947607 0.810518 0.044846
C82   C     C_3   0.616021 0.535123 0.277698 0.242020
C83   C     C_3   0.611690 0.483823 0.350074 -0.932095
C84   C     C_R   0.092917 0.024060 0.281370 -0.122586
H1    H     H_    0.826871 0.853492 0.685691 0.106061
H2    H     H_    0.456930 0.619657 0.326178 0.116212
H3    H     H_    0.493835 0.806091 0.370912 0.117370
H4    H     H_    0.176755 0.350544 0.520762 0.094632
H5    H     H_    0.578486 0.884910 0.704159 0.112140
H6    H     H_    0.542540 0.698912 0.658205 0.103218
H7    H     H_    0.413359 0.918058 0.577850 0.133083
H8    H     H_    0.700779 0.213094 0.586350 0.129447
H9    H     H_    0.605450 0.281734 0.495375 0.109684
H10   H     H_    0.592996 0.444437 0.514635 0.121875
H11   H     H_    0.522158 0.516100 0.629715 0.094601
H12   H     H_    0.331927 0.147715 0.474186 0.110594
H13   H     H_    0.470481 0.427965 0.732480 0.105393
H14   H     H_    0.498847 0.276702 0.729651 0.115454
H15   H     H_    0.654296 0.016652 0.948012 0.089637
H16   H     H_    0.274303 0.201048 0.878309 0.126211
H17   H     H_    0.849052 0.070350 0.051190 0.114040
H18   H     H_    0.977613 0.241473 0.227522 0.113998
H19   H     H_    0.713630 0.304164 0.201353 0.103398
H20   H     H_    0.587784 0.134496 0.022547 0.100185
H21   H     H_    0.874461 0.483496 0.280570 0.124122
H22   H     H_    0.148718 0.497508 0.593101 0.130705
H23   H     H_    0.177100 0.804511 0.553907 0.112737
H24   H     H_    0.312132 0.701494 0.632682 0.123893
H25   H     H_    0.443794 0.863477 0.816966 0.101086
H26   H     H_    0.377521 0.938320 0.935760 0.100236
H27   H     H_    0.177482 0.849535 0.869924 0.115276
H28   H     H_    0.722303 0.101850 0.428345 0.100528
H29   H     H_    0.045233 0.688581 0.686246 0.115393
H30   H     H_    0.320958 0.522495 0.862528 0.127300
H31   H     H_    0.403628 0.424383 0.001071 0.120596
H32   H     H_    0.501795 0.686042 0.011125 0.130347
H33   H     H_    0.465625 0.579731 0.148646 0.131609
H34   H     H_    0.824990 0.883770 0.123914 0.121784
H35   H     H_    0.487470 0.311786 0.117560 0.092667
H36   H     H_    0.477389 0.142006 0.108473 0.100948
H37   H     H_    0.303670 0.989547 0.057317 0.111441
H38   H     H_    0.150763 0.181883 0.033859 0.115819
H39   H     H_    0.327107 0.335952 0.091065 0.106289
H40   H     H_    0.270964 0.377413 0.701069 0.085647
H41   H     H_    0.183102 0.003217 0.161407 0.126586
H42   H     H_    0.840379 0.790532 0.804424 0.126529
H43   H     H_    0.904798 0.694393 0.055037 0.110983
H44   H     H_    0.743377 0.557917 0.039789 0.099436
H45   H     H_    0.177993 0.055176 0.306394 0.096446
H46   H     H_    0.560416 0.529770 0.934897 0.117703
H47   H     H_    0.537403 0.639037 0.844174 0.098112
H48   H     H_    0.697868 0.776342 0.858294 0.103178
H49   H     H_    0.746213 0.940935 0.620601 0.112080
H50   H     H_    0.825806 0.183498 0.353481 0.102695
H51   H     H_    0.174496 0.017521 0.845453 0.118274
H52   H     H_    0.668447 0.519764 0.244429 0.054462
H53   H     H_    0.532004 0.492923 0.207758 0.084766
H54   H     H_    0.539107 0.471809 0.359216 0.242632
H55   H     H_    0.605191 0.403626 0.312766 0.216002
H56   H     H_    0.827482 0.619514 0.401085 0.140181
H57   H     H_    0.686749 0.536882 0.432539 0.259001
H58   H     H_    0.669975 0.830233 0.153774 0.125304
H59   H     H_    0.329315 0.983249 0.660279 0.105262
H60   H     H_    0.481264 0.565967 0.469548 0.092268
N1    N     N_R   0.941940 0.944580 0.650780 -0.039559
N2    N     N_R   0.204460 0.150250 0.707090 -0.041816
N3    N     N_R   0.794270 0.003240 0.446420 -0.043606
N4    N     N_R   0.204920 0.207570 0.650770 -0.041429
N5    N     N_R   0.793810 0.945920 0.502740 -0.039189
N6    N     N_R   0.943620 0.152590 0.446420 -0.039701
N7    N     N_R   0.055110 0.000900 0.707100 -0.042394
N8    N     N_R   0.795080 0.792430 0.349230 -0.084815
N9    N     N_R   0.206190 0.054080 0.497260 -0.040652
N10   N     N_R   0.056380 0.847410 0.553580 -0.044415
N11   N     N_R   0.944890 0.999100 0.292900 -0.040661
N12   N     N_R   0.058060 0.055420 0.349220 -0.042604
N13   N     N_R   0.943200 0.791100 0.497260 -0.035293
N14   N     N_R   0.795540 0.849750 0.292910 -0.071354
N15   N     N_R   0.205730 0.996760 0.553580 -0.039001
N16   N     N_R   0.056800 0.208900 0.502740 -0.036766
Ni1   Ni    Ni4+2 0.869690 0.869690 0.500000 0.259700
Ni2   Ni    Ni4+2 0.130310 0.130310 0.500000 0.208783
Ni3   Ni    Ni4+2 0.129250 0.998840 0.629170 0.213080
Ni4   Ni    Ni4+2 0.870750 0.001160 0.370830 0.207671
O1    O     O_3   0.654978 0.647206 0.339876 -0.641910

loop_
_geom_bond_atom_site_label_1
_geom_bond_atom_site_label_2
_ccdc_geom_bond_type
C25   C31   A    
C66   C68   A    
C63   C65   A    
C41   C42   A    
C25   H9    S    
C59   H36   S    
C6    C45   A    
C27   C29   A    
C11   C13   A    
C73   C74   A    
C6    C58   S    
C1    N1    A    
C35   C36   A    
C3    C6    A    
C54   C57   S    
C83   H55   S    
C39   C41   A    
C28   H28   S    
C74   H44   S    
C26   C27   A    
C37   C38   A    
N6    N16   A    
C67   N10   A    
C18   C24   A    
C18   H7    S    
C21   C22   A    
C36   C37   A    
C78   H34   S    
C82   H53   S    
N3    Ni4   S    
C42   C53   S    
C30   C31   A    
C12   C64   A    
C78   N11   A    
C5    H59   S    
C10   C17   A    
C1    C81   A    
C23   C40   A    
C84   H45   S    
C16   N2    A    
C18   C19   A    
C77   H47   S    
C27   H11   S    
C66   C72   A    
C19   C20   A    
C11   H3    S    
C68   C69   A    
C5    N15   A    
C3    N14   A    
C70   C71   A    
C32   C38   A    
C4    C12   A    
C29   C30   A    
C39   C46   A    
N8    Ni1   S    
C75   H46   S    
N14   Ni4   S    
C47   C53   A    
C70   H42   S    
C48   H25   S    
N12   Ni2   S    
C59   C60   A    
C13   C14   A    
C52   H49   S    
C61   C62   A    
C3    H58   S    
C7    C56   A    
C22   C34   S    
C76   H51   S    
C44   C46   A    
C57   H32   S    
N2    N4    A    
C77   C79   A    
C1    H1    S    
C40   H40   S    
C64   H50   S    
C74   C75   A    
C40   N4    A    
C33   H18   S    
N10   Ni3   S    
C8    C41   S    
N10   N13   A    
C83   H57   S    
C16   H16   S    
C76   N7    A    
C25   C26   A    
C73   H43   S    
C82   C83   S    
C58   H33   S    
C13   C24   S    
C64   N6    A    
C60   C61   A    
C51   C53   A    
C43   H22   S    
N16   Ni2   S    
N9    N15   A    
C43   C44   A    
C14   H5    S    
C62   C63   A    
N1    Ni1   S    
C52   N5    A    
C47   C48   A    
C21   H8    S    
C50   C51   A    
C65   H35   S    
C56   H12   S    
C51   H29   S    
C75   C77   A    
N1    N7    A    
N8    N14   A    
C56   N9    A    
C61   C72   S    
C48   C49   A    
C47   H24   S    
C16   C23   A    
N7    Ni3   S    
C26   H10   S    
C36   H19   S    
N15   Ni3   S    
N5    Ni1   S    
C42   C43   A    
N13   Ni1   S    
C62   H38   S    
C5    C7    A    
C39   H21   S    
C54   C55   D    
C10   H2    S    
C28   N3    A    
C17   H60   S    
N3    N5    A    
C14   C15   A    
C34   C52   A    
C2    C8    A    
C38   H15   S    
C76   C81   A    
C37   H20   S    
C63   H39   S    
C23   C55   S    
C4    H4    S    
N11   Ni4   S    
N6    Ni4   S    
N2    Ni3   S    
C30   H14   S    
C7    C19   S    
C66   H41   S    
C29   H13   S    
N9    Ni2   S    
C45   N8    A    
N4    Ni2   S    
C32   C33   A    
C9    C68   S    
C2    H56   S    
C71   C72   A    
C12   C44   S    
C59   C65   A    
C15   H6    S    
C84   N12   A    
C67   H23   S    
C57   C58   D    
C4    N16   A    
C55   H31   S    
C2    N13   A    
C79   H48   S    
C54   H30   S    
C50   H27   S    
C33   C35   A    
C73   C80   A    
C22   C24   A    
C9    C78   A    
C82   H52   S    
C60   H37   S    
C69   C70   A    
C10   C11   A    
C9    C84   A    
C28   C34   A    
C79   C80   A    
C20   C21   A    
C8    C67   A    
C49   C50   A    
N11   N12   A    
C32   H17   S    
C69   C80   S    
C15   C17   A    
C35   C46   S    
C45   O1    S    
C82   O1    S    
C83   H54   S    
C49   H26   S    
C71   C81   S    
C20   C31   S    
