data_mof_unit_15691.cif
_audit_creation_date              2012-12-11T15:35:34-0500
_audit_creation_method            fapswitch 2.2
_symmetry_space_group_name_H-M    P1
_symmetry_Int_Tables_number       1
_space_group_crystal_system       triclinic
_cell_length_a                    17.412289
_cell_length_b                    24.161993
_cell_length_c                    15.103614
_cell_angle_alpha                 89.996501
_cell_angle_beta                  125.393869
_cell_angle_gamma                 90.001758
_cell_volume                      5179.9816717

loop_
_atom_site_label
_atom_site_type_symbol
_atom_type_description
_atom_site_fract_x
_atom_site_fract_y
_atom_site_fract_z
_atom_type_partial_charge
C1    C     C_R   0.350120 0.152046 0.907603 -0.128512
C2    C     C_R   0.559590 0.152340 0.911130 -0.125866
C3    C     C_R   0.252668 0.546291 0.304025 -0.125151
C4    C     C_2   0.515240 0.101160 0.313699 0.955667
C5    C     C_2   0.518852 0.899526 0.317142 0.961417
C6    C     C_2   0.067098 0.602067 0.341351 0.930134
C7    C     C_2   0.090694 0.399269 0.348771 0.949796
C8    C     C_R   0.098660 0.374669 0.910261 -0.124296
C9    C     C_R   0.098681 0.625428 0.910373 -0.126036
C10   C     C_R   0.487968 0.000831 0.669772 0.043230
C11   C     C_R   0.961392 0.500902 0.650953 0.051094
C12   C     C_R   0.802394 0.000455 0.364774 -0.025382
C13   C     C_R   0.298052 0.500454 0.367160 -0.029155
C14   C     C_R   0.620649 0.183718 0.002436 0.040246
C15   C     C_R   0.687751 0.862103 0.001705 0.034674
C16   C     C_R   0.188061 0.637424 0.001447 0.028837
C17   C     C_R   0.349829 0.848045 0.907747 -0.130220
C18   C     C_R   0.188052 0.362562 0.001311 0.019586
C19   C     C_3   0.021558 0.948370 0.635861 -0.402469
C20   C     C_3   0.021872 0.052181 0.635728 -0.402580
C21   C     C_3   0.523320 0.451207 0.632177 -0.401365
C22   C     C_3   0.525104 0.554961 0.623797 -0.409493
C23   C     C_3   0.918563 0.948090 0.535399 -0.387580
C24   C     C_3   0.918310 0.052104 0.536409 -0.385005
C25   C     C_3   0.418807 0.449933 0.536390 -0.397113
C26   C     C_3   0.419497 0.553931 0.532047 -0.389095
C27   C     C_3   0.067137 0.000053 0.526681 -0.387663
C28   C     C_R   0.849237 0.651737 0.907985 -0.130301
C29   C     C_3   0.560095 0.498109 0.510135 -0.399931
C30   C     C_3   0.073141 0.000158 0.633249 0.385445
C31   C     C_3   0.572511 0.501398 0.619961 0.394481
C32   C     C_3   0.898486 0.000360 0.464945 0.379283
C33   C     C_3   0.395567 0.500911 0.462219 0.388738
C34   C     C_R   0.443345 0.846471 0.088570 -0.120509
C35   C     C_R   0.444042 0.153829 0.088240 -0.126408
C36   C     C_R   0.901628 0.375551 0.091515 -0.055016
C37   C     C_R   0.940816 0.652593 0.089253 -0.114501
C38   C     C_3   0.964917 0.000722 0.428279 -0.396872
C39   C     C_R   0.811991 0.371579 0.909755 -0.120722
C40   C     C_3   0.456150 0.499305 0.417324 -0.391231
C41   C     C_R   0.291194 0.730236 0.901298 -0.167290
C42   C     C_R   0.291588 0.269964 0.900950 -0.167802
C43   C     C_R   0.658242 0.314820 0.905630 -0.166817
C44   C     C_R   0.790219 0.769134 0.901825 -0.166986
C45   C     C_R   0.609969 0.269410 0.905783 -0.166158
C46   C     C_R   0.743467 0.815126 0.902952 -0.168368
C47   C     C_R   0.243777 0.684541 0.902481 -0.168763
C48   C     C_R   0.243703 0.315417 0.902164 -0.160266
C49   C     C_R   0.644414 0.241685 0.003704 0.139560
C50   C     C_R   0.649912 0.151040 0.092138 -0.126143
C51   C     C_R   0.761168 0.833072 0.001568 0.140559
C52   C     C_R   0.261412 0.666635 0.001143 0.139996
C53   C     C_R   0.261384 0.333314 0.000870 0.140968
C54   C     C_R   0.713327 0.266943 0.102325 -0.165050
C55   C     C_R   0.840851 0.813630 0.099472 -0.168838
C56   C     C_R   0.341081 0.686173 0.098994 -0.164897
C57   C     C_R   0.341298 0.313905 0.098664 -0.165696
C58   C     C_R   0.388939 0.731543 0.097958 -0.154606
C59   C     C_R   0.389587 0.268761 0.097580 -0.156606
C60   C     C_R   0.761449 0.312310 0.102100 -0.166564
C61   C     C_R   0.689408 0.876014 0.092199 -0.117097
C62   C     C_R   0.888246 0.768029 0.098509 -0.159054
C63   C     C_R   0.357410 0.757285 0.998913 0.136814
C64   C     C_R   0.358183 0.243039 0.998547 0.136575
C65   C     C_R   0.741139 0.331861 0.003217 0.145040
C66   C     C_R   0.855989 0.742004 0.999507 0.140948
C67   C     C_R   0.393980 0.993579 0.475500 -0.195077
C68   C     C_R   0.564293 0.008683 0.581311 -0.167110
C69   C     C_R   0.930084 0.469339 0.482380 -0.204536
C70   C     C_R   0.063857 0.530207 0.602100 -0.170025
C71   C     C_R   0.388831 0.993290 0.381270 -0.050135
C72   C     C_R   0.189523 0.623834 0.092032 -0.103139
C73   C     C_R   0.559388 0.007738 0.487754 -0.169820
C74   C     C_R   0.956379 0.467297 0.412906 -0.104975
C75   C     C_R   0.091368 0.527204 0.533648 -0.095378
C76   C     C_R   0.471642 0.000521 0.388985 0.195984
C77   C     C_R   0.036347 0.496615 0.438874 0.235151
C78   C     C_R   0.493067 0.046324 0.261737 -0.042084
C79   C     C_R   0.493881 0.953809 0.262785 -0.051451
C80   C     C_R   0.040399 0.545360 0.298824 -0.030462
C81   C     C_R   0.047808 0.453900 0.301403 -0.098596
C82   C     C_R   0.481697 0.001456 0.573761 0.139842
C83   C     C_R   0.189558 0.376180 0.091977 -0.086137
C84   C     C_R   0.983054 0.501570 0.575046 0.142038
C85   C     C_R   0.230956 0.953493 0.750073 -0.135376
C86   C     C_R   0.231029 0.046563 0.750219 -0.135383
C87   C     C_R   0.729345 0.454397 0.730090 -0.144468
C88   C     C_R   0.730592 0.547277 0.740464 -0.137457
C89   C     C_R   0.381849 0.185023 0.997587 0.037379
C90   C     C_R   0.381106 0.815258 0.997902 0.035430
C91   C     C_R   0.879252 0.684018 0.998478 0.030716
C92   C     C_R   0.813761 0.360650 0.001242 0.001097
C93   C     C_R   0.468785 0.000140 0.294187 -0.143833
C94   C     C_R   0.598241 0.873719 0.910592 -0.122094
C95   C     C_R   0.054345 0.499099 0.359343 -0.149651
C96   C     C_R   0.174271 0.000055 0.722381 -0.002139
C97   C     C_R   0.673554 0.500907 0.703722 0.000499
C98   C     C_R   0.483504 0.046987 0.718760 -0.132155
C99   C     C_R   0.477411 0.954359 0.713296 -0.149576
C100  C     C_R   0.964200 0.546482 0.705484 -0.155910
C101  C     C_R   0.963952 0.454469 0.704370 -0.139957
C102  C     C_R   0.755015 0.954123 0.303571 -0.118796
C103  C     C_R   0.755930 0.046547 0.302005 -0.109823
C104  C     C_R   0.253125 0.454187 0.304648 -0.143908
H1    H     H_    0.311778 0.165655 0.824206 0.083220
H2    H     H_    0.870886 0.052241 0.563415 0.165071
H3    H     H_    0.373936 0.449904 0.566857 0.167190
H4    H     H_    0.377650 0.554985 0.566397 0.164644
H5    H     H_    0.907271 0.909705 0.488773 0.149572
H6    H     H_    0.905344 0.090893 0.490205 0.150873
H7    H     H_    0.405411 0.410701 0.491215 0.152195
H8    H     H_    0.403091 0.592093 0.483199 0.152952
H9    H     H_    0.102443 0.962624 0.522809 0.156659
H10   H     H_    0.103926 0.036869 0.523399 0.157602
H11   H     H_    0.591905 0.459302 0.505090 0.156817
H12   H     H_    0.311436 0.834368 0.824390 0.085747
H13   H     H_    0.596387 0.533470 0.501518 0.158556
H14   H     H_    0.951359 0.963971 0.376518 0.156201
H15   H     H_    0.952226 0.038269 0.378671 0.160329
H16   H     H_    0.438883 0.462051 0.365445 0.156211
H17   H     H_    0.441530 0.536330 0.365772 0.157323
H18   H     H_    0.269166 0.746927 0.823508 0.109229
H19   H     H_    0.269572 0.253268 0.823168 0.109313
H20   H     H_    0.635934 0.332377 0.828297 0.105584
H21   H     H_    0.767922 0.752351 0.824021 0.110023
H22   H     H_    0.552178 0.253402 0.828346 0.108628
H23   H     H_    0.811439 0.665695 0.824865 0.086496
H24   H     H_    0.687230 0.832330 0.825817 0.114073
H25   H     H_    0.187296 0.667461 0.825348 0.108623
H26   H     H_    0.186910 0.332318 0.825038 0.115377
H27   H     H_    0.737505 0.248839 0.179798 0.110504
H28   H     H_    0.860841 0.829253 0.177186 0.107491
H29   H     H_    0.360808 0.670780 0.176750 0.108934
H30   H     H_    0.360976 0.329249 0.176428 0.106698
H31   H     H_    0.443681 0.749092 0.175428 0.118006
H32   H     H_    0.444516 0.251278 0.175028 0.116663
H33   H     H_    0.820547 0.327384 0.179583 0.108792
H34   H     H_    0.758313 0.359082 0.828102 0.091878
H35   H     H_    0.943277 0.750655 0.175993 0.117319
H36   H     H_    0.330763 0.987818 0.472497 0.121378
H37   H     H_    0.631644 0.014331 0.658950 0.124786
H38   H     H_    0.868730 0.446619 0.463915 0.120092
H39   H     H_    0.106093 0.553785 0.676728 0.117640
H40   H     H_    0.492342 0.830433 0.168874 0.126684
H41   H     H_    0.493998 0.170229 0.167963 0.131557
H42   H     H_    0.926168 0.372456 0.174917 0.092537
H43   H     H_    0.986118 0.667594 0.170952 0.134729
H44   H     H_    0.321748 0.987411 0.303540 0.116786
H45   H     H_    0.024128 0.948424 0.711210 0.162419
H46   H     H_    0.623121 0.012733 0.491515 0.123083
H47   H     H_    0.913481 0.444041 0.337956 0.102150
H48   H     H_    0.153390 0.549346 0.552759 0.111377
H49   H     H_    0.209899 0.910651 0.733862 0.093055
H50   H     H_    0.210048 0.089421 0.734201 0.093666
H51   H     H_    0.706929 0.413443 0.696458 0.083666
H52   H     H_    0.710803 0.590345 0.725735 0.093352
H53   H     H_    0.477676 0.089813 0.694710 0.105671
H54   H     H_    0.463067 0.912722 0.681248 0.105616
H55   H     H_    0.954988 0.589158 0.679691 0.102049
H56   H     H_    0.025672 0.052798 0.711842 0.162128
H57   H     H_    0.955525 0.411967 0.677865 0.096602
H58   H     H_    0.767431 0.911503 0.329909 0.115988
H59   H     H_    0.769853 0.089554 0.325712 0.107149
H60   H     H_    0.266643 0.411442 0.330161 0.124447
H61   H     H_    0.265134 0.589177 0.328324 0.136545
H62   H     H_    0.688069 0.164151 0.175808 0.097234
H63   H     H_    0.747096 0.871377 0.176484 0.090614
H64   H     H_    0.247233 0.628539 0.176294 0.092357
H65   H     H_    0.247321 0.371540 0.176268 0.091709
H66   H     H_    0.570657 0.865567 0.827235 0.094273
H67   H     H_    0.530178 0.454344 0.709994 0.162740
H68   H     H_    0.514647 0.166290 0.827939 0.086146
H69   H     H_    0.071569 0.368043 0.826545 0.096633
H70   H     H_    0.071673 0.632308 0.826778 0.092057
H71   H     H_    0.055122 0.909480 0.635169 0.149182
H72   H     H_    0.054966 0.090868 0.633249 0.150406
H73   H     H_    0.555600 0.411303 0.633517 0.145339
H74   H     H_    0.555790 0.592316 0.612512 0.152064
H75   H     H_    0.477904 0.162555 0.372004 0.318143
H76   H     H_    0.613008 0.837103 0.384936 0.312955
H77   H     H_    0.051826 0.665588 0.416466 0.316488
H78   H     H_    0.535860 0.558682 0.703723 0.162363
H79   H     H_    0.147267 0.347511 0.476871 0.319436
H80   H     H_    0.870167 0.946810 0.561014 0.165581
N1    N     N_R   0.392140 0.102630 0.941800 -0.039366
N2    N     N_R   0.525160 0.972040 0.206160 -0.063004
N3    N     N_R   0.025160 0.527960 0.206160 -0.070863
N4    N     N_R   0.025160 0.472040 0.206160 -0.066708
N5    N     N_R   0.317870 0.971120 0.792790 -0.038901
N6    N     N_R   0.317870 0.028880 0.792790 -0.039215
N7    N     N_R   0.817870 0.471120 0.792790 -0.035015
N8    N     N_R   0.817870 0.528880 0.792790 -0.036129
N9    N     N_R   0.473480 0.027920 0.793480 -0.041666
N10   N     N_R   0.473480 0.972080 0.793480 -0.040367
N11   N     N_R   0.973480 0.527920 0.793480 -0.039070
N12   N     N_R   0.392140 0.897370 0.941800 -0.040839
N13   N     N_R   0.973480 0.472080 0.793480 -0.040400
N14   N     N_R   0.681610 0.971120 0.207570 -0.037927
N15   N     N_R   0.681610 0.028880 0.207570 -0.039144
N16   N     N_R   0.181610 0.471120 0.207570 -0.037082
N17   N     N_R   0.181610 0.528880 0.207570 -0.039618
N18   N     N_R   0.605410 0.102620 0.056870 -0.040478
N19   N     N_R   0.605410 0.897380 0.056870 -0.038782
N20   N     N_R   0.105410 0.602620 0.056870 -0.036900
N21   N     N_R   0.105410 0.397380 0.056870 -0.031415
N22   N     N_R   0.549680 0.896430 0.944180 -0.042992
N23   N     N_R   0.892140 0.602630 0.941800 -0.043009
N24   N     N_R   0.549680 0.103570 0.944180 -0.041401
N25   N     N_R   0.049680 0.396430 0.944180 -0.046975
N26   N     N_R   0.049680 0.603570 0.944180 -0.043865
N27   N     N_R   0.892140 0.397370 0.941800 -0.047133
N28   N     N_R   0.450890 0.896450 0.057150 -0.045842
N29   N     N_R   0.450890 0.103550 0.057150 -0.045976
N30   N     N_R   0.950890 0.396450 0.057150 -0.028416
N31   N     N_R   0.950890 0.603550 0.057150 -0.045183
N32   N     N_R   0.525160 0.027960 0.206160 -0.067691
Ni1   Ni    Ni4+2 0.433410 0.064680 0.868830 0.204344
Ni2   Ni    Ni4+2 0.433410 0.935320 0.868830 0.207451
Ni3   Ni    Ni4+2 0.933410 0.564680 0.868830 0.206510
Ni4   Ni    Ni4+2 0.933410 0.435320 0.868830 0.211829
Ni5   Ni    Ni4+2 0.565650 0.934380 0.131170 0.246939
Ni6   Ni    Ni4+2 0.565650 0.065620 0.131170 0.242996
Ni7   Ni    Ni4+2 0.065650 0.434380 0.131170 0.270976
Ni8   Ni    Ni4+2 0.065650 0.565620 0.131170 0.252303
O1    O     O_2   0.588768 0.124216 0.342309 -0.684414
O2    O     O_R   0.454428 0.125300 0.334743 -0.798385
O3    O     O_2   0.468540 0.878247 0.339732 -0.650159
O4    O     O_R   0.602428 0.873715 0.346623 -0.833206
O5    O     O_2   0.124668 0.627257 0.335149 -0.686027
O6    O     O_R   0.027570 0.626653 0.389982 -0.809118
O7    O     O_2   0.104673 0.366558 0.297776 -0.667827
O8    O     O_R   0.117917 0.385679 0.453203 -0.810805

loop_
_geom_bond_atom_site_label_1
_geom_bond_atom_site_label_2
_ccdc_geom_bond_type
C74   H47   S    
C65   C92   S    
N12   Ni2   S    
C100  H55   S    
C79   N2    A    
C26   H8    S    
C73   H46   S    
C72   H64   S    
C12   C102  A    
N18   Ni6   S    
C44   C66   A    
C16   C72   A    
C27   H10   S    
C22   H74   S    
N31   Ni8   S    
C45   H22   S    
C15   C94   A    
N11   Ni3   S    
C56   H29   S    
N10   Ni2   S    
C54   C60   A    
N22   Ni2   S    
N9    Ni1   S    
C40   H17   S    
C21   C31   S    
C99   N10   A    
C34   H40   S    
C70   H39   S    
C42   C48   A    
N1    Ni1   S    
C47   H25   S    
C88   H52   S    
C11   C84   S    
C46   H24   S    
C9    C16   A    
C79   C93   A    
C102  N14   A    
C71   C76   A    
C81   C95   A    
C85   C96   A    
C101  N13   A    
C34   N28   A    
C57   C59   A    
C14   C49   S    
N3    Ni8   S    
C78   C93   A    
C85   N5    A    
C49   C54   A    
C55   C62   A    
C59   H32   S    
C58   C63   A    
N19   Ni5   S    
C35   H41   S    
C10   C98   A    
C30   C96   S    
C18   C53   S    
C36   N30   A    
C7    O7    D    
C20   C24   S    
C56   C58   A    
N16   N17   A    
C74   C77   A    
C94   N22   A    
C50   H62   S    
N30   Ni7   S    
N14   N15   A    
N20   Ni8   S    
C15   C51   S    
C62   H35   S    
C5    C79   S    
N13   Ni4   S    
C70   C84   A    
C9    N26   A    
C81   N4    A    
C51   C55   A    
C88   C97   A    
C3    C13   A    
C28   H23   S    
C102  H58   S    
C60   H33   S    
C7    O8    S    
C36   C92   A    
C21   H73   S    
C71   H44   S    
C29   H11   S    
C39   H34   S    
C13   C33   S    
N18   N24   A    
C12   C32   S    
C27   C30   S    
C29   C31   S    
C104  N16   A    
C48   H26   S    
N21   N25   A    
N5    N6    A    
C64   C89   S    
C41   C47   A    
C44   C46   A    
C42   H19   S    
N32   Ni6   S    
N28   Ni5   S    
C50   N18   A    
C15   C61   A    
C48   C53   A    
C23   H5    S    
N19   N22   A    
C44   H21   S    
C86   N6    A    
C33   C40   S    
C22   C31   S    
C62   C66   A    
N7    N8    A    
C69   C74   A    
N14   Ni5   S    
C24   H6    S    
C12   C103  A    
C20   H72   S    
C26   H4    S    
C53   C57   A    
C8    H69   S    
C20   C30   S    
H77   O6    S    
C68   C73   A    
C21   H67   S    
C29   H13   S    
C46   C51   A    
C77   C95   S    
C8    C18   A    
N26   Ni3   S    
C5    O3    D    
C98   N9    A    
N2    N32   A    
C11   C100  A    
C61   H63   S    
C38   H14   S    
C41   H18   S    
C19   C23   S    
C24   C32   S    
C4    C78   S    
C54   H27   S    
C76   C93   S    
C35   N29   A    
N29   Ni6   S    
C103  N15   A    
C26   C33   S    
C6    C80   S    
C34   C90   A    
C98   H53   S    
C45   C49   A    
C75   H48   S    
C43   C65   A    
N23   N31   A    
C18   C83   A    
C59   C64   A    
C39   N27   A    
C68   H37   S    
C11   C101  A    
N15   Ni6   S    
C85   H49   S    
C4    O1    D    
C37   H43   S    
C13   C104  A    
C67   H36   S    
C75   C77   A    
C66   C91   S    
C86   C96   A    
C1    H1    S    
C38   H15   S    
C35   C89   A    
C36   H42   S    
C40   H16   S    
N2    Ni5   S    
C60   C65   A    
N9    N10   A    
C32   C38   S    
C6    O6    S    
C20   H56   S    
C3    N17   A    
C73   C76   A    
C87   H51   S    
C57   H30   S    
C6    O5    D    
C24   H2    S    
C41   C63   A    
C78   N32   A    
C8    N25   A    
N6    Ni1   S    
C42   C64   A    
C39   C92   A    
C70   C75   A    
N5    Ni2   S    
C3    H61   S    
C87   N7    A    
C100  N11   A    
N24   Ni1   S    
C88   N8    A    
C21   C25   S    
C1    C89   A    
C37   C91   A    
C7    C81   S    
N16   Ni7   S    
C103  H59   S    
N27   Ni4   S    
C17   C90   A    
C16   C52   S    
C23   C32   S    
N7    Ni4   S    
C104  H60   S    
C10   C82   S    
C2    H68   S    
C47   C52   A    
C80   C95   A    
C58   H31   S    
C27   H9    S    
N23   Ni3   S    
N17   Ni8   S    
C5    O4    S    
C72   N20   A    
C68   C82   A    
C1    N1    A    
H79   O8    S    
H75   O2    S    
C101  H57   S    
C69   H38   S    
C23   H80   S    
C43   C45   A    
C69   C84   A    
C94   H66   S    
C83   N21   A    
C14   C50   A    
C9    H70   S    
C83   H65   S    
C63   C90   S    
C19   H45   S    
C80   N3    A    
H76   O4    S    
C28   C91   A    
C67   C71   A    
C31   C97   S    
C86   H50   S    
C10   C99   A    
C2    C14   A    
C19   H71   S    
N25   Ni4   S    
C25   H7    S    
N12   N28   A    
N4    Ni7   S    
N3    N4    A    
N27   N30   A    
C2    N24   A    
C43   H20   S    
C67   C82   A    
C22   H78   S    
C55   H28   S    
C22   C26   S    
C99   H54   S    
N20   N26   A    
N21   Ni7   S    
C28   N23   A    
N1    N29   A    
C17   N12   A    
C27   C38   S    
N8    Ni3   S    
C29   C40   S    
C87   C97   A    
C19   C30   S    
C4    O2    S    
C37   N31   A    
C25   H3    S    
C61   N19   A    
C52   C56   A    
C17   H12   S    
C25   C33   S    
N11   N13   A    
