data_mof_unit_6070.cif
_audit_creation_date              2013-03-05T16:12:49-0500
_audit_creation_method            fapswitch 2.2
_symmetry_space_group_name_H-M    P1
_symmetry_Int_Tables_number       1
_space_group_crystal_system       triclinic
_cell_length_a                    10.717638
_cell_length_b                    9.802632
_cell_length_c                    27.753227
_cell_angle_alpha                 90.000087
_cell_angle_beta                  89.705802
_cell_angle_gamma                 89.99999
_cell_volume                      2915.74504319

loop_
_atom_site_label
_atom_site_type_symbol
_atom_site_description
_atom_site_fract_x
_atom_site_fract_y
_atom_site_fract_z
_atom_type_partial_charge
O1    O     O_R   0.316770 0.614620 0.500000 -0.630894
O2    O     O_R   0.683230 0.385380 0.500000 -0.630288
O3    O     O_R   0.683230 0.614620 0.500000 -0.630894
O4    O     O_R   0.316770 0.385380 0.500000 -0.630288
C1    C     C_R   0.259750 0.499996 0.500048 0.866051
C2    C     C_R   0.740250 0.499996 0.499952 0.866052
O5    O     O_R   0.500030 0.614650 0.428760 -0.622826
O6    O     O_R   0.499970 0.385350 0.571240 -0.606089
O7    O     O_R   0.499970 0.614650 0.571240 -0.622824
O8    O     O_R   0.500030 0.385350 0.428760 -0.606090
C3    C     C_R   0.497386 0.499799 0.405985 0.869463
C4    C     C_R   0.502614 0.499799 0.594015 0.869463
Zn1   Zn    Zn3+2 0.500000 0.653120 0.500000 0.937287
Zn2   Zn    Zn3+2 0.500000 0.346880 0.500000 0.962425
C5    C     C_R   0.386007 0.524185 0.177655 0.507106
C6    C     C_R   0.613993 0.524189 0.822345 0.507107
O9    O     O_2   0.277872 0.532003 0.202673 -0.553097
O10   O     O_2   0.722129 0.532010 0.797327 -0.553096
N1    N     N_R   0.496598 0.513181 0.201537 -0.354614
N2    N     N_R   0.503403 0.513184 0.798463 -0.354613
C7    C     C_R   0.608122 0.506799 0.177656 0.504926
C8    C     C_R   0.391879 0.506799 0.822344 0.504926
C9    C     C_R   0.538010 0.620285 0.279012 -0.099885
C10   C     C_R   0.461991 0.620286 0.720987 -0.099884
C11   C     C_R   0.536967 0.616135 0.328912 -0.238374
C12   C     C_R   0.463033 0.616136 0.671088 -0.238373
C13   C     C_R   0.447985 0.386655 0.326617 -0.039636
C14   C     C_R   0.552015 0.386656 0.673383 -0.039635
C15   C     C_R   0.451172 0.392022 0.276367 -0.145196
C16   C     C_R   0.548828 0.392023 0.723633 -0.145197
C17   C     C_R   0.495578 0.508326 0.252815 0.306020
C18   C     C_R   0.504423 0.508328 0.747185 0.306021
C19   C     C_R   0.498430 0.520940 0.101723 -0.052084
C20   C     C_R   0.501571 0.520941 0.898277 -0.052084
C21   C     C_R   0.384764 0.527864 0.127295 -0.022295
C22   C     C_R   0.615236 0.527869 0.872705 -0.022296
C23   C     C_R   0.272748 0.539110 0.102260 -0.135848
C24   C     C_R   0.727253 0.539117 0.897740 -0.135848
C25   C     C_R   0.611217 0.511030 0.127302 -0.021833
C26   C     C_R   0.388784 0.511029 0.872698 -0.021833
C27   C     C_R   0.492943 0.499996 0.353268 -0.087220
C28   C     C_R   0.507057 0.499997 0.646731 -0.087221
H1    H     H_    0.184380 0.547365 0.121184 0.190565
H2    H     H_    0.815620 0.547373 0.878816 0.190565
C29   C     C_R   0.385063 0.520490 0.974495 0.046726
C30   C     C_R   0.614938 0.520492 0.025505 0.046726
C31   C     C_R   0.615641 0.527770 0.974533 0.046716
C32   C     C_R   0.384360 0.527767 0.025468 0.046716
C33   C     C_R   0.500739 0.523313 0.949309 0.070669
C34   C     C_R   0.499262 0.523313 0.050691 0.070669
C35   C     C_R   0.273723 0.508292 0.947645 -0.214721
C36   C     C_R   0.726278 0.508296 0.052355 -0.214721
C37   C     C_R   0.275829 0.503928 0.897735 -0.136304
C38   C     C_R   0.724172 0.503931 0.102265 -0.136304
O11   O     O_2   0.284640 0.495422 0.797349 -0.554207
O12   O     O_2   0.715361 0.495424 0.202651 -0.554208
C39   C     C_R   0.272293 0.539536 0.052325 -0.214911
C40   C     C_R   0.727708 0.539541 0.947675 -0.214911
H3    H     H_    0.427584 0.703405 0.651519 0.154918
H4    H     H_    0.572416 0.703404 0.348481 0.154919
H5    H     H_    0.427874 0.710356 0.739418 0.141931
H6    H     H_    0.572126 0.710354 0.260582 0.141932
H7    H     H_    0.188041 0.494349 0.878835 0.190722
H8    H     H_    0.811960 0.494354 0.121165 0.190722
H9    H     H_    0.182929 0.498316 0.964037 0.138597
H10   H     H_    0.817072 0.498323 0.035963 0.138597
H11   H     H_    0.182156 0.551796 0.035938 0.138550
H12   H     H_    0.817844 0.551804 0.964062 0.138550
C41   C     C_R   0.063838 0.375579 0.500188 -0.207230
C42   C     C_R   0.936145 0.624493 0.500002 -0.194524
C43   C     C_R   0.936162 0.375579 0.499813 -0.207230
C44   C     C_R   0.063855 0.624493 0.499995 -0.194525
H13   H     H_    0.112294 0.278609 0.500552 0.147597
H14   H     H_    0.887664 0.721510 0.500034 0.149772
H15   H     H_    0.887706 0.278609 0.499451 0.147597
H16   H     H_    0.112336 0.721510 0.499961 0.149772
C45   C     C_R   0.872633 0.500016 0.499906 -0.007090
C46   C     C_R   0.127367 0.500016 0.500094 -0.007090
C47   C     C_R   0.585550 0.072099 0.473282 -0.051652
C48   C     C_R   0.414484 0.927944 0.526736 -0.094890
C49   C     C_R   0.414450 0.072099 0.526718 -0.051652
C50   C     C_R   0.585516 0.927944 0.473264 -0.094890
H17   H     H_    0.653618 0.126991 0.451871 0.124097
H18   H     H_    0.346412 0.873089 0.548159 0.124194
H19   H     H_    0.346382 0.126992 0.548129 0.124097
H20   H     H_    0.653588 0.873089 0.451841 0.124194
N3    N     N_R   0.500000 0.857200 0.500000 -0.079679
N4    N     N_R   0.500000 0.142800 0.500000 -0.072518
C51   C     C_R   0.394633 0.263344 0.349725 0.137396
C52   C     C_R   0.284786 0.272115 0.377449 -0.077755
C53   C     C_R   0.236796 0.155985 0.400216 -0.129613
C54   C     C_R   0.297608 0.030571 0.395326 -0.096821
C55   C     C_R   0.405956 0.020794 0.367308 -0.125574
C56   C     C_R   0.454269 0.136581 0.344428 -0.162608
H21   H     H_    0.237281 0.368927 0.381760 0.114659
H22   H     H_    0.152504 0.163161 0.421670 0.119750
H23   H     H_    0.260775 0.940964 0.413214 0.130861
H24   H     H_    0.452898 0.923637 0.363562 0.133907
H25   H     H_    0.538953 0.127962 0.323181 0.133767
C57   C     C_R   0.605366 0.263344 0.650275 0.137395
C58   C     C_R   0.715213 0.272113 0.622552 -0.077755
C59   C     C_R   0.763201 0.155982 0.599784 -0.129614
C60   C     C_R   0.702388 0.030570 0.604674 -0.096820
C61   C     C_R   0.594040 0.020795 0.632692 -0.125575
C62   C     C_R   0.545728 0.136582 0.655572 -0.162607
H26   H     H_    0.762719 0.368924 0.618240 0.114660
H27   H     H_    0.847494 0.163157 0.578331 0.119749
H28   H     H_    0.739220 0.940963 0.586785 0.130863
H29   H     H_    0.547097 0.923639 0.636438 0.133907
H30   H     H_    0.461044 0.127965 0.676818 0.133768
H31   H     H_    0.417580 0.306537 0.255314 0.145354
H32   H     H_    0.582421 0.306538 0.744686 0.145353

loop_
_geom_bond_atom_site_label_1
_geom_bond_atom_site_label_2
_geom_bond_distance
_ccdc_geom_bond_type
C47   H17   1.081851 S    
C62   H30   1.083100 S    
C55   C56   1.398644 A    
C13   C15   1.395846 A    
C44   H16   1.083711 S    
O3    C2    1.279049 A    
N1    C17   1.423923 S    
C32   C39   1.415044 A    
C31   C33   1.420335 A    
O5    C3    1.291518 A    
C57   C62   1.404717 A    
C10   H5    1.083037 S    
O1    C1    1.279049 A    
N1    C7    1.365188 A    
C10   C12   1.385460 A    
C48   N3    1.365486 A    
C61   H29   1.081869 S    
C25   C38   1.394508 A    
C29   C35   1.415166 A    
C50   N3    1.365487 A    
C30   C36   1.415166 A    
C35   H9    1.076522 S    
C51   C56   1.404722 A    
C41   C43   1.368481 A    
O7    Zn1   2.012779 S    
C61   C62   1.398644 A    
C44   C46   1.397233 A    
C53   H22   1.081699 S    
C24   C40   1.385889 A    
C9    H6    1.083037 S    
C42   H14   1.083711 S    
C4    C28   1.464079 S    
C41   H13   1.083253 S    
C60   H28   1.082532 S    
C11   H4    1.083163 S    
C12   H3    1.083163 S    
O3    Zn1   1.999728 S    
O6    C4    1.288087 A    
C14   C57   1.481761 S    
C32   C34   1.420333 A    
C42   C45   1.397233 A    
C41   C46   1.396973 A    
O2    C2    1.278984 A    
C39   H11   1.076591 S    
C5    C21   1.398230 A    
C47   N4    1.365234 A    
C36   C38   1.385870 A    
C54   H23   1.082532 S    
C43   H15   1.083252 S    
C48   H18   1.081876 S    
C58   C59   1.398709 A    
C52   H21   1.083303 S    
O8    Zn2   2.012784 S    
C11   C27   1.404419 A    
C53   C54   1.397742 A    
O4    C1    1.278984 A    
C2    C45   1.418829 S    
C19   C34   1.416468 A    
C50   H20   1.081874 S    
C16   H32   1.084143 S    
C35   C37   1.385870 A    
C9    C17   1.394026 A    
C23   H1    1.083637 S    
C5    N1    1.365239 A    
C10   C18   1.394027 A    
C24   H2    1.083638 S    
C47   C50   1.413101 A    
C13   C27   1.420334 A    
C7    C25   1.398302 A    
C29   C33   1.420383 A    
C6    N2    1.365241 A    
C8    C26   1.398302 A    
Zn1   N3    2.000521 S    
C59   H27   1.081697 S    
C19   C25   1.408348 A    
C40   H12   1.076592 S    
N2    C8    1.365187 A    
C20   C26   1.408347 A    
O1    Zn1   1.999729 S    
C22   C24   1.394565 A    
C43   C45   1.396973 A    
C36   H10   1.076522 S    
C12   C28   1.404419 A    
N2    C18   1.423923 S    
C29   C32   1.416433 A    
C58   H26   1.083300 S    
C5    O9    1.350146 S    
C30   C31   1.416430 A    
C20   C33   1.416467 A    
O6    Zn2   2.012777 S    
C21   C23   1.394567 A    
C15   H31   1.084143 S    
C48   C49   1.413101 A    
C7    O12   1.350126 S    
C42   C44   1.368757 A    
C8    O11   1.350127 S    
C30   C34   1.420383 A    
C14   C16   1.395846 A    
C51   C52   1.405749 A    
Zn2   N4    2.000521 S    
C15   C17   1.396551 A    
C6    C22   1.398230 A    
C31   C40   1.415045 A    
C16   C18   1.396551 A    
C37   H7    1.083645 S    
C52   C53   1.398711 A    
C38   H8    1.083644 S    
C56   H25   1.083101 S    
C14   C28   1.420334 A    
C54   C55   1.397499 A    
C19   C21   1.408372 A    
C13   C51   1.481761 S    
C20   C22   1.408370 A    
C9    C11   1.385460 A    
O4    Zn2   1.999728 S    
C59   C60   1.397737 A    
O2    Zn2   1.999729 S    
O7    C4    1.291520 A    
C49   H19   1.081849 S    
C49   N4    1.365235 A    
O8    C3    1.288085 A    
O5    Zn1   2.012783 S    
C6    O10   1.350146 S    
C26   C37   1.394508 A    
C3    C27   1.464079 S    
C60   C61   1.397496 A    
C57   C58   1.405748 A    
C1    C46   1.418829 S    
C55   H24   1.081874 S    
C23   C39   1.385889 A    
