data_mof_unit_42217.cif
_audit_creation_date              2013-03-05T16:09:06-0500
_audit_creation_method            fapswitch 2.2
_symmetry_space_group_name_H-M    P1
_symmetry_Int_Tables_number       1
_space_group_crystal_system       triclinic
_cell_length_a                    18.18842
_cell_length_b                    7.097338
_cell_length_c                    13.107381
_cell_angle_alpha                 90.56211
_cell_angle_beta                  72.358506
_cell_angle_gamma                 89.791544
_cell_volume                      1612.33364882

loop_
_atom_site_label
_atom_site_type_symbol
_atom_site_description
_atom_site_fract_x
_atom_site_fract_y
_atom_site_fract_z
_atom_type_partial_charge
O1    O     O_R   0.453880 0.506200 0.150010 -0.591407
O2    O     O_R   0.546120 0.006200 0.849990 -0.597123
O3    O     O_R   0.604080 0.177770 0.007280 -0.574622
O4    O     O_R   0.395920 0.677770 0.992720 -0.583905
C1    C     C_R   0.636042 0.344278 0.001308 1.002728
C2    C     C_R   0.363977 0.844649 0.998583 1.001437
O5    O     O_R   0.458010 0.176640 0.159130 -0.598274
O6    O     O_R   0.541990 0.676640 0.840870 -0.592779
O7    O     O_R   0.399010 0.004010 0.002930 -0.574546
O8    O     O_R   0.600990 0.504010 0.997070 -0.585346
C3    C     C_R   0.442596 0.346226 0.200801 1.167146
C4    C     C_R   0.557547 0.844010 0.799089 1.166093
O9    O     O_3   0.480810 0.338440 0.948570 -0.288267
O10   O     O_3   0.519190 0.838440 0.051430 -0.285246
V1    V     V_3+5 0.503560 0.064490 0.009540 1.289711
V2    V     V_3+5 0.496440 0.564490 0.990460 1.284548
C5    C     C_R   0.576735 0.833902 0.506634 0.404250
C6    C     C_R   0.423150 0.400364 0.491938 0.407582
H1    H     H_    0.654791 0.838577 0.297241 0.179658
H2    H     H_    0.345229 0.414605 0.701406 0.181885
C7    C     C_R   0.592378 0.847659 0.683242 -0.452050
C8    C     C_R   0.407611 0.359374 0.316412 -0.447802
C9    C     C_R   0.952272 0.841676 0.381565 0.373847
C10   C     C_R   0.048003 0.361545 0.618033 0.382336
C11   C     C_R   0.920198 0.815277 0.492881 0.419348
C12   C     C_R   0.079910 0.375258 0.505846 0.417495
C13   C     C_R   0.840504 0.803679 0.537271 -0.154802
C14   C     C_R   0.159430 0.390527 0.461040 -0.156116
C15   C     C_R   0.789404 0.841695 0.477487 0.066554
C16   C     C_R   0.210794 0.367835 0.522125 0.068705
C17   C     C_R   0.821040 0.860397 0.364458 -0.153156
C18   C     C_R   0.179311 0.361733 0.635707 -0.154570
C19   C     C_R   0.707322 0.853062 0.526734 -0.020538
C20   C     C_R   0.292928 0.360405 0.473222 -0.018608
C21   C     C_R   0.658069 0.842461 0.460782 -0.127101
C22   C     C_R   0.341998 0.386989 0.538425 -0.126295
C23   C     C_R   0.690542 0.844310 0.349832 -0.180613
C24   C     C_R   0.309562 0.396412 0.649319 -0.183183
C25   C     C_R   0.769167 0.868471 0.302560 0.344656
C26   C     C_R   0.231236 0.369020 0.697674 0.342947
C27   C     C_R   0.672184 0.877619 0.638964 0.197325
C28   C     C_R   0.328322 0.324346 0.362089 0.198702
C29   C     C_R   0.544735 0.822368 0.618228 0.465466
C30   C     C_R   0.454850 0.401510 0.380045 0.455870
C31   C     C_R   0.903093 0.862650 0.317635 -0.309122
C32   C     C_R   0.097290 0.357225 0.682609 -0.309916
H3    H     H_    0.819789 0.761938 0.619834 0.204549
H4    H     H_    0.179801 0.422681 0.376995 0.204465
C33   C     C_1   0.215940 0.858090 0.002001 -0.054564
C34   C     C_1   0.784106 0.359536 0.997658 -0.057068
C35   C     C_1   0.283376 0.852584 0.000339 -0.124348
C36   C     C_1   0.716675 0.352507 0.999403 -0.124395
O11   O     O_R   0.899030 0.205490 0.002790 -0.550804
O12   O     O_R   0.100970 0.705490 0.997210 -0.572273
O13   O     O_R   0.042000 0.536370 0.840840 -0.597738
O14   O     O_R   0.958000 0.036370 0.159160 -0.583972
C37   C     C_R   0.060336 0.367560 0.799104 1.110973
C38   C     C_R   0.939999 0.869475 0.201091 1.113869
O15   O     O_R   0.895930 0.535070 0.992690 -0.570711
O16   O     O_R   0.104070 0.035070 0.007310 -0.551548
O17   O     O_R   0.953870 0.707520 0.150040 -0.599315
O18   O     O_R   0.046130 0.207520 0.849960 -0.584582
C39   C     C_R   0.864486 0.367024 0.997217 1.025305
C40   C     C_R   0.135544 0.866342 0.002633 1.025751
O19   O     O_3   0.019200 0.374340 0.051340 -0.276630
O20   O     O_3   0.980800 0.874340 0.948660 -0.274835
V3    V     V_3+5 0.996440 0.648350 0.990470 1.312116
V4    V     V_3+5 0.003560 0.148350 0.009530 1.335752
O21   O     O_3   0.466274 0.801048 0.667129 -0.755081
H5    H     H_    0.439302 0.784456 0.612489 0.380093
O22   O     O_3   0.532873 0.427957 0.330108 -0.755829
H6    H     H_    0.559322 0.459204 0.383819 0.380446
O23   O     O_3   0.527465 0.836174 0.444665 -0.752983
H7    H     H_    0.543501 0.940453 0.393106 0.327331
O24   O     O_3   0.472604 0.411466 0.553447 -0.753430
H8    H     H_    0.457418 0.313236 0.608956 0.327496
N1    N     N_R   0.713995 0.957824 0.705987 0.228527
O25   O     O_R   0.751688 0.114136 0.678592 -0.382937
O26   O     O_R   0.713286 0.878090 0.795302 -0.405834
N2    N     N_R   0.287685 0.227711 0.298648 0.228088
O27   O     O_R   0.287569 0.292674 0.206158 -0.407389
O28   O     O_R   0.251883 0.071319 0.332668 -0.383120
O29   O     O_3   0.031076 0.837932 0.331598 -0.744572
H9    H     H_    0.056275 0.760667 0.374070 0.353239
O30   O     O_3   0.969170 0.362077 0.667959 -0.742519
H10   H     H_    0.942845 0.426077 0.621912 0.356059
O31   O     O_3   0.964423 0.800482 0.561417 -0.733940
H11   H     H_    0.012319 0.873616 0.532049 0.330333
O32   O     O_3   0.035675 0.374832 0.436920 -0.731194
H12   H     H_    0.989125 0.297995 0.468414 0.329748
N3    N     N_R   0.792590 0.923661 0.193509 0.207372
O33   O     O_R   0.787402 0.101643 0.174874 -0.433626
O34   O     O_R   0.789853 0.801614 0.120165 -0.401417
N4    N     N_R   0.208306 0.328736 0.808948 0.209574
O35   O     O_R   0.212045 0.154051 0.835334 -0.426078
O36   O     O_R   0.213751 0.459945 0.876084 -0.411259

loop_
_geom_bond_atom_site_label_1
_geom_bond_atom_site_label_2
_geom_bond_distance
_ccdc_geom_bond_type
O20   V4    2.183016 S    
O31   H11   0.990185 S    
C28   N2    1.439859 S    
C6    O24   1.379880 S    
C9    C31   1.407209 A    
C13   C15   1.412250 A    
O23   H7    0.990684 S    
O1    C3    1.306964 A    
O2    C4    1.308638 A    
C2    O7    1.309389 A    
C37   O18   1.309150 A    
N1    O25   1.301479 A    
C12   O32   1.379881 S    
O5    C3    1.310515 A    
C9    O29   1.383635 S    
C21   C23   1.394171 A    
C10   C12   1.412276 A    
C27   N1    1.439580 S    
C15   C19   1.437376 A    
C11   O31   1.379949 S    
C30   O22   1.385251 S    
O11   V4    1.970751 S    
H1    C23   1.082122 S    
O15   V3    1.992027 S    
C7    C29   1.398229 A    
C8    C30   1.398084 A    
C17   C25   1.419917 A    
C33   C35   1.220614 T    
C20   C28   1.422997 A    
C34   C36   1.220939 T    
C1    C36   1.460604 S    
C2    C35   1.460060 S    
C16   C18   1.425096 A    
C10   O30   1.383962 S    
C38   O17   1.308865 A    
O5    V1    2.035778 S    
O20   V3    1.749927 S    
O6    V2    2.053105 S    
C33   C40   1.460744 S    
C5    O23   1.380012 S    
C34   C39   1.461407 S    
N4    O35   1.297458 A    
C18   C32   1.431561 A    
C25   N3    1.421662 S    
N1    O26   1.301844 A    
C31   C38   1.471944 S    
C16   C20   1.436567 A    
N2    O28   1.301494 A    
N3    O33   1.297454 A    
O12   V3    1.973241 S    
O19   V3    2.194249 S    
O30   H10   0.989366 S    
C4    C7    1.457924 S    
O4    V2    1.986445 S    
O24   H8    0.990583 S    
C5    C29   1.404153 A    
C6    C30   1.404000 A    
N3    O34   1.299994 A    
H2    C24   1.082115 S    
O17   V3    2.036972 S    
O29   H9    0.989701 S    
O6    C4    1.308556 A    
O19   V4    1.741950 S    
O1    V2    2.044975 S    
N4    O36   1.299529 A    
O2    V1    2.035513 S    
C7    C27   1.408222 A    
O4    C2    1.308589 A    
O13   C37   1.311333 A    
C32   C37   1.471076 S    
O3    V1    1.992056 S    
C13   H3    1.077407 S    
C14   H4    1.077532 S    
O15   C39   1.318665 A    
C26   N4    1.422418 S    
N2    O27   1.301828 A    
O3    C1    1.311444 A    
O13   V3    2.035779 S    
C11   C13   1.391757 A    
C3    C8    1.456792 S    
C12   C14   1.391437 A    
O18   V4    2.046569 S    
O16   C40   1.318263 A    
C19   C27   1.423772 A    
C22   C24   1.394028 A    
O7    V1    1.978106 S    
C10   C32   1.407551 A    
O22   H6    0.989549 S    
C15   C17   1.425241 A    
O14   V4    2.053085 S    
C24   C26   1.387882 A    
O11   C39   1.318597 A    
C8    C28   1.407906 A    
O12   C40   1.317011 A    
C14   C16   1.412298 A    
C19   C21   1.422693 A    
O14   C38   1.311049 A    
C20   C22   1.422305 A    
C18   C26   1.420859 A    
O21   H5    0.989525 S    
C1    O8    1.308505 A    
C9    C11   1.412283 A    
O16   V4    1.986418 S    
C23   C25   1.387517 A    
C17   C31   1.431587 A    
O9    V2    1.742667 S    
O10   V1    1.750662 S    
O8    V2    1.975473 S    
C5    C21   1.419790 A    
O32   H12   0.990247 S    
C29   O21   1.385404 S    
C6    C22   1.419860 A    
