data_mof_unit_61585.cif
_audit_creation_date              2012-12-10T18:07:13-0500
_audit_creation_method            fapswitch 2.2
_symmetry_space_group_name_H-M    P1
_symmetry_Int_Tables_number       1
_space_group_crystal_system       triclinic
_cell_length_a                    18.343593
_cell_length_b                    18.343699
_cell_length_c                    42.907028
_cell_angle_alpha                 90.000583
_cell_angle_beta                  90.00075
_cell_angle_gamma                 89.990989
_cell_volume                      14437.7577203

loop_
_atom_site_label
_atom_site_type_symbol
_atom_type_description
_atom_site_fract_x
_atom_site_fract_y
_atom_site_fract_z
_atom_type_partial_charge
C1    C     C_R   0.434118 0.995919 0.114790 -0.195951
C2    C     C_R   0.565853 0.004140 0.885210 -0.195939
C3    C     C_R   0.994294 0.434271 0.114798 -0.195934
C4    C     C_R   0.005982 0.565704 0.885200 -0.195939
C5    C     C_R   0.565878 0.004085 0.114790 -0.195953
C6    C     C_R   0.434149 0.995861 0.885209 -0.195940
C7    C     C_R   0.005703 0.565728 0.114799 -0.195925
C8    C     C_R   0.994018 0.434299 0.885200 -0.195910
C9    C     C_R   0.934152 0.495931 0.614792 -0.195952
C10   C     C_R   0.065840 0.504460 0.385207 -0.195936
C11   C     C_R   0.494200 0.934266 0.614798 -0.195948
C12   C     C_R   0.505760 0.065743 0.385202 -0.195938
C13   C     C_R   0.065847 0.504069 0.614793 -0.195956
C14   C     C_R   0.934165 0.495538 0.385206 -0.195938
C15   C     C_R   0.505795 0.065731 0.614798 -0.195921
C16   C     C_R   0.494239 0.934257 0.385201 -0.195928
C17   C     C_R   0.433708 0.995864 0.082266 0.265423
C18   C     C_R   0.566258 0.004204 0.917735 0.265356
C19   C     C_R   0.994192 0.433864 0.082273 0.265456
C20   C     C_R   0.006087 0.566109 0.917725 0.265417
C21   C     C_R   0.566288 0.004143 0.082267 0.265423
C22   C     C_R   0.433742 0.995800 0.917733 0.265349
C23   C     C_R   0.005802 0.566136 0.082274 0.265455
C24   C     C_R   0.993911 0.433894 0.917725 0.265422
C25   C     C_R   0.933744 0.495866 0.582267 0.265385
C26   C     C_R   0.066248 0.504525 0.417731 0.265380
C27   C     C_R   0.494094 0.933859 0.582274 0.265456
C28   C     C_R   0.505860 0.066153 0.417726 0.265497
C29   C     C_R   0.066256 0.504134 0.582268 0.265375
C30   C     C_R   0.933756 0.495473 0.417729 0.265382
C31   C     C_R   0.505899 0.066137 0.582275 0.265465
C32   C     C_R   0.494138 0.933847 0.417725 0.265497
C33   C     C_R   0.499999 0.000001 0.131302 -0.117490
C34   C     C_R   0.500001 0.000000 0.868694 -0.117556
C35   C     C_R   0.999999 0.499999 0.131313 -0.117608
C36   C     C_R   0.000000 0.500001 0.868685 -0.117624
C37   C     C_R   0.999999 0.500000 0.631309 -0.117569
C38   C     C_R   0.000002 0.499999 0.368692 -0.117538
C39   C     C_R   0.499998 0.999999 0.631310 -0.117630
C40   C     C_R   0.500000 0.000000 0.368691 -0.117592
C41   C     C_R   0.000002 0.500000 0.468474 0.371702
C42   C     C_R   0.000001 0.499999 0.531519 0.371639
C43   C     C_R   0.499998 0.999999 0.468478 0.371268
C44   C     C_R   0.499996 0.999997 0.531528 0.371288
C45   C     C_R   0.499999 0.000003 0.968474 0.371783
C46   C     C_R   0.499998 0.000004 0.031519 0.371745
C47   C     C_R   0.999998 0.500002 0.968473 0.371319
C48   C     C_R   0.999996 0.500000 0.031518 0.371260
C49   C     C_R   0.500000 0.000000 0.334347 0.839793
C50   C     C_R   0.500000 1.000000 0.665654 0.839758
C51   C     C_R   0.000001 0.500000 0.334347 0.839860
C52   C     C_R   0.999999 0.500000 0.665654 0.839863
C53   C     C_R   0.000000 0.500000 0.834344 0.839796
C54   C     C_R   1.000000 0.500000 0.165656 0.839833
C55   C     C_R   0.500000 0.000000 0.834347 0.839830
C56   C     C_R   0.499999 0.000000 0.165650 0.839841
C57   C     C_R   0.360007 0.139993 0.250000 0.805855
C58   C     C_R   0.639992 0.860005 0.750001 0.805771
C59   C     C_R   0.860004 0.360003 0.250000 0.808528
C60   C     C_R   0.139997 0.639998 0.750000 0.808475
C61   C     C_R   0.639993 0.860007 0.250000 0.805831
C62   C     C_R   0.360006 0.139990 0.749998 0.805938
C63   C     C_R   0.139996 0.639996 0.250001 0.808581
C64   C     C_R   0.860004 0.360003 0.750000 0.808597
C65   C     C_R   0.360003 0.860002 0.750000 0.808462
C66   C     C_R   0.639995 0.139995 0.250000 0.808557
C67   C     C_R   0.860006 0.639991 0.750000 0.805786
C68   C     C_R   0.139994 0.360006 0.250000 0.805835
C69   C     C_R   0.639997 0.139998 0.750000 0.808588
C70   C     C_R   0.360004 0.860005 0.249999 0.808599
C71   C     C_R   0.139992 0.360005 0.750000 0.805932
C72   C     C_R   0.860008 0.639992 0.250000 0.805848
C73   C     C_R   0.280752 0.773201 0.221503 -0.059316
C74   C     C_R   0.719272 0.226776 0.778491 -0.059319
C75   C     C_R   0.175976 0.229940 0.252807 -0.058815
C76   C     C_R   0.824045 0.770078 0.747297 -0.058883
C77   C     C_R   0.719413 0.226631 0.221496 -0.059398
C78   C     C_R   0.280263 0.773687 0.778514 -0.059625
C79   C     C_R   0.824028 0.770059 0.252822 -0.058793
C80   C     C_R   0.176004 0.229970 0.747015 -0.058669
C81   C     C_R   0.229975 0.176004 0.747008 -0.058605
C82   C     C_R   0.770061 0.824026 0.252817 -0.058801
C83   C     C_R   0.226316 0.719736 0.778515 -0.059511
C84   C     C_R   0.773382 0.280567 0.221497 -0.059374
C85   C     C_R   0.770080 0.824043 0.747299 -0.058902
C86   C     C_R   0.229944 0.175974 0.252812 -0.058796
C87   C     C_R   0.773218 0.280739 0.778493 -0.059273
C88   C     C_R   0.226785 0.719260 0.221506 -0.059278
C89   C     C_R   0.780737 0.273218 0.721509 -0.059305
C90   C     C_R   0.219259 0.726791 0.278495 -0.059320
C91   C     C_R   0.675953 0.729914 0.752698 -0.058892
C92   C     C_R   0.324025 0.270056 0.247186 -0.058780
C93   C     C_R   0.219736 0.726312 0.721486 -0.059635
C94   C     C_R   0.780568 0.273384 0.278504 -0.059434
C95   C     C_R   0.323994 0.270022 0.752985 -0.058685
C96   C     C_R   0.675973 0.729939 0.247183 -0.058808
C97   C     C_R   0.729940 0.675972 0.247180 -0.058793
C98   C     C_R   0.270022 0.323990 0.752990 -0.058591
C99   C     C_R   0.726628 0.219420 0.278505 -0.059361
C100  C     C_R   0.273691 0.780255 0.721485 -0.059540
C101  C     C_R   0.270060 0.324025 0.247191 -0.058801
C102  C     C_R   0.729918 0.675952 0.752701 -0.058905
C103  C     C_R   0.273204 0.780755 0.278495 -0.059249
C104  C     C_R   0.726774 0.219272 0.721507 -0.059299
C105  C     C_R   0.196174 0.696174 0.250001 -0.095886
C106  C     C_R   0.803827 0.303829 0.750001 -0.095903
C107  C     C_R   0.303829 0.196170 0.250000 -0.099547
C108  C     C_R   0.696170 0.803824 0.750002 -0.099611
C109  C     C_R   0.803827 0.303824 0.250000 -0.095930
C110  C     C_R   0.196172 0.696174 0.750000 -0.096038
C111  C     C_R   0.696172 0.803828 0.250000 -0.099549
C112  C     C_R   0.303830 0.196169 0.749997 -0.099448
C113  C     C_R   0.196168 0.303824 0.750003 -0.099474
C114  C     C_R   0.803829 0.696170 0.250000 -0.099530
C115  C     C_R   0.303827 0.803825 0.749999 -0.096041
C116  C     C_R   0.696171 0.196174 0.250000 -0.095899
C117  C     C_R   0.803829 0.696171 0.749998 -0.099589
C118  C     C_R   0.196173 0.303828 0.250000 -0.099560
C119  C     C_R   0.696173 0.196173 0.749999 -0.095926
C120  C     C_R   0.303828 0.803827 0.249999 -0.095859
C121  C     C_R   0.499998 0.000004 0.065718 -0.085455
C122  C     C_R   0.500000 0.000003 0.934284 -0.085406
C123  C     C_R   0.999996 0.500000 0.065716 -0.085475
C124  C     C_R   0.999999 0.500002 0.934279 -0.085439
C125  C     C_R   0.000000 0.499999 0.565712 -0.085424
C126  C     C_R   0.000002 0.500000 0.434280 -0.085405
C127  C     C_R   0.499996 0.999998 0.565722 -0.085496
C128  C     C_R   0.499999 1.000000 0.434278 -0.085514
H1    H     H_    0.382717 0.992211 0.127112 0.204998
H2    H     H_    0.617246 0.007901 0.872888 0.205005
H3    H     H_    0.989267 0.382991 0.127124 0.205082
H4    H     H_    0.011237 0.616961 0.872874 0.205108
H5    H     H_    0.617279 0.007792 0.127113 0.205016
H6    H     H_    0.382755 0.992099 0.872886 0.205057
H7    H     H_    0.010732 0.617007 0.127126 0.205065
H8    H     H_    0.988765 0.383041 0.872873 0.205058
H9    H     H_    0.882757 0.492222 0.627115 0.205016
H10   H     H_    0.117213 0.508479 0.372884 0.205021
H11   H     H_    0.489101 0.882992 0.627125 0.205111
H12   H     H_    0.510828 0.117020 0.372876 0.205075
H13   H     H_    0.117241 0.507779 0.627117 0.205070
H14   H     H_    0.882790 0.491519 0.372882 0.205041
H15   H     H_    0.510894 0.117005 0.627125 0.205062
H16   H     H_    0.489172 0.882980 0.372874 0.205058
N1    N     N_R   0.538329 0.949054 0.015503 -0.095955
N2    N     N_R   0.461668 0.050952 0.984491 -0.095952
N3    N     N_R   0.950276 0.539918 0.015499 -0.095725
N4    N     N_R   0.049717 0.460081 0.984490 -0.095766
N5    N     N_R   0.461668 0.050953 0.015502 -0.095954
N6    N     N_R   0.538330 0.949055 0.984492 -0.095976
N7    N     N_R   0.049718 0.460083 0.015500 -0.095721
N8    N     N_R   0.950278 0.539923 0.984490 -0.095758
N9    N     N_R   0.038541 0.449211 0.515501 -0.095880
N10   N     N_R   0.961457 0.550787 0.484490 -0.095943
N11   N     N_R   0.450267 0.039889 0.515508 -0.095761
N12   N     N_R   0.549729 0.960108 0.484498 -0.095753
N13   N     N_R   0.961461 0.550789 0.515500 -0.095903
N14   N     N_R   0.038546 0.449213 0.484491 -0.095943
N15   N     N_R   0.549726 0.960107 0.515508 -0.095756
N16   N     N_R   0.450267 0.039889 0.484498 -0.095750
O1    O     O_3   0.500000 0.000000 0.250000 -0.503984
O2    O     O_3   0.500000 1.000000 0.750000 -0.503972
O3    O     O_3   0.000000 0.500000 0.250000 -0.503990
O4    O     O_3   0.000000 0.500000 0.750000 -0.503981
O5    O     O_R   0.500000 0.939250 0.319430 -0.637783
O6    O     O_R   0.500000 0.060750 0.680570 -0.637785
O7    O     O_R   0.060750 0.500000 0.319430 -0.637848
O8    O     O_R   0.939250 0.500000 0.680570 -0.637870
O9    O     O_R   0.500000 0.060750 0.319430 -0.637778
O10   O     O_R   0.500000 0.939250 0.680570 -0.637764
O11   O     O_R   0.939250 0.500000 0.319430 -0.637839
O12   O     O_R   0.060750 0.500000 0.680570 -0.637854
O13   O     O_R   1.000000 0.439250 0.819430 -0.637793
O14   O     O_R   0.000000 0.560750 0.180570 -0.637802
O15   O     O_R   0.560750 0.000000 0.819430 -0.637856
O16   O     O_R   0.439250 0.000000 0.180570 -0.637845
O17   O     O_R   1.000000 0.560750 0.819430 -0.637777
O18   O     O_R   0.000000 0.439250 0.180570 -0.637797
O19   O     O_R   0.439250 0.000000 0.819430 -0.637841
O20   O     O_R   0.560750 0.000000 0.180570 -0.637835
O21   O     O_R   0.414500 0.146140 0.268270 -0.631234
O22   O     O_R   0.585500 0.853860 0.731730 -0.631256
O23   O     O_R   0.853860 0.414500 0.268270 -0.630262
O24   O     O_R   0.146140 0.585500 0.731730 -0.630307
O25   O     O_R   0.585500 0.853860 0.268270 -0.631243
O26   O     O_R   0.414500 0.146140 0.731730 -0.631210
O27   O     O_R   0.146140 0.585500 0.268270 -0.630228
O28   O     O_R   0.853860 0.414500 0.731730 -0.630199
O29   O     O_R   0.414500 0.853860 0.731730 -0.630364
O30   O     O_R   0.585500 0.146140 0.268270 -0.630313
O31   O     O_R   0.853860 0.585500 0.731730 -0.631381
O32   O     O_R   0.146140 0.414500 0.268270 -0.631315
O33   O     O_R   0.585500 0.146140 0.731730 -0.630275
O34   O     O_R   0.414500 0.853860 0.268270 -0.630270
O35   O     O_R   0.146140 0.414500 0.731730 -0.631259
O36   O     O_R   0.853860 0.585500 0.268270 -0.631311
O37   O     O_R   0.914500 0.646140 0.768270 -0.631252
O38   O     O_R   0.085500 0.353860 0.231730 -0.631239
O39   O     O_R   0.353860 0.914500 0.768270 -0.630307
O40   O     O_R   0.646140 0.085500 0.231730 -0.630247
O41   O     O_R   0.085500 0.353860 0.768270 -0.631194
O42   O     O_R   0.914500 0.646140 0.231730 -0.631247
O43   O     O_R   0.646140 0.085500 0.768270 -0.630201
O44   O     O_R   0.353860 0.914500 0.231730 -0.630220
O45   O     O_R   0.914500 0.353860 0.231730 -0.630302
O46   O     O_R   0.085500 0.646140 0.768270 -0.630367
O47   O     O_R   0.353860 0.085500 0.231730 -0.631337
O48   O     O_R   0.646140 0.914500 0.768270 -0.631370
O49   O     O_R   0.085500 0.646140 0.231730 -0.630267
O50   O     O_R   0.914500 0.353860 0.768270 -0.630284
O51   O     O_R   0.646140 0.914500 0.231730 -0.631325
O52   O     O_R   0.353860 0.085500 0.768270 -0.631263
Zn1   Zn    Zn3+2 0.413200 0.000000 0.224130 1.007169
Zn2   Zn    Zn3+2 0.586800 0.000000 0.775870 1.007129
Zn3   Zn    Zn3+2 1.000000 0.413200 0.224130 1.007172
Zn4   Zn    Zn3+2 1.000000 0.586800 0.775870 1.007114
Zn5   Zn    Zn3+2 0.586800 0.000000 0.224130 1.007148
Zn6   Zn    Zn3+2 0.413200 0.000000 0.775870 1.007140
Zn7   Zn    Zn3+2 0.000000 0.586800 0.224130 1.007193
Zn8   Zn    Zn3+2 0.000000 0.413200 0.775870 1.007231
Zn9   Zn    Zn3+2 0.913200 0.500000 0.724130 1.007124
Zn10  Zn    Zn3+2 0.086800 0.500000 0.275870 1.007163
Zn11  Zn    Zn3+2 0.500000 0.913200 0.724130 1.007113
Zn12  Zn    Zn3+2 0.500000 0.086800 0.275870 1.007185
Zn13  Zn    Zn3+2 0.086800 0.500000 0.724130 1.007142
Zn14  Zn    Zn3+2 0.913200 0.500000 0.275870 1.007143
Zn15  Zn    Zn3+2 0.500000 0.086800 0.724130 1.007229
Zn16  Zn    Zn3+2 0.500000 0.913200 0.275870 1.007200
C129  C     C_1   0.314221 0.795254 0.192285 0.220811
N17   N     N_1   0.340882 0.812824 0.169020 -0.159474
C130  C     C_1   0.685854 0.204680 0.807705 0.220967
N18   N     N_1   0.659228 0.187062 0.830970 -0.159399
C131  C     C_1   0.099997 0.209537 0.256793 0.214092
N19   N     N_1   0.039475 0.193318 0.259973 -0.170865
C132  C     C_1   0.900049 0.790519 0.743403 0.214223
N20   N     N_1   0.960585 0.806765 0.740296 -0.170766
C133  C     C_1   0.686113 0.204416 0.192262 0.221001
N21   N     N_1   0.659590 0.186716 0.168985 -0.159359
C134  C     C_1   0.313180 0.796258 0.807771 0.221353
N22   N     N_1   0.339392 0.814255 0.831070 -0.159134
C135  C     C_1   0.900002 0.790455 0.256835 0.214059
N23   N     N_1   0.960519 0.806667 0.260037 -0.170886
C136  C     C_1   0.100069 0.209628 0.742854 0.213786
N24   N     N_1   0.039575 0.193458 0.739533 -0.171090
C137  C     C_1   0.209639 0.100069 0.742810 0.213685
N25   N     N_1   0.193481 0.039583 0.739456 -0.171187
C138  C     C_1   0.790460 0.899999 0.256814 0.214081
N26   N     N_1   0.806677 0.960519 0.260004 -0.170877
C139  C     C_1   0.203753 0.686809 0.807772 0.221490
N27   N     N_1   0.185766 0.660592 0.831070 -0.159516
C140  C     C_1   0.795660 0.313792 0.192260 0.221074
N28   N     N_1   0.813423 0.340254 0.168981 -0.159675
C141  C     C_1   0.790522 0.900049 0.743412 0.214286
N29   N     N_1   0.806766 0.960588 0.740313 -0.170706
C142  C     C_1   0.209547 0.099999 0.256818 0.214080
N30   N     N_1   0.193336 0.039481 0.260017 -0.170873
C143  C     C_1   0.795294 0.314192 0.807708 0.220788
N31   N     N_1   0.812885 0.340840 0.830973 -0.159894
C144  C     C_1   0.204678 0.685849 0.192285 0.220868
N32   N     N_1   0.187048 0.659232 0.169019 -0.159793
C145  C     C_1   0.814187 0.295284 0.692296 0.220919
N33   N     N_1   0.840842 0.312874 0.669032 -0.159406
C146  C     C_1   0.185827 0.704705 0.307715 0.220880
N34   N     N_1   0.159197 0.687102 0.330980 -0.159512
C147  C     C_1   0.599944 0.709465 0.756578 0.214224
N35   N     N_1   0.539404 0.693216 0.759668 -0.170739
C148  C     C_1   0.400006 0.290450 0.243171 0.214036
N36   N     N_1   0.460525 0.306650 0.239966 -0.170904
C149  C     C_1   0.186823 0.703738 0.692229 0.221345
N37   N     N_1   0.160611 0.685734 0.668931 -0.159114
C150  C     C_1   0.813793 0.295666 0.307740 0.221082
N38   N     N_1   0.840254 0.313435 0.331020 -0.159382
C151  C     C_1   0.399927 0.290364 0.757149 0.213810
N39   N     N_1   0.460417 0.306539 0.760474 -0.171095
C152  C     C_1   0.599999 0.709541 0.243186 0.214088
N40   N     N_1   0.539479 0.693325 0.239997 -0.170865
C153  C     C_1   0.709543 0.599999 0.243171 0.214058
N41   N     N_1   0.693329 0.539482 0.239972 -0.170896
C154  C     C_1   0.290344 0.399907 0.757195 0.213702
N42   N     N_1   0.306507 0.460387 0.760560 -0.171196
C155  C     C_1   0.704391 0.186147 0.307741 0.221018
N43   N     N_1   0.686669 0.159647 0.331018 -0.159710
C156  C     C_1   0.296287 0.813146 0.692227 0.221513
N44   N     N_1   0.314307 0.839333 0.668926 -0.159456
C157  C     C_1   0.290462 0.400004 0.243198 0.214101
N45   N     N_1   0.306674 0.460526 0.240013 -0.170856
C158  C     C_1   0.709467 0.599930 0.756589 0.214265
N46   N     N_1   0.693232 0.539388 0.759685 -0.170699
C159  C     C_1   0.295259 0.814224 0.307714 0.220828
N47   N     N_1   0.312835 0.840888 0.330979 -0.159828
C160  C     C_1   0.704662 0.185859 0.692292 0.220826
N48   N     N_1   0.687035 0.159244 0.669025 -0.159830
Br1   Br    Br    0.341216 0.986536 0.061651 -0.360582
Br2   Br    Br    0.658726 0.013675 0.938357 -0.360606
Br3   Br    Br    0.982399 0.341636 0.061672 -0.360535
Br4   Br    Br    0.018266 0.658270 0.938339 -0.360579
Br5   Br    Br    0.658780 0.013473 0.061654 -0.360575
Br6   Br    Br    0.341273 0.986330 0.938353 -0.360590
Br7   Br    Br    0.017594 0.658364 0.061673 -0.360550
Br8   Br    Br    0.981732 0.341734 0.938338 -0.360581
Br9   Br    Br    0.841251 0.486449 0.561661 -0.360585
Br10  Br    Br    0.158674 0.514425 0.438349 -0.360602
Br11  Br    Br    0.482182 0.841653 0.561671 -0.360565
Br12  Br    Br    0.517686 0.158376 0.438323 -0.360547
Br13  Br    Br    0.158749 0.513551 0.561664 -0.360566
Br14  Br    Br    0.841330 0.485573 0.438346 -0.360596
Br15  Br    Br    0.517810 0.158342 0.561671 -0.360568
Br16  Br    Br    0.482312 0.841623 0.438320 -0.360559

loop_
_geom_bond_atom_site_label_1
_geom_bond_atom_site_label_2
_ccdc_geom_bond_type
C60   O24   A    
C4    C36   A    
O1    Zn5   S    
C78   C115  A    
N4    N7    A    
O22   Zn11  S    
O18   Zn3   S    
C3    H3    S    
C16   H16   S    
C1    H1    S    
C98   C154  S    
C24   Br8   S    
C150  N38   T    
O1    Zn12  S    
C71   C113  S    
C26   C126  A    
C36   C53   S    
C65   O39   A    
C152  N40   T    
C31   Br15  S    
C89   C106  A    
C3    C19   A    
C63   C105  S    
C93   C110  A    
C2    C34   A    
C137  N25   T    
C83   C139  S    
C64   O50   A    
C100  C115  A    
C41   C126  S    
C22   C122  A    
C70   O44   A    
C26   Br10  S    
C140  N28   T    
C99   C116  A    
O25   Zn16  S    
C69   C119  S    
O5    Zn16  S    
C54   O18   A    
C12   C40   A    
C73   C88   A    
C129  N17   T    
O30   Zn12  S    
C14   C38   A    
O12   Zn13  S    
C75   C86   A    
C11   C27   A    
C69   O33   A    
C101  C157  S    
C93   C100  A    
C15   C39   A    
C18   C122  A    
C99   C155  S    
C65   O29   A    
C42   N13   A    
C89   C145  S    
C43   N12   A    
C90   C105  A    
C74   C130  S    
C53   O17   A    
C72   O36   A    
C64   C106  S    
O27   Zn10  S    
C94   C109  A    
C10   C38   A    
C82   C111  A    
C54   O14   A    
C155  N43   T    
C59   C109  S    
C79   C135  S    
C30   Br14  S    
C41   N14   A    
C4    C20   A    
C93   C149  S    
O2    Zn11  S    
C48   N7    A    
C44   N15   A    
C62   O52   A    
O16   Zn1   S    
C10   H10   S    
C91   C147  S    
C76   C85   A    
C66   O40   A    
O3    Zn7   S    
C102  C158  S    
C14   H14   S    
C29   C125  A    
C51   O7    A    
C31   C127  A    
O8    Zn9   S    
C52   O12   A    
C73   C129  S    
C53   O13   A    
C4    H4    S    
C17   Br1   S    
C5    H5    S    
C19   C123  A    
C139  N27   T    
C19   Br3   S    
C56   O16   A    
C21   Br5   S    
C101  C118  A    
C141  N29   T    
C103  C159  S    
C40   C49   S    
C135  N23   T    
N9    N14   A    
C97   C153  S    
C25   C125  A    
C88   C144  S    
C68   C118  S    
O26   Zn15  S    
C70   C120  S    
O6    Zn15  S    
C5    C33   A    
O11   Zn14  S    
O4    Zn13  S    
C58   O48   A    
C74   C87   A    
C131  N19   T    
O31   Zn9   S    
N1    N6    A    
C62   O26   A    
C104  C119  A    
O28   Zn9   S    
C153  N41   T    
C84   C140  S    
C65   C115  S    
O20   Zn5   S    
C27   C127  A    
O4    Zn9   S    
C96   C111  A    
O35   Zn13  S    
O49   Zn7   S    
O15   Zn2   S    
O33   Zn15  S    
C37   C52   S    
C23   C123  A    
C38   C51   S    
C77   C84   A    
O7    Zn10  S    
C71   O35   A    
C81   C112  A    
C3    C35   A    
C154  N42   T    
C61   O25   A    
C159  N47   T    
C83   C110  A    
C5    C21   A    
C47   N8    A    
C59   O23   A    
O37   Zn4   S    
C64   O28   A    
C102  C117  A    
C15   H15   S    
C63   O27   A    
C72   O42   A    
O2    Zn2   S    
C55   O19   A    
C79   C82   A    
C148  N36   T    
C15   C31   A    
C16   C32   A    
C1    C17   A    
C84   C109  A    
C80   C136  S    
C32   C128  A    
O32   Zn10  S    
C89   C104  A    
C88   C105  A    
C60   O46   A    
C33   C56   S    
C7    C23   A    
C66   O30   A    
C8    C24   A    
C20   C124  A    
C46   N5    A    
C80   C113  A    
C156  N44   T    
C97   C114  A    
C142  N30   T    
C61   C111  S    
O2    Zn6   S    
C44   C127  S    
C78   C134  S    
C8    H8    S    
C134  N22   T    
C48   C123  S    
C9    C25   A    
C146  N34   T    
O4    Zn4   S    
O39   Zn6   S    
C66   C116  S    
C12   C28   A    
C13   C29   A    
C95   C112  A    
C56   O20   A    
O9    Zn12  S    
C136  N24   T    
C6    C22   A    
C48   N3    A    
C72   C114  S    
C45   N6    A    
C8    C36   A    
O34   Zn16  S    
O13   Zn8   S    
C11   H11   S    
O3    Zn3   S    
C78   C83   A    
C50   O6    A    
C132  N20   T    
C12   H12   S    
C13   H13   S    
C85   C108  A    
O1    Zn16  S    
C59   O45   A    
C104  C160  S    
C18   Br2   S    
C34   C55   S    
C73   C120  A    
C149  N37   T    
C35   C54   S    
C77   C133  S    
O40   Zn5   S    
C87   C143  S    
C22   Br6   S    
C75   C118  A    
O24   Zn13  S    
C63   O49   A    
O38   Zn3   S    
O51   Zn5   S    
N10   N13   A    
C98   C113  A    
C6    C34   A    
C49   O5    A    
C157  N45   T    
N2    N5    A    
C158  N46   T    
C70   O34   A    
C50   O10   A    
C67   C117  S    
C92   C101  A    
C17   C121  A    
C20   Br4   S    
C23   Br7   S    
O3    Zn10  S    
C32   Br16  S    
O48   Zn2   S    
C91   C108  A    
O41   Zn8   S    
C67   O37   A    
C43   C128  S    
C45   C122  S    
C76   C117  A    
C95   C151  S    
C58   O22   A    
C49   O9    A    
C47   C124  S    
C145  N33   T    
C100  C156  S    
C2    H2    S    
C103  C120  A    
C58   C108  S    
C90   C103  A    
C60   C110  S    
O10   Zn11  S    
C62   C112  S    
O45   Zn3   S    
O14   Zn7   S    
C28   C128  A    
C30   C126  A    
C2    C18   A    
O43   Zn2   S    
C86   C107  A    
O47   Zn1   S    
C57   O21   A    
O2    Zn15  S    
C95   C98   A    
C1    C33   A    
C74   C119  A    
C82   C138  S    
C143  N31   T    
C67   O31   A    
C46   N1    A    
C68   O32   A    
C25   Br9   S    
C24   C124  A    
O50   Zn8   S    
C68   O38   A    
C61   O51   A    
C27   Br11  S    
C28   Br12  S    
C42   C125  S    
C92   C148  S    
C46   C121  S    
C77   C116  A    
C147  N35   T    
C13   C37   A    
C10   C26   A    
C160  N48   T    
O21   Zn12  S    
O17   Zn4   S    
C14   C30   A    
O23   Zn14  S    
O36   Zn14  S    
C45   N2    A    
C81   C137  S    
C42   N9    A    
C43   N16   A    
C86   C142  S    
O44   Zn1   S    
O42   Zn7   S    
C7    H7    S    
C92   C107  A    
C96   C97   A    
C9    C37   A    
C151  N39   T    
C29   Br13  S    
C11   C39   A    
C90   C146  S    
C55   O15   A    
C57   C107  S    
C16   C40   A    
C69   O43   A    
O19   Zn6   S    
C91   C102  A    
C144  N32   T    
O3    Zn14  S    
C41   N10   A    
O46   Zn4   S    
C71   O41   A    
O1    Zn1   S    
C47   N4    A    
N11   N16   A    
C44   N11   A    
C7    C35   A    
N12   N15   A    
C80   C81   A    
C138  N26   T    
O29   Zn11  S    
C57   O47   A    
C85   C141  S    
C51   O11   A    
N3    N8    A    
C9    H9    S    
C6    H6    S    
C52   O8    A    
O4    Zn8   S    
C87   C106  A    
O52   Zn6   S    
C94   C99   A    
C94   C150  S    
C75   C131  S    
C76   C132  S    
C21   C121  A    
C39   C50   S    
C79   C114  A    
C130  N18   T    
C96   C152  S    
C133  N21   T    
