data_mof_unit_11362.cif
_audit_creation_date              2012-10-26T18:27:32-0400
_audit_creation_method            fapswitch 2.2
_symmetry_space_group_name_H-M    P1
_symmetry_Int_Tables_number       1
_space_group_crystal_system       triclinic
_cell_length_a                    10.821356
_cell_length_b                    10.939974
_cell_length_c                    9.864834
_cell_angle_alpha                 110.502564
_cell_angle_beta                  99.620283
_cell_angle_gamma                 91.149005
_cell_volume                      1074.58078679

loop_
_atom_site_label
_atom_site_type_symbol
_atom_type_description
_atom_site_fract_x
_atom_site_fract_y
_atom_site_fract_z
_atom_type_partial_charge
C1    C     C_R   0.495045 0.253587 0.441391 0.572824
C2    C     C_2   0.568345 0.937055 0.501144 0.251752
C3    C     C_2   0.512893 0.509229 0.082630 0.088760
C4    C     C_R   0.261412 0.500575 0.499570 0.572317
C5    C     C_2   0.491508 0.487922 0.920190 0.385155
C6    C     C_R   0.512882 0.746211 0.558627 0.567263
C7    C     C_R   0.735957 0.483456 0.497729 0.583081
C8    C     C_R   0.151068 0.629931 0.763822 -0.071233
C9    C     C_R   0.116035 0.645442 0.898200 0.290693
C10   C     C_R   0.010613 0.571419 0.901524 0.167317
C11   C     C_R   0.931226 0.495174 0.768161 0.255574
C12   C     C_R   0.078967 0.542632 0.630537 -0.090662
C13   C     C_R   0.957249 0.498135 0.632576 -0.017863
C14   C     C_R   0.125330 0.492698 0.496921 0.015445
C15   C     C_R   0.041654 0.416663 0.365128 0.231731
C16   C     C_R   0.912318 0.408773 0.364341 0.093446
C17   C     C_R   0.869023 0.458028 0.498213 0.037850
C18   C     C_2   0.506822 0.114051 0.410687 0.254935
C19   C     C_2   0.553266 0.074213 0.522025 -0.066469
C20   C     C_2   0.520621 0.886392 0.588797 -0.062779
Cl1   Cl    Cl    0.093867 0.324269 0.200797 -0.524373
Cl2   Cl    Cl    0.460101 0.004058 0.227149 -0.371941
Cl3   Cl    Cl    0.374861 0.363266 0.803919 -0.560777
Cl4   Cl    Cl    0.658858 0.687207 0.975998 -0.418634
Cl5   Cl    Cl    0.213741 0.746564 0.062383 -0.416200
Cl6   Cl    Cl    0.823238 0.372241 0.770682 -0.567021
Cl7   Cl    Cl    0.660109 0.848036 0.372539 -0.446263
Cu1   Cu    Cu3+1 0.521920 0.521810 0.644910 1.181005
Cu2   Cu    Cu3+1 0.478080 0.478190 0.355090 1.138049
H1    H     H_    0.588574 0.578518 0.157373 0.207422
H2    H     H_    0.371843 0.379931 0.069177 0.290951
H3    H     H_    0.235125 0.685930 0.765448 0.181735
H4    H     H_    0.575097 0.143647 0.634737 0.153888
H5    H     H_    0.478988 0.948529 0.679228 0.108979
H6    H     H_    0.990088 0.476740 0.039887 0.293014
H7    H     H_    0.896771 0.600627 0.051169 0.290711
H8    H     H_    0.836129 0.391535 0.155331 0.268040
H9    H     H_    0.844307 0.247236 0.184264 0.301260
N1    N     N_2   0.445130 0.445430 0.137370 -0.338334
N2    N     N_2   0.554930 0.554500 0.862630 -0.035025
N3    N     N_3   0.987185 0.572155 0.040445 -0.513015
N4    N     N_3   0.824722 0.344952 0.229141 -0.555657
O1    O     O_R   0.511700 0.332330 0.577400 -0.480890
O2    O     O_R   0.474680 0.295500 0.332650 -0.450232
O3    O     O_R   0.338160 0.518420 0.622400 -0.491061
O4    O     O_R   0.301140 0.481590 0.377650 -0.439473
O5    O     O_R   0.525320 0.704500 0.667350 -0.464986
O6    O     O_R   0.488300 0.667670 0.422600 -0.457320
O7    O     O_R   0.698860 0.518410 0.622350 -0.454493
O8    O     O_R   0.661840 0.481580 0.377600 -0.488491

loop_
_geom_bond_atom_site_label_1
_geom_bond_atom_site_label_2
_ccdc_geom_bond_type
C3    H1    S    
Cu1   O5    S    
C2    Cl7   S    
C6    C20   S    
C9    C10   A    
C1    O2    A    
C5    Cl3   S    
C13   C17   A    
Cu2   O4    S    
C8    C12   A    
C20   H5    S    
Cu2   N1    S    
H7    N3    S    
C9    Cl5   S    
C4    O4    A    
C10   N3    S    
C11   C13   A    
C1    C18   S    
C6    O6    A    
Cu1   Cu2   S    
Cl4   N2    S    
C12   C14   A    
H9    N4    S    
Cu2   O8    S    
Cu2   O2    S    
C4    C14   S    
H6    N3    S    
Cu1   O3    S    
C10   C11   A    
Cu1   N2    S    
Cu2   O6    S    
C3    N1    D    
C4    O3    A    
C8    H3    S    
C16   N4    S    
C15   Cl1   S    
C12   C13   A    
C7    O7    A    
C18   C19   D    
C6    O5    A    
C5    N2    D    
H8    N4    S    
H2    N1    S    
C14   C15   A    
C8    C9    A    
Cu1   O1    S    
C11   Cl6   S    
C3    C5    S    
C2    C19   S    
C18   Cl2   S    
C2    C20   D    
C1    O1    A    
C15   C16   A    
C7    O8    A    
C19   H4    S    
C16   C17   A    
C7    C17   S    
Cu1   O7    S    
