data_mof_unit_41483.cif
_audit_creation_date              2012-12-10T17:00:46-0500
_audit_creation_method            fapswitch 2.2
_symmetry_space_group_name_H-M    P1
_symmetry_Int_Tables_number       1
_space_group_crystal_system       triclinic
_cell_length_a                    10.774873
_cell_length_b                    10.840911
_cell_length_c                    10.033401
_cell_angle_alpha                 90.195015
_cell_angle_beta                  101.582499
_cell_angle_gamma                 89.588756
_cell_volume                      1148.09827107

loop_
_atom_site_label
_atom_site_type_symbol
_atom_type_description
_atom_site_fract_x
_atom_site_fract_y
_atom_site_fract_z
_atom_type_partial_charge
C1    C     C_R   0.497259 0.263546 0.498707 0.931566
C2    C     C_2   0.125386 0.479962 0.421815 -0.407071
C3    C     C_2   0.069293 0.420230 0.511099 -0.020124
C4    C     C_2   0.875483 0.475540 0.578596 -0.412707
C5    C     C_2   0.932727 0.421057 0.485889 -0.022307
C6    C     C_2   0.535758 0.938852 0.401014 -0.024970
C7    C     C_R   0.867701 0.365036 0.355497 0.213017
C8    C     C_R   0.836981 0.437573 0.237438 -0.104188
C9    C     C_R   0.797385 0.381896 0.110586 -0.147613
C10   C     C_R   0.787408 0.253947 0.100711 -0.115401
C11   C     C_R   0.816759 0.181126 0.217836 -0.172510
C12   C     C_2   0.534248 0.868082 0.511921 -0.224860
C13   C     C_R   0.856877 0.236458 0.344978 -0.182129
C14   C     C_R   0.137095 0.346773 0.628407 0.200441
C15   C     C_R   0.166230 0.398618 0.759439 -0.098872
C16   C     C_R   0.218999 0.325413 0.871113 -0.180200
C17   C     C_R   0.243909 0.200580 0.852697 -0.102869
C18   C     C_R   0.215703 0.148729 0.722473 -0.140435
C19   C     C_R   0.162759 0.221501 0.610468 -0.189859
C20   C     C_1   0.508663 0.892830 0.263088 0.195279
C21   C     C_R   0.568042 0.916505 0.653504 0.158608
C22   C     C_R   0.474933 0.920227 0.733243 -0.149244
C23   C     C_2   0.550638 0.070877 0.413753 -0.228217
C24   C     C_R   0.504736 0.961477 0.867085 -0.121972
C25   C     C_R   0.629048 0.993314 0.924867 -0.119558
C26   C     C_R   0.723098 0.988573 0.846872 -0.169361
C27   C     C_R   0.692539 0.951353 0.710675 -0.125237
C28   C     C_2   0.486466 0.133834 0.492102 -0.304534
C29   C     C_2   0.549567 0.587349 0.936153 -0.151938
C30   C     C_2   0.560049 0.580793 0.087961 -0.106708
C31   C     C_R   0.260135 0.494749 0.446008 0.934619
C32   C     C_R   0.505675 0.737583 0.501535 0.876641
C33   C     C_R   0.740215 0.493754 0.553994 0.930226
H1    H     H_    0.474549 0.420964 0.892191 0.176802
H2    H     H_    0.776702 0.437728 0.019552 0.144263
H3    H     H_    0.758712 0.212033 0.001737 0.138817
H4    H     H_    0.811367 0.081705 0.210382 0.124198
H5    H     H_    0.883204 0.179091 0.434525 0.123407
H6    H     H_    0.147427 0.495240 0.775192 0.118429
H7    H     H_    0.239332 0.365199 0.972074 0.127856
H8    H     H_    0.283894 0.143944 0.939514 0.124256
H9    H     H_    0.232671 0.051711 0.708497 0.119065
H10   H     H_    0.139516 0.179859 0.510345 0.121958
H11   H     H_    0.379019 0.891783 0.690641 0.115125
H12   H     H_    0.619202 0.648397 0.149935 0.164835
H13   H     H_    0.431224 0.967609 0.925836 0.143483
H14   H     H_    0.651751 0.021209 0.030173 0.128525
H15   H     H_    0.819527 0.013435 0.891967 0.131339
H16   H     H_    0.765693 0.947287 0.650849 0.120597
H17   H     H_    0.440320 0.441654 0.088886 0.158579
H18   H     H_    0.930267 0.509500 0.674182 0.141087
H19   H     H_    0.070442 0.523381 0.331542 0.140621
H20   H     H_    0.607882 0.117425 0.351795 0.177182
H21   H     H_    0.421172 0.091140 0.546785 0.151050
H22   H     H_    0.588713 0.667698 0.895824 0.182752
H23   H     H_    0.847127 0.536868 0.243437 0.109883
N1    N     N_2   0.501330 0.501330 0.852460 -0.196924
N2    N     N_2   0.501370 0.501360 0.148130 -0.187069
N3    N     N_1   0.485640 0.855611 0.152925 -0.246990
O1    O     O_R   0.499980 0.319060 0.613030 -0.607482
O2    O     O_R   0.500020 0.319100 0.386910 -0.615230
O3    O     O_R   0.317800 0.500000 0.570840 -0.600716
O4    O     O_R   0.317840 0.500040 0.344720 -0.614238
O5    O     O_R   0.499980 0.680900 0.613090 -0.612336
O6    O     O_R   0.500020 0.680940 0.386970 -0.601916
O7    O     O_R   0.682160 0.499960 0.655280 -0.613408
O8    O     O_R   0.682200 0.500000 0.429160 -0.607125
Zn1   Zn    Zn3+2 0.499970 0.499970 0.650990 0.950249
Zn2   Zn    Zn3+2 0.500030 0.500030 0.349010 0.951565

loop_
_geom_bond_atom_site_label_1
_geom_bond_atom_site_label_2
_ccdc_geom_bond_type
H1    N1    S    
O7    Zn1   S    
N2    Zn2   S    
C29   C30   S    
C12   C21   S    
O3    Zn1   S    
C1    C28   S    
C31   O4    A    
C6    C20   S    
C9    C10   A    
C25   H14   S    
C30   H12   S    
C29   H22   S    
C14   C15   A    
C26   H15   S    
C24   H13   S    
C8    H23   S    
C7    C13   A    
C2    C3    D    
C21   C27   A    
C7    C8    A    
C32   O5    A    
C21   C22   A    
C12   C32   S    
C20   N3    T    
C11   C13   A    
C31   O3    A    
C33   O8    A    
C26   C27   A    
C16   C17   A    
C3    C14   S    
C2    H19   S    
C16   H7    S    
C27   H16   S    
O6    Zn2   S    
C6    C23   S    
C30   N2    D    
C2    C31   S    
C19   H10   S    
C33   O7    A    
C23   H20   S    
C22   C24   A    
C18   H9    S    
C6    C12   D    
C17   H8    S    
C10   C11   A    
C4    H18   S    
C9    H2    S    
C15   C16   A    
H17   N2    S    
O5    Zn1   S    
C4    C5    D    
C24   C25   A    
O1    Zn1   S    
C17   C18   A    
C18   C19   A    
C1    O1    A    
O2    Zn2   S    
C5    C7    S    
C15   H6    S    
C28   H21   S    
C4    C33   S    
C8    C9    A    
C10   H3    S    
N1    Zn1   S    
O8    Zn2   S    
C25   C26   A    
C23   C28   D    
C14   C19   A    
C11   H4    S    
C22   H11   S    
C13   H5    S    
O4    Zn2   S    
C29   N1    D    
C32   O6    A    
C3    C5    S    
C1    O2    A    
