data_mof_unit_60087.cif
_audit_creation_date              2012-12-10T19:11:00-0500
_audit_creation_method            fapswitch 2.2
_symmetry_space_group_name_H-M    P1
_symmetry_Int_Tables_number       1
_space_group_crystal_system       triclinic
_cell_length_a                    37.14675
_cell_length_b                    30.247608
_cell_length_c                    21.653169
_cell_angle_alpha                 90.008072
_cell_angle_beta                  54.489881
_cell_angle_gamma                 90.06547
_cell_volume                      19804.5174195

loop_
_atom_site_label
_atom_site_type_symbol
_atom_type_description
_atom_site_fract_x
_atom_site_fract_y
_atom_site_fract_z
_atom_type_partial_charge
C1    C     C_R   0.086292 0.499988 0.412956 0.938436
C2    C     C_R   0.969926 0.468330 0.247212 -0.066332
C3    C     C_R   0.202063 0.976954 0.751330 -0.026722
C4    C     C_R   0.274010 0.500418 0.226367 0.083850
C5    C     C_R   0.726088 0.499801 0.772133 0.090718
C6    C     C_R   0.774009 0.000423 0.226407 0.084026
C7    C     C_R   0.226089 0.999748 0.772143 0.075467
C8    C     C_R   0.999973 0.413726 0.000003 0.843322
C9    C     C_R   0.499972 0.913724 0.000002 0.844906
C10   C     C_R   0.000039 0.498541 0.879928 0.904313
C11   C     C_R   0.999959 0.498546 0.120069 0.904280
C12   C     C_R   0.500039 0.998545 0.879927 0.904797
C13   C     C_R   0.530178 0.968512 0.752649 -0.066459
C14   C     C_R   0.499961 0.998553 0.120079 0.906386
C15   C     C_R   0.000025 0.586252 0.999979 0.886142
C16   C     C_R   0.500025 0.086252 0.999977 0.887118
C17   C     C_R   0.500007 0.413725 0.999990 0.851055
C18   C     C_R   0.000006 0.913725 0.999991 0.853615
C19   C     C_R   0.413776 0.501442 0.086058 0.934608
C20   C     C_R   0.586264 0.501446 0.913915 0.916461
C21   C     C_R   0.913776 0.001443 0.086059 0.933758
C22   C     C_R   0.086265 0.001443 0.913915 0.916518
C23   C     C_R   0.499913 0.586326 0.000086 0.933471
C24   C     C_R   0.469676 0.968590 0.247511 -0.063153
C25   C     C_R   0.999912 0.086326 0.000087 0.932834
C26   C     C_R   0.036281 0.297064 0.987247 -0.187882
C27   C     C_R   0.963302 0.297094 0.012896 -0.182577
C28   C     C_R   0.536324 0.797058 0.987068 -0.187690
C29   C     C_R   0.463247 0.797088 0.013109 -0.182977
C30   C     C_R   0.940644 0.598627 0.741484 0.368167
C31   C     C_R   0.058999 0.598977 0.258870 0.367599
C32   C     C_R   0.440357 0.098449 0.741712 0.367808
C33   C     C_R   0.559744 0.098479 0.258228 0.367229
C34   C     C_R   0.036475 0.342873 0.986763 -0.201610
C35   C     C_R   0.032785 0.470977 0.685498 0.355771
C36   C     C_R   0.963265 0.342905 0.013266 -0.204112
C37   C     C_R   0.536518 0.842868 0.986585 -0.201488
C38   C     C_R   0.463210 0.842900 0.013484 -0.203458
C39   C     C_R   0.999905 0.365874 0.000007 -0.007016
C40   C     C_R   0.499901 0.865870 0.000017 -0.006895
C41   C     C_R   0.999747 0.274180 0.000122 0.102120
C42   C     C_R   0.499742 0.774176 0.000133 0.101851
C43   C     C_R   0.491559 0.703302 0.953406 -0.164125
C44   C     C_R   0.507715 0.703389 0.047222 -0.167636
C45   C     C_R   0.991614 0.203303 0.953333 -0.163950
C46   C     C_R   0.967287 0.470804 0.314403 0.355696
C47   C     C_R   0.007663 0.203392 0.047287 -0.166879
C48   C     C_R   0.491877 0.657475 0.953008 -0.121287
C49   C     C_R   0.507475 0.657568 0.047614 -0.126428
C50   C     C_R   0.991927 0.157476 0.952944 -0.121176
C51   C     C_R   0.007424 0.157570 0.047678 -0.125522
C52   C     C_R   0.499756 0.634396 0.000236 -0.045795
C53   C     C_R   0.999755 0.134397 0.000237 -0.045834
C54   C     C_R   0.499653 0.726244 0.000272 0.094352
C55   C     C_R   0.999656 0.226246 0.000266 0.094085
C56   C     C_R   0.038017 0.703106 0.943471 -0.131499
C57   C     C_R   0.532820 0.971019 0.685459 0.355820
C58   C     C_R   0.962225 0.703056 0.056356 -0.135135
C59   C     C_R   0.538027 0.203105 0.943481 -0.134393
C60   C     C_R   0.462223 0.203058 0.056330 -0.134531
C61   C     C_R   0.038095 0.657284 0.943738 -0.138416
C62   C     C_R   0.962088 0.657238 0.056141 -0.137535
C63   C     C_R   0.538103 0.157283 0.943749 -0.138379
C64   C     C_R   0.462084 0.157241 0.056116 -0.137787
C65   C     C_R   0.000075 0.634211 0.999950 -0.037099
C66   C     C_R   0.500076 0.134211 0.999945 -0.037174
C67   C     C_R   0.937423 0.552059 0.750151 -0.082341
C68   C     C_R   0.467101 0.971044 0.314648 0.407738
C69   C     C_R   0.062412 0.552430 0.250003 -0.082295
C70   C     C_R   0.437272 0.051874 0.750284 -0.080034
C71   C     C_R   0.562865 0.051914 0.249598 -0.080983
C72   C     C_R   0.000135 0.725991 0.999903 0.097506
C73   C     C_R   0.500140 0.225992 0.999895 0.097850
C74   C     C_R   0.487866 0.296835 0.065557 -0.142288
C75   C     C_R   0.512409 0.296861 0.934227 -0.142532
C76   C     C_R   0.987871 0.796836 0.065559 -0.139401
C77   C     C_R   0.012389 0.796860 0.934242 -0.141041
C78   C     C_R   0.488052 0.342656 0.065490 -0.164212
C79   C     C_R   0.002609 0.499151 0.684096 -0.185221
C80   C     C_R   0.512118 0.342683 0.934363 -0.163326
C81   C     C_R   0.988058 0.842656 0.065490 -0.160748
C82   C     C_R   0.012099 0.842682 0.934376 -0.159770
C83   C     C_R   0.500053 0.365739 0.999948 -0.035642
C84   C     C_R   0.000048 0.865738 0.999953 -0.034789
C85   C     C_R   0.500157 0.273939 0.999880 0.092216
C86   C     C_R   0.000149 0.773938 0.999889 0.092104
C87   C     C_R   0.899777 0.530090 0.765258 -0.245601
C88   C     C_R   0.100154 0.530718 0.234781 -0.245636
C89   C     C_R   0.399675 0.029789 0.765402 -0.248289
C90   C     C_R   0.997400 0.499127 0.315885 -0.185024
C91   C     C_R   0.600507 0.029961 0.234343 -0.246436
C92   C     C_R   0.865325 0.553809 0.772630 -0.212449
C93   C     C_R   0.134513 0.554676 0.227491 -0.212214
C94   C     C_R   0.365139 0.053399 0.772879 -0.220047
C95   C     C_R   0.635053 0.053698 0.226783 -0.212557
C96   C     C_R   0.868300 0.599608 0.764069 -0.246581
C97   C     C_R   0.131346 0.600454 0.236253 -0.245531
C98   C     C_R   0.367983 0.099203 0.764403 -0.244356
C99   C     C_R   0.632165 0.099489 0.235348 -0.246051
C100  C     C_R   0.971849 0.524498 0.810639 -0.154583
C101  C     C_R   0.502598 0.999144 0.684102 -0.185439
C102  C     C_R   0.028091 0.524633 0.189414 -0.154508
C103  C     C_R   0.471790 0.024436 0.810688 -0.156069
C104  C     C_R   0.528376 0.024337 0.189167 -0.152879
C105  C     C_R   0.913708 0.499926 0.586913 0.937748
C106  C     C_R   0.497456 0.999113 0.315857 -0.199319
C107  C     C_R   0.971927 0.525445 0.747029 0.067211
C108  C     C_R   0.028009 0.525586 0.253028 0.067280
C109  C     C_R   0.471859 0.025371 0.747087 0.066791
C110  C     C_R   0.528288 0.025306 0.252786 0.064813
C111  C     C_R   0.094350 0.440714 0.752191 0.733744
C112  C     C_R   0.905742 0.440376 0.247650 0.733101
C113  C     C_R   0.594450 0.940854 0.752054 0.733874
C114  C     C_R   0.404744 0.941599 0.249465 0.795007
C115  C     C_R   0.114594 0.407145 0.766246 -0.192250
C116  C     C_R   0.586292 0.999988 0.412967 0.938724
C117  C     C_R   0.885510 0.406737 0.233589 -0.192436
C118  C     C_R   0.614743 0.907323 0.766076 -0.192387
C119  C     C_R   0.384003 0.908420 0.235626 -0.212567
C120  C     C_R   0.094195 0.365857 0.792255 -0.182062
C121  C     C_R   0.905921 0.365507 0.207578 -0.180395
C122  C     C_R   0.594391 0.866016 0.792092 -0.182284
C123  C     C_R   0.404099 0.867117 0.208821 -0.191093
C124  C     C_R   0.053493 0.357991 0.804293 -0.098442
C125  C     C_R   0.946627 0.357771 0.195536 -0.096986
C126  C     C_R   0.553686 0.858093 0.804169 -0.098596
C127  C     C_R   0.413708 0.999924 0.586888 0.933895
C128  C     C_R   0.444984 0.858842 0.195801 -0.102448
C129  C     C_R   0.033055 0.391422 0.790486 -0.213025
C130  C     C_R   0.967055 0.391272 0.209343 -0.212837
C131  C     C_R   0.533201 0.891485 0.790392 -0.213466
C132  C     C_R   0.465928 0.891889 0.209345 -0.234947
C133  C     C_R   0.001370 0.499852 0.618849 0.945971
C134  C     C_R   0.998634 0.499843 0.381142 0.945550
C135  C     C_R   0.501368 0.999851 0.618850 0.946639
C136  C     C_R   0.498660 0.999843 0.381126 0.948207
C137  C     C_R   0.053339 0.432973 0.764186 0.039399
C138  C     C_R   0.000629 0.496741 0.813321 -0.147885
C139  C     C_R   0.946756 0.432765 0.235651 0.038733
C140  C     C_R   0.553438 0.933055 0.764086 0.039776
C141  C     C_R   0.445953 0.933447 0.236421 0.038959
C142  C     C_R   0.202986 0.460667 0.278286 0.470369
C143  C     C_R   0.796983 0.459710 0.718317 0.471505
C144  C     C_R   0.702989 0.960653 0.278387 0.470128
C145  C     C_R   0.297000 0.959700 0.718369 0.383087
C146  C     C_R   0.156963 0.461334 0.325081 -0.245399
C147  C     C_R   0.842998 0.460616 0.672270 -0.241500
C148  C     C_R   0.656966 0.961317 0.325184 -0.245660
C149  C     C_R   0.999372 0.496741 0.186666 -0.147514
C150  C     C_R   0.343010 0.960620 0.672326 -0.238036
C151  C     C_R   0.134298 0.499712 0.365217 -0.079616
C152  C     C_R   0.865708 0.499462 0.634024 -0.080070
C153  C     C_R   0.634298 0.999707 0.365264 -0.079194
C154  C     C_R   0.365710 0.999452 0.634002 -0.071485
C155  C     C_R   0.157643 0.537656 0.359341 -0.151132
C156  C     C_R   0.842411 0.537607 0.640884 -0.151618
C157  C     C_R   0.657641 0.037664 0.359345 -0.150570
C158  C     C_R   0.342401 0.037572 0.640795 -0.144882
C159  C     C_R   0.203402 0.537177 0.313889 -0.237289
C160  C     C_R   0.500628 0.996741 0.813318 -0.147919
C161  C     C_R   0.796666 0.536934 0.685737 -0.240971
C162  C     C_R   0.703400 0.037188 0.313896 -0.237183
C163  C     C_R   0.296655 0.036882 0.685650 -0.219167
C164  C     C_R   0.226131 0.498911 0.273797 -0.032181
C165  C     C_R   0.773919 0.498249 0.724117 -0.034994
C166  C     C_R   0.726131 0.998912 0.273848 -0.032485
C167  C     C_R   0.273920 0.998208 0.724106 -0.034500
C168  C     C_R   0.295775 0.527245 0.161962 -0.188362
C169  C     C_R   0.704779 0.524931 0.838371 -0.177793
C170  C     C_R   0.795768 0.027229 0.161975 -0.188478
C171  C     C_R   0.499389 0.996722 0.186681 -0.158147
C172  C     C_R   0.204788 0.024937 0.838316 -0.232680
C173  C     C_R   0.341774 0.529235 0.115318 0.454788
C174  C     C_R   0.658822 0.527037 0.885765 0.365830
C175  C     C_R   0.841768 0.029216 0.115313 0.454960
C176  C     C_R   0.158831 0.027048 0.885715 0.379243
C177  C     C_R   0.365776 0.502908 0.133865 -0.175713
C178  C     C_R   0.634332 0.502583 0.865954 -0.177823
C179  C     C_R   0.865776 0.002908 0.133871 -0.175439
C180  C     C_R   0.134333 0.002562 0.865954 -0.172337
C181  C     C_R   0.905577 0.622053 0.748786 0.609798
C182  C     C_R   0.030135 0.468469 0.752696 -0.066383
C183  C     C_R   0.093972 0.622643 0.251652 0.610394
C184  C     C_R   0.405210 0.121763 0.749110 0.609858
C185  C     C_R   0.594893 0.121916 0.250780 0.609550
C186  C     C_R   0.343411 0.477050 0.199908 -0.246534
C187  C     C_R   0.656317 0.478285 0.798204 -0.235184
C188  C     C_R   0.843417 0.977072 0.199940 -0.246559
C189  C     C_R   0.156313 0.978203 0.798267 -0.221284
C190  C     C_R   0.297644 0.475972 0.246237 -0.053543
C191  C     C_R   0.702067 0.477062 0.751253 -0.058252
C192  C     C_R   0.797649 0.975997 0.246286 -0.053254
F1    F     F_    0.906861 0.666724 0.742334 -0.591467
F2    F     F_    0.092504 0.667306 0.258294 -0.589832
F3    F     F_    0.406364 0.166435 0.742748 -0.591709
F4    F     F_    0.593703 0.166584 0.257201 -0.590885
F5    F     F_    0.114709 0.480547 0.726444 -0.658498
F6    F     F_    0.885358 0.480143 0.273440 -0.658574
F7    F     F_    0.614759 0.980710 0.726317 -0.658481
F8    F     F_    0.384677 0.981438 0.276068 -0.631281
H1    H     H_    0.841439 0.617828 0.769817 0.195183
H2    H     H_    0.962514 0.325902 0.174927 0.163884
H3    H     H_    0.443178 0.113530 0.336229 0.391441
H4    H     H_    0.136621 0.447631 0.587449 0.386793
H5    H     H_    0.863511 0.446958 0.412377 0.386593
H6    H     H_    0.636700 0.947733 0.587331 0.386863
H7    H     H_    0.364546 0.905519 0.441449 0.395231
H8    H     H_    0.537843 0.826167 0.824788 0.162331
H9    H     H_    0.460616 0.826917 0.174604 0.166226
H10   H     H_    0.001301 0.385081 0.800716 0.164000
H11   H     H_    0.998808 0.385030 0.199122 0.164596
H12   H     H_    0.501445 0.885100 0.800654 0.163446
H13   H     H_    0.497830 0.885251 0.198300 0.167254
H14   H     H_    0.138737 0.432154 0.329289 0.207784
H15   H     H_    0.861168 0.431227 0.667145 0.208603
H16   H     H_    0.638743 0.932128 0.329422 0.207826
H17   H     H_    0.158137 0.618860 0.230562 0.196425
H18   H     H_    0.361184 0.931253 0.667294 0.206596
H19   H     H_    0.140575 0.567543 0.390090 0.188082
H20   H     H_    0.859497 0.567841 0.611541 0.187770
H21   H     H_    0.640572 0.067561 0.390051 0.188130
H22   H     H_    0.359480 0.067796 0.611391 0.186009
H23   H     H_    0.221244 0.566671 0.309898 0.179915
H24   H     H_    0.778843 0.566648 0.690835 0.176294
H25   H     H_    0.721240 0.066692 0.309867 0.180152
H26   H     H_    0.278822 0.066577 0.690696 0.174936
H27   H     H_    0.276585 0.546537 0.148567 0.184373
H28   H     H_    0.341059 0.117338 0.770227 0.194402
H29   H     H_    0.724315 0.542847 0.852604 0.183561
H30   H     H_    0.776573 0.046504 0.148571 0.184236
H31   H     H_    0.224330 0.042877 0.852512 0.182324
H32   H     H_    0.361438 0.457124 0.215029 0.179452
H33   H     H_    0.638020 0.459694 0.782094 0.179420
H34   H     H_    0.861446 0.957161 0.215070 0.179427
H35   H     H_    0.138009 0.959582 0.782202 0.176373
H36   H     H_    0.280621 0.455899 0.297153 0.178428
H37   H     H_    0.718769 0.458219 0.699047 0.176652
H38   H     H_    0.780632 0.955941 0.297221 0.178426
H39   H     H_    0.659096 0.117719 0.229465 0.196360
H40   H     H_    0.218761 0.958058 0.699179 0.171294
H41   H     H_    0.064682 0.279445 0.976894 0.154519
H42   H     H_    0.934839 0.279499 0.023307 0.157749
H43   H     H_    0.564760 0.779438 0.976564 0.154393
H44   H     H_    0.434749 0.779492 0.023668 0.157576
H45   H     H_    0.064943 0.360277 0.976666 0.164167
H46   H     H_    0.934855 0.360337 0.023328 0.164541
H47   H     H_    0.565025 0.860270 0.976332 0.164189
H48   H     H_    0.434760 0.860330 0.023702 0.164304
H49   H     H_    0.485523 0.720895 0.916661 0.146313
H50   H     H_    0.109852 0.339991 0.803346 0.167491
H51   H     H_    0.513725 0.721048 0.083967 0.150307
H52   H     H_    0.985622 0.220894 0.916530 0.146380
H53   H     H_    0.013630 0.221050 0.084087 0.150523
H54   H     H_    0.485705 0.640186 0.916200 0.181264
H55   H     H_    0.513637 0.640359 0.084476 0.200367
H56   H     H_    0.985795 0.140186 0.916085 0.181315
H57   H     H_    0.013546 0.140361 0.084591 0.200446
H58   H     H_    0.067535 0.720729 0.899870 0.152394
H59   H     H_    0.932726 0.720638 0.099936 0.150121
H60   H     H_    0.567550 0.220727 0.899893 0.150460
H61   H     H_    0.890271 0.339586 0.196491 0.169464
H62   H     H_    0.432721 0.220642 0.099896 0.150438
H63   H     H_    0.067648 0.639961 0.899751 0.171563
H64   H     H_    0.932509 0.639883 0.100147 0.171202
H65   H     H_    0.567660 0.139959 0.899777 0.171236
H66   H     H_    0.432499 0.139887 0.100109 0.171585
H67   H     H_    0.478587 0.279221 0.116412 0.160301
H68   H     H_    0.521713 0.279265 0.883357 0.160192
H69   H     H_    0.978601 0.779222 0.116409 0.160506
H70   H     H_    0.021683 0.779264 0.883377 0.159975
H71   H     H_    0.478490 0.359961 0.116724 0.169196
H72   H     H_    0.610085 0.840180 0.803159 0.167298
H73   H     H_    0.521642 0.360013 0.883157 0.169161
H74   H     H_    0.978505 0.859962 0.116718 0.169227
H75   H     H_    0.021615 0.860011 0.883174 0.169125
H76   H     H_    0.896911 0.494506 0.772287 0.174755
H77   H     H_    0.103168 0.495154 0.227596 0.175169
H78   H     H_    0.396911 0.994199 0.772366 0.171622
H79   H     H_    0.603305 0.994383 0.227311 0.175629
H80   H     H_    0.836158 0.536653 0.785333 0.192530
H81   H     H_    0.163760 0.537725 0.214678 0.192969
H82   H     H_    0.336010 0.036153 0.785593 0.184749
H83   H     H_    0.388058 0.841553 0.197903 0.171621
H84   H     H_    0.664226 0.036564 0.213927 0.193166
H85   H     H_    0.948810 0.545236 0.858833 0.181814
H86   H     H_    0.051076 0.545488 0.141276 0.181675
H87   H     H_    0.448708 0.045129 0.858921 0.181613
H88   H     H_    0.551539 0.044998 0.140860 0.182279
H89   H     H_    0.146112 0.413122 0.757026 0.162256
H90   H     H_    0.853988 0.412614 0.242817 0.162792
H91   H     H_    0.646262 0.913345 0.756829 0.162200
H92   H     H_    0.352332 0.914707 0.245645 0.164435
H93   H     H_    0.290407 0.398255 0.114757 0.395875
H94   H     H_    0.037615 0.326079 0.824904 0.162461
H95   H     H_    0.709711 0.395323 0.879062 0.395607
H96   H     H_    0.790398 0.898202 0.114900 0.395824
H97   H     H_    0.239176 0.940280 0.879934 0.351884
H98   H     H_    0.408651 0.560080 0.915739 0.380049
H99   H     H_    0.609042 0.608046 0.922344 0.332502
H100  H     H_    0.908615 0.059990 0.915703 0.380101
H101  H     H_    0.109032 0.107985 0.922144 0.332848
H102  H     H_    0.057222 0.613700 0.663598 0.389861
H103  H     H_    0.942339 0.613303 0.336965 0.389692
H104  H     H_    0.556901 0.113879 0.663808 0.389929
O1    O     O_R   0.065470 0.536950 0.434540 -0.632044
O2    O     O_R   0.565480 0.500010 0.986250 -0.538560
O3    O     O_R   0.934520 0.000010 0.013750 -0.548389
O4    O     O_R   0.065480 0.000010 0.986250 -0.536237
O5    O     O_R   0.500000 0.565470 0.051720 -0.590292
O6    O     O_R   0.500000 0.565470 0.948280 -0.617745
O7    O     O_R   0.000000 0.065470 0.051720 -0.590474
O8    O     O_R   0.000000 0.065470 0.948280 -0.617837
O9    O     O_R   0.065450 0.463030 0.434550 -0.589753
O10   O     O_R   0.934550 0.463030 0.565450 -0.590872
O11   O     O_R   0.565450 0.963030 0.434550 -0.589696
O12   O     O_R   0.934530 0.536950 0.565460 -0.631812
O13   O     O_R   0.434550 0.963030 0.565450 -0.594746
O14   O     O_R   0.000000 0.536950 0.591620 -0.592675
O15   O     O_R   0.000000 0.536950 0.408380 -0.592881
O16   O     O_R   0.500000 0.036950 0.591620 -0.592339
O17   O     O_R   0.500000 0.036950 0.408380 -0.591195
O18   O     O_R   0.999990 0.463030 0.591630 -0.584134
O19   O     O_R   0.000010 0.463030 0.408370 -0.583971
O20   O     O_R   0.499990 0.963030 0.591630 -0.584392
O21   O     O_R   0.500010 0.963030 0.408370 -0.583867
O22   O     O_R   0.963040 0.434500 0.036950 -0.633765
O23   O     O_R   0.565470 0.036950 0.434540 -0.632230
O24   O     O_R   0.036960 0.434500 0.963050 -0.633722
O25   O     O_R   0.463040 0.934500 0.036950 -0.634353
O26   O     O_R   0.536960 0.934500 0.963050 -0.633715
O27   O     O_R   0.963030 0.499970 0.945350 -0.629752
O28   O     O_R   0.036970 0.499970 0.054650 -0.629732
O29   O     O_R   0.463030 0.999970 0.945350 -0.630322
O30   O     O_R   0.536970 0.999970 0.054650 -0.628551
O31   O     O_R   0.036950 0.499990 0.871430 -0.582660
O32   O     O_R   0.963050 0.499990 0.128570 -0.582416
O33   O     O_R   0.536950 0.999990 0.871430 -0.582652
O34   O     O_R   0.434530 0.036950 0.565460 -0.630414
O35   O     O_R   0.463050 0.999990 0.128570 -0.589565
O36   O     O_R   0.963030 0.565430 0.036970 -0.613556
O37   O     O_R   0.036970 0.565430 0.963030 -0.613383
O38   O     O_R   0.463030 0.065430 0.036970 -0.613324
O39   O     O_R   0.536970 0.065430 0.963030 -0.613443
O40   O     O_R   0.499980 0.434540 0.051730 -0.625498
O41   O     O_R   0.500020 0.434540 0.948270 -0.624317
O42   O     O_R   0.999980 0.934540 0.051730 -0.623837
O43   O     O_R   0.000020 0.934540 0.948270 -0.624844
O44   O     O_2   0.246330 0.386695 0.264022 -0.287436
O45   O     O_R   0.434520 0.500000 0.117190 -0.636594
O46   O     O_2   0.199051 0.383931 0.219374 -0.266859
O47   O     O_3   0.273696 0.426102 0.137078 -0.541794
O48   O     O_2   0.752853 0.386951 0.729372 -0.286899
O49   O     O_2   0.800792 0.380971 0.772390 -0.266431
O50   O     O_3   0.726568 0.423254 0.858010 -0.541842
O51   O     O_2   0.746339 0.886698 0.264187 -0.287579
O52   O     O_2   0.699054 0.883884 0.219553 -0.267168
O53   O     O_3   0.773696 0.926055 0.137208 -0.541954
O54   O     O_2   0.252916 0.886798 0.729818 -0.242280
O55   O     O_2   0.300785 0.880874 0.772691 -0.269308
O56   O     O_R   0.565480 0.500000 0.882810 -0.640712
O57   O     O_3   0.226395 0.922847 0.858280 -0.500077
O58   O     O_2   0.333970 0.598097 0.044732 -0.280678
O59   O     O_2   0.402363 0.592588 0.036574 -0.345536
O60   O     O_3   0.390826 0.538053 0.956484 -0.512680
O61   O     O_2   0.613889 0.534984 0.036403 -0.213544
O62   O     O_2   0.667773 0.593011 0.960043 -0.280541
O63   O     O_3   0.594206 0.592795 0.971917 -0.561186
O64   O     O_2   0.833954 0.098041 0.044677 -0.280884
O65   O     O_2   0.902361 0.092555 0.036476 -0.345149
O66   O     O_3   0.890795 0.037975 0.956474 -0.512768
O67   O     O_R   0.934520 0.000000 0.117190 -0.636811
O68   O     O_2   0.113909 0.035067 0.036336 -0.216485
O69   O     O_2   0.167794 0.093077 0.959889 -0.281910
O70   O     O_3   0.094218 0.092823 0.971789 -0.560676
O71   O     O_2   0.990981 0.672612 0.690565 -0.188978
O72   O     O_2   0.982676 0.632904 0.796749 -0.311875
O73   O     O_3   0.033939 0.599183 0.661786 -0.544789
O74   O     O_2   0.008370 0.672632 0.310077 -0.188320
O75   O     O_2   0.016798 0.632935 0.203784 -0.310996
O76   O     O_3   0.965698 0.598917 0.338635 -0.545138
O77   O     O_2   0.490490 0.172568 0.690878 -0.188950
O78   O     O_R   0.065480 0.000000 0.882810 -0.641656
O79   O     O_2   0.482303 0.132912 0.797004 -0.311816
O80   O     O_3   0.533654 0.099271 0.661997 -0.544644
O81   O     O_2   0.509582 0.172451 0.309082 -0.189041
O82   O     O_2   0.517735 0.132757 0.203016 -0.311507
O83   O     O_3   0.466435 0.099021 0.338047 -0.540780
O84   O     O_2   0.052262 0.400185 0.596213 -0.232776
O85   O     O_2   0.093015 0.468245 0.534064 -0.328544
O86   O     O_3   0.115812 0.422356 0.605986 -0.518374
O87   O     O_2   0.947985 0.399885 0.403429 -0.231960
O88   O     O_2   0.907077 0.467732 0.465832 -0.328618
O89   O     O_R   0.434520 0.500010 0.013750 -0.548129
O90   O     O_3   0.884370 0.421777 0.393771 -0.517441
O91   O     O_2   0.552371 0.900277 0.596039 -0.233368
O92   O     O_2   0.593068 0.968384 0.534035 -0.328613
O93   O     O_3   0.615889 0.922459 0.605889 -0.518482
O94   O     O_2   0.447184 0.900924 0.405514 -0.280091
O95   O     O_2   0.406298 0.969443 0.465537 -0.312506
O96   O     O_3   0.384062 0.922509 0.393929 -0.535337
S1    S     S_3+6 0.230281 0.412338 0.224977 0.037131
S2    S     S_3+6 0.012065 0.627700 0.277213 0.076395
S3    S     S_3+6 0.487091 0.127638 0.723533 0.075822
S4    S     S_3+6 0.512983 0.127513 0.276460 0.076834
S5    S     S_3+6 0.073794 0.439987 0.603467 0.063035
S6    S     S_3+6 0.926356 0.439594 0.396331 0.063513
S7    S     S_3+6 0.573863 0.940082 0.603383 0.062810
S8    S     S_3+6 0.425816 0.940377 0.397044 0.054413
S9    S     S_3+6 0.769537 0.410701 0.769104 0.038272
S10   S     S_3+6 0.730285 0.912312 0.225123 0.036847
S11   S     S_3+6 0.269600 0.910707 0.769383 0.052170
S12   S     S_3+6 0.367439 0.566630 0.037819 0.036371
S13   S     S_3+6 0.634003 0.562436 0.965784 0.055810
S14   S     S_3+6 0.867425 0.066584 0.037775 0.036481
S15   S     S_3+6 0.134019 0.062485 0.965682 0.052527
S16   S     S_3+6 0.987454 0.627669 0.723280 0.075866
Zn1   Zn    Zn3+2 1.000000 0.549340 0.500000 1.084249
Zn2   Zn    Zn3+2 0.500010 0.500000 0.930920 1.041163
Zn3   Zn    Zn3+2 0.999990 0.000000 0.069080 1.082496
Zn4   Zn    Zn3+2 0.000010 0.000000 0.930920 1.041786
Zn5   Zn    Zn3+2 0.500000 0.049340 0.500000 1.085995
Zn6   Zn    Zn3+2 0.000000 0.450640 0.500000 1.138081
Zn7   Zn    Zn3+2 0.500000 0.950640 0.500000 1.134096
Zn8   Zn    Zn3+2 0.950630 0.499960 0.049360 1.025608
Zn9   Zn    Zn3+2 0.049370 0.499960 0.950640 1.025507
Zn10  Zn    Zn3+2 0.450630 0.999960 0.049360 1.020875
Zn11  Zn    Zn3+2 0.549370 0.999960 0.950640 1.025185
Zn12  Zn    Zn3+2 0.499990 0.500000 0.069080 1.079020

loop_
_geom_bond_atom_site_label_1
_geom_bond_atom_site_label_2
_ccdc_geom_bond_type
C191  H37   S    
C68   S8    S    
C33   S4    S    
C117  H90   S    
C142  C146  A    
O47   S1    S    
C12   O29   A    
C168  H27   S    
O11   Zn7   S    
H99   O63   S    
O40   Zn12  S    
C120  H50   S    
C154  C158  A    
C3    C189  A    
C45   H52   S    
O89   Zn2   S    
C49   H55   S    
C95   C99   A    
C135  O16   A    
C186  H32   S    
O35   Zn10  S    
C21   O3    A    
C105  O12   A    
C22   O4    A    
C89   C94   A    
C24   C171  A    
H4    O86   S    
O81   S4    D    
C131  C140  A    
C174  S13   S    
C152  C156  A    
O29   Zn10  S    
C56   C72   A    
C18   C84   S    
C10   O31   A    
H102  O73   S    
O27   Zn8   S    
C151  C155  A    
O65   S14   D    
C88   H77   S    
C59   C73   A    
C13   C160  A    
H7    O96   S    
C94   H82   S    
O50   S9    S    
C7    C172  A    
O84   S5    D    
O70   S15   S    
C80   C83   A    
C57   S7    S    
C112  F6    S    
C12   O33   A    
C97   C183  A    
C125  H2    S    
C50   C53   A    
C11   O32   A    
O18   Zn6   S    
O77   S3    D    
C179  C188  A    
C35   S5    S    
C135  O20   A    
C155  C159  A    
C177  C186  A    
C4    C168  A    
O13   Zn7   S    
C64   C66   A    
C186  C190  A    
O21   Zn7   S    
C4    C190  A    
C128  H9    S    
C17   O40   A    
C43   C54   A    
C192  H38   S    
C25   O8    A    
C24   C141  S    
C21   O67   A    
C76   H69   S    
C113  F7    S    
C156  H20   S    
C78   H71   S    
O6    Zn2   S    
C63   H65   S    
O92   S7    D    
C5    C191  A    
C146  H14   S    
C69   C88   A    
C104  C171  A    
O55   S11   D    
C82   C84   A    
C59   H60   S    
C143  S9    S    
C148  C153  A    
C27   H42   S    
C99   C185  A    
C111  C137  A    
C28   C42   A    
C25   C53   S    
C134  O15   A    
O88   S6    D    
C119  C123  A    
C184  F3    S    
C105  O10   A    
C59   C63   A    
C37   H47   S    
C15   O37   A    
C60   C64   A    
O63   S13   S    
C104  C110  A    
C142  S1    S    
C9    O25   A    
C77   C82   A    
C90   C134  S    
O30   Zn11  S    
O28   Zn9   S    
C138  C182  A    
C33   C71   A    
C102  C149  A    
C61   C65   A    
C21   C179  S    
C129  C137  A    
C10   C138  S    
C157  C162  A    
C161  C165  A    
C133  O18   A    
C161  H24   S    
C96   C181  A    
O90   S6    S    
H97   O57   S    
C45   C50   A    
H3    O83   S    
C37   C40   A    
C147  H15   S    
C180  C189  A    
O56   Zn2   S    
C13   C57   A    
C92   C96   A    
C183  F2    S    
C81   H74   S    
C118  C122  A    
C143  C165  A    
O71   S16   D    
C29   C38   A    
C19   C177  S    
C30   C67   A    
C3    H40   S    
C106  C136  S    
C38   H48   S    
C114  F8    S    
C157  H21   S    
C130  H11   S    
O78   Zn4   S    
C148  H16   S    
C127  C154  S    
C75   C85   A    
C101  C135  S    
C150  H18   S    
O82   S4    D    
C34   C39   A    
C114  C141  A    
C60   H62   S    
O83   S4    S    
O85   S5    D    
C61   H63   S    
O68   S15   D    
H95   O50   S    
C32   C70   A    
O9    Zn6   S    
C1    O1    A    
C51   C53   A    
C92   H80   S    
C30   S16   S    
C121  C125  A    
O16   Zn5   S    
C74   H67   S    
C43   H49   S    
C44   H51   S    
C48   C52   A    
C169  C174  A    
O39   Zn11  S    
O12   Zn1   S    
C136  O17   A    
C91   H79   S    
C73   C85   S    
C158  C163  A    
C104  H88   S    
C18   O43   A    
O19   Zn6   S    
C156  C161  A    
C11   O28   A    
O23   Zn5   S    
O43   Zn4   S    
C22   O78   A    
C70   C89   A    
C93   C97   A    
O41   Zn2   S    
O93   S7    S    
C6    C170  A    
C132  C141  A    
O15   Zn1   S    
C7    C167  S    
O95   S8    D    
C20   O2    A    
O44   S1    D    
C31   S2    S    
C36   C39   A    
O59   S12   D    
C14   C171  S    
C57   C101  A    
O8    Zn4   S    
C188  C192  A    
C102  H86   S    
C82   H75   S    
C90   C108  A    
C64   H66   S    
C23   C52   S    
C28   C37   A    
C170  H30   S    
C35   C79   A    
C80   H73   S    
O74   S2    D    
C74   C85   A    
C98   C184  A    
C189  H35   S    
C50   H56   S    
C91   C95   A    
C146  C151  A    
O20   Zn7   S    
C44   C54   A    
C176  C180  A    
C17   O41   A    
C45   C55   A    
C159  C164  A    
C132  H13   S    
O25   Zn10  S    
H98   O60   S    
O54   S11   D    
O32   Zn8   S    
C172  C176  A    
O79   S3    D    
O34   Zn5   S    
H101  O70   S    
C58   C62   A    
C6    C166  S    
O69   S15   D    
C81   C84   A    
C136  O21   A    
C26   H41   S    
C19   O89   A    
C2    C139  S    
C46   S6    S    
C3    C7    A    
C142  C164  A    
C112  C117  A    
C176  S15   S    
C103  C160  A    
O14   Zn1   S    
C94   C98   A    
C101  C109  A    
C15   C65   S    
O51   S10   D    
C60   C73   A    
H5    O90   S    
C23   O6    A    
H6    O93   S    
C41   C55   S    
H96   O53   S    
C162  C166  A    
C145  C150  A    
C78   C83   A    
C11   C149  S    
C25   O7    A    
C126  H8    S    
C155  H19   S    
C20   O56   A    
C181  F1    S    
C174  C178  A    
O1    Zn1   S    
C122  H72   S    
C75   H68   S    
C99   H39   S    
O46   S1    D    
C63   C66   A    
H100  O66   S    
C87   C92   A    
C29   C42   A    
C130  C139  A    
C172  H31   S    
C170  C175  A    
C14   O30   A    
C145  S11   S    
C13   C140  S    
C22   C180  S    
C62   H64   S    
C47   C51   A    
O86   S5    S    
O76   S2    S    
C9    C40   S    
O37   Zn9   S    
C144  C166  A    
C119  H92   S    
O36   Zn8   S    
C31   C69   A    
C49   C52   A    
C34   H45   S    
C79   C107  A    
O3    Zn4   S    
C12   C160  S    
C116  C153  S    
O62   S13   D    
O64   S14   D    
C178  C187  A    
O57   S11   S    
O58   S12   D    
C58   C72   A    
C30   C181  A    
C97   H17   S    
C190  H36   S    
C185  F4    S    
C48   H54   S    
C76   C86   A    
C188  H34   S    
C145  C167  A    
C105  C152  S    
C175  S14   S    
C16   O39   A    
C72   C86   S    
O80   S3    S    
C46   C90   A    
C27   C36   A    
C124  H94   S    
O87   S6    D    
C58   H59   S    
C103  C109  A    
O24   Zn9   S    
O96   S8    S    
C42   C54   S    
C38   C40   A    
C127  O13   A    
C14   O35   A    
C29   H44   S    
C124  C129  A    
C1    C151  S    
C153  C157  A    
C24   C68   A    
O4    Zn3   S    
O7    Zn3   S    
C71   C91   A    
C95   H84   S    
C74   C78   A    
C6    C192  A    
O72   S16   D    
C5    C169  A    
C56   C61   A    
C33   C185  A    
C129  H10   S    
C44   C49   A    
O45   Zn12  S    
C1    O9    A    
C36   H46   S    
C10   O27   A    
C144  C148  A    
O61   S13   D    
C93   H81   S    
H103  O76   S    
C96   H1    S    
C2    C46   A    
C35   C182  A    
C143  C147  A    
O53   S10   S    
C133  O14   A    
C47   H53   S    
O22   Zn8   S    
C116  O11   A    
C9    O26   A    
O17   Zn5   S    
H93   O47   S    
O94   S8    D    
C116  O23   A    
C117  C121  A    
C134  O19   A    
O5    Zn12  S    
C121  H61   S    
C125  C130  A    
C26   C34   A    
O66   S14   S    
O73   S16   S    
C115  H89   S    
C4    C164  S    
C102  C108  A    
C15   O36   A    
C8    C39   S    
O49   S9    D    
C163  H26   S    
C43   C48   A    
C127  O34   A    
C8    O22   A    
C2    C149  A    
O33   Zn11  S    
C51   H57   S    
C158  H22   S    
C173  S12   S    
O67   Zn3   S    
C112  C139  A    
C68   C106  A    
O10   Zn6   S    
C128  C132  A    
C69   C108  S    
C98   H28   S    
C144  S10   S    
C168  C173  A    
C79   C133  S    
C175  C179  A    
C137  C182  S    
C100  H85   S    
C17   C83   S    
C122  C126  A    
C163  C167  A    
C70   C109  S    
H104  O80   S    
C27   C41   A    
O48   S9    D    
O60   S12   S    
O75   S2    D    
C173  C177  A    
C103  H87   S    
O26   Zn11  S    
C113  C140  A    
C32   S3    S    
C187  H33   S    
C100  C138  A    
C71   C110  S    
C28   H43   S    
C77   C86   A    
C5    C165  S    
C87   H76   S    
C162  H25   S    
C47   C55   A    
C75   C80   A    
O52   S10   D    
C88   C93   A    
C100  C107  A    
C62   C65   A    
C31   C183  A    
O38   Zn10  S    
C187  C191  A    
C32   C184  A    
C56   H58   S    
C114  C119  A    
C76   C81   A    
O2    Zn12  S    
C67   C87   A    
C19   O45   A    
O42   Zn3   S    
O31   Zn9   S    
C147  C152  A    
C123  H83   S    
C111  F5    S    
C16   O38   A    
C67   C107  S    
C123  C128  A    
C126  C131  A    
C159  H23   S    
O91   S7    D    
C89   H78   S    
C169  H29   S    
C23   O5    A    
C118  H91   S    
C8    O24   A    
C113  C118  A    
C18   O42   A    
C16   C66   S    
C106  C110  A    
C115  C120  A    
C150  C154  A    
C131  H12   S    
C77   H70   S    
C111  C115  A    
C20   C178  S    
C120  C124  A    
C26   C41   A    
