data_mof_unit_35600.cif
_audit_creation_date              2012-12-10T17:33:01-0500
_audit_creation_method            fapswitch 2.2
_symmetry_space_group_name_H-M    P1
_symmetry_Int_Tables_number       1
_space_group_crystal_system       triclinic
_cell_length_a                    12.403849
_cell_length_b                    13.517267
_cell_length_c                    14.114579
_cell_angle_alpha                 94.845619
_cell_angle_beta                  107.759463
_cell_angle_gamma                 116.92781
_cell_volume                      1939.11776598

loop_
_atom_site_label
_atom_site_type_symbol
_atom_type_description
_atom_site_fract_x
_atom_site_fract_y
_atom_site_fract_z
_atom_type_partial_charge
C1    C     C_R   0.651018 0.713008 0.508502 0.839811
C2    C     C_R   0.820162 0.469828 0.919743 0.081306
C3    C     C_R   0.789999 0.507238 0.999884 0.075619
C4    C     C_R   0.935538 0.461901 0.944983 0.068885
C5    C     C_R   0.004832 0.468520 0.047579 0.072575
C6    C     C_R   0.955760 0.482891 0.122806 -0.271179
C7    C     C_R   0.856583 0.510408 0.102312 0.033730
C8    C     C_R   0.990104 0.459963 0.871556 -0.125910
C9    C     C_R   0.101551 0.449764 0.893326 0.007029
C10   C     C_R   0.160912 0.438152 0.992009 0.019151
C11   C     C_R   0.120922 0.460881 0.071664 0.083246
C12   C     C_R   0.610534 0.507609 0.686261 0.801494
C13   C     C_R   0.262046 0.409457 0.015332 -0.031627
C14   C     C_R   0.339746 0.427513 0.119631 -0.039870
C15   C     C_R   0.201482 0.480967 0.174011 -0.209406
C16   C     C_R   0.200345 0.964016 0.438120 0.002926
C17   C     C_R   0.255590 0.164513 0.477406 -0.148341
C18   C     C_R   0.735947 0.918300 0.579893 -0.145222
C19   C     C_R   0.838973 0.030963 0.616674 -0.058417
C20   C     C_R   0.947539 0.062239 0.591302 -0.133078
C21   C     C_R   0.950355 0.983480 0.520822 0.093433
C22   C     C_R   0.847657 0.867867 0.485424 0.089587
C23   C     C_R   0.345259 0.285835 0.485931 0.799785
C24   C     C_R   0.056888 0.016406 0.488530 0.066631
C25   C     C_R   0.078951 0.931444 0.447423 0.025486
C26   C     C_R   0.973940 0.818366 0.408338 -0.179511
C27   C     C_R   0.856206 0.789916 0.418784 -0.117726
C28   C     C_R   0.134361 0.130175 0.487248 -0.049574
C29   C     C_R   0.289704 0.081415 0.457730 -0.160280
C30   C     C_R   0.741926 0.834440 0.519332 -0.090912
C31   C     C_R   0.257728 0.716321 0.620190 -0.218208
C32   C     C_R   0.651232 0.332264 0.371523 0.091470
C33   C     C_R   0.726057 0.293850 0.342024 -0.195149
C34   C     C_R   0.380982 0.481943 0.311538 0.803357
C35   C     C_R   0.862455 0.359335 0.385291 -0.190923
C36   C     C_R   0.926826 0.465507 0.458431 -0.012763
C37   C     C_R   0.846635 0.502778 0.487760 0.184048
C38   C     C_R   0.068113 0.535390 0.505586 0.017035
C39   C     C_R   0.123466 0.648220 0.564247 0.057700
C40   C     C_R   0.044689 0.690479 0.576351 -0.307603
C41   C     C_R   0.914817 0.614572 0.558227 0.006826
C42   C     C_R   0.158307 0.499802 0.498817 0.035722
C43   C     C_R   0.340372 0.673004 0.621153 0.172761
C44   C     C_R   0.658971 0.497087 0.793135 -0.217163
C45   C     C_R   0.309949 0.465799 0.199853 -0.130835
C46   C     C_R   0.690327 0.535112 0.973968 -0.120677
C47   C     C_R   0.631290 0.538427 0.873617 -0.000245
C48   C     C_R   0.733916 0.442447 0.816318 -0.105216
Cu1   Cu    Cu3+1 0.416420 0.526630 0.522910 0.941149
Cu2   Cu    Cu3+1 0.583580 0.473370 0.477090 0.949159
H1    H     H_    0.383812 0.107756 0.452593 0.198285
H2    H     H_    0.979146 0.752398 0.364737 0.173244
H3    H     H_    0.655897 0.895410 0.605384 0.188115
H4    H     H_    0.837165 0.093335 0.668676 0.197881
H5    H     H_    0.774268 0.705564 0.375099 0.188985
H6    H     H_    0.091635 0.777824 0.623595 0.192434
H7    H     H_    0.297178 0.801699 0.667622 0.189326
H8    H     H_    0.545490 0.280571 0.336456 0.160858
H9    H     H_    0.915733 0.327621 0.357529 0.187149
N1    N     N_R   0.290690 0.566960 0.557640 -0.234075
N2    N     N_R   0.709100 0.433710 0.442970 -0.223615
O1    O     O_R   0.545970 0.684450 0.528810 -0.607504
O2    O     O_R   0.687130 0.639470 0.490120 -0.577435
O3    O     O_R   0.519670 0.535100 0.660030 -0.617898
O4    O     O_R   0.660830 0.490120 0.621340 -0.609043
O5    O     O_R   0.312870 0.360530 0.509880 -0.601210
O6    O     O_R   0.454030 0.315550 0.471190 -0.598638
O7    O     O_R   0.339170 0.509880 0.378660 -0.576355
O8    O     O_R   0.480330 0.464900 0.339970 -0.595979
C49   C     C_2   0.828034 0.541043 0.191813 0.295575
H10   H     H_    0.843302 0.503350 0.255818 0.089164
O9    O     O_2   0.796136 0.613550 0.198884 -0.585975
C50   C     C_2   0.280589 0.351060 0.932423 0.399463
H11   H     H_    0.378372 0.373609 0.937527 0.078991
O10   O     O_2   0.186196 0.274205 0.859517 -0.527276
C51   C     C_2   0.237620 0.878233 0.411553 0.380890
H12   H     H_    0.181832 0.789627 0.412697 0.060705
O11   O     O_2   0.333448 0.906158 0.389484 -0.526914
C52   C     C_2   0.071851 0.201722 0.470882 0.366643
H13   H     H_    0.106238 0.277172 0.530650 0.098617
O12   O     O_2   0.977277 0.172715 0.391669 -0.538370
H14   H     H_    0.030460 0.148022 0.629315 0.156893
C53   C     C_2   0.480752 0.745464 0.690784 0.389593
H15   H     H_    0.548287 0.714663 0.701103 0.139440
O13   O     O_2   0.523981 0.843175 0.740172 -0.530241
H16   H     H_    0.183762 0.512946 0.236487 0.162754
H17   H     H_    0.125064 0.420251 0.446111 0.129401
H18   H     H_    0.677860 0.213051 0.284528 0.186516
C54   C     C_2   0.891311 0.640866 0.650370 0.502809
H19   H     H_    0.886434 0.585670 0.702134 0.047472
O14   O     O_2   0.893919 0.730704 0.676482 -0.553211
C55   C     C_2   0.451470 0.406332 0.143768 0.328074
H20   H     H_    0.549336 0.474478 0.193861 0.125626
O15   O     O_2   0.434478 0.312199 0.109228 -0.530172
C56   C     C_2   0.163832 0.469838 0.816733 0.413687
H21   H     H_    0.268856 0.507319 0.841972 0.059421
O16   O     O_2   0.098742 0.446777 0.724970 -0.561469
H22   H     H_    0.656749 0.555640 0.030588 0.210970
C57   C     C_2   0.533867 0.576826 0.856776 0.312789
H23   H     H_    0.442350 0.532670 0.790090 0.091980
O17   O     O_2   0.552983 0.656329 0.920302 -0.517032
C58   C     C_2   0.696809 0.337518 0.739264 0.361425
H24   H     H_    0.630671 0.314879 0.660107 0.106438
O18   O     O_2   0.731652 0.269319 0.765185 -0.507667
H25   H     H_    0.995602 0.476988 0.200068 0.126190
H26   H     H_    0.949304 0.472351 0.797193 0.162189

loop_
_geom_bond_atom_site_label_1
_geom_bond_atom_site_label_2
_ccdc_geom_bond_type
C41   C54   S    
Cu1   O7    S    
C20   H14   S    
C43   C53   S    
C50   H11   S    
C56   H21   S    
C32   H8    S    
C4    C8    A    
C1    O1    A    
C7    C49   S    
C47   C57   S    
C26   C27   A    
C17   C23   S    
Cu1   N1    S    
C31   C43   A    
C23   O5    A    
C36   C37   A    
Cu2   O8    S    
C51   O11   D    
C32   N2    A    
C38   C42   A    
C3    C7    A    
C5    C6    A    
C12   O3    A    
C27   H5    S    
C17   C29   A    
C35   H9    S    
C18   C19   A    
C23   O6    A    
C28   C52   S    
C1    C30   S    
C18   H3    S    
C11   C15   A    
C53   H15   S    
C8    C9    A    
C40   H6    S    
C49   H10   S    
C18   C30   A    
C54   O14   D    
C9    C10   A    
C9    C56   S    
C44   C47   A    
C46   H22   S    
Cu1   O3    S    
C21   C22   A    
Cu2   O2    S    
C50   O10   D    
C1    O2    A    
C14   C45   A    
Cu1   O5    S    
C24   C25   A    
C34   O7    A    
C39   C40   A    
C52   O12   D    
C2    C48   A    
C16   C29   A    
Cu2   O6    S    
C35   C36   A    
C2    C4    A    
C26   H2    S    
C57   H23   S    
C48   C58   S    
C55   O15   D    
C34   C45   S    
C51   H12   S    
C58   O18   D    
C34   O8    A    
C14   C55   S    
C43   N1    A    
C15   H16   S    
C19   H4    S    
C40   C41   A    
C53   O13   D    
C13   C50   S    
C22   C27   A    
C15   C45   A    
C42   N1    A    
C29   H1    S    
C16   C25   A    
C46   C47   A    
Cu1   O1    S    
C22   C30   A    
C57   O17   D    
C16   C51   S    
C17   C28   A    
C33   H18   S    
C24   C28   A    
C4    C5    A    
C10   C13   A    
C8    H26   S    
C37   N2    A    
C56   O16   D    
C5    C11   A    
C6    C7    A    
C12   O4    A    
C3    C46   A    
C32   C33   A    
C31   H7    S    
C19   C20   A    
C36   C38   A    
C2    C3    A    
C25   C26   A    
C12   C44   S    
C38   C39   A    
C55   H20   S    
C33   C35   A    
C6    H25   S    
C31   C39   A    
C37   C41   A    
C58   H24   S    
Cu2   O4    S    
C10   C11   A    
C52   H13   S    
C20   C21   A    
Cu1   Cu2   S    
C21   C24   A    
Cu2   N2    S    
C49   O9    D    
C42   H17   S    
C54   H19   S    
C13   C14   A    
C44   C48   A    
