data_mof_unit_12284.cif
_audit_creation_date              2012-12-10T18:07:31-0500
_audit_creation_method            fapswitch 2.2
_symmetry_space_group_name_H-M    P1
_symmetry_Int_Tables_number       1
_space_group_crystal_system       triclinic
_cell_length_a                    11.521459
_cell_length_b                    12.663379
_cell_length_c                    13.125973
_cell_angle_alpha                 82.086463
_cell_angle_beta                  91.240598
_cell_angle_gamma                 101.978313
_cell_volume                      1855.50096489

loop_
_atom_site_label
_atom_site_type_symbol
_atom_type_description
_atom_site_fract_x
_atom_site_fract_y
_atom_site_fract_z
_atom_type_partial_charge
C1    C     C_R   0.489507 0.438630 0.690809 0.859170
C2    C     C_R   0.518907 0.598750 0.197633 -0.122145
C3    C     C_R   0.569124 0.320022 0.823812 -0.224550
C4    C     C_R   0.601217 0.293884 0.924307 -0.181463
C5    C     C_R   0.571588 0.348889 0.002628 0.116190
C6    C     C_R   0.505934 0.435091 0.977049 0.024993
C7    C     C_R   0.459368 0.447751 0.875646 0.052096
C8    C     C_R   0.488699 0.514163 0.041007 0.078513
C9    C     C_R   0.416822 0.590947 0.005758 0.158710
C10   C     C_R   0.355621 0.584972 0.914012 -0.254840
C11   C     C_R   0.375982 0.513772 0.849917 -0.208667
C12   C     C_R   0.717565 0.500753 0.499779 0.900069
C13   C     C_R   0.544598 0.525852 0.135497 -0.298538
C14   C     C_R   0.468298 0.686641 0.153933 0.003953
C15   C     C_R   0.500061 0.397720 0.798968 -0.093410
C16   C     C_R   0.288604 0.077812 0.392521 -0.006731
C17   C     C_R   0.651265 0.805121 0.621374 0.125085
C18   C     C_R   0.681623 0.910270 0.647059 -0.297828
C19   C     C_R   0.618289 0.987256 0.607583 -0.212355
C20   C     C_R   0.522785 0.960198 0.541249 0.048398
C21   C     C_R   0.494406 0.852086 0.515863 0.204261
C22   C     C_R   0.456892 0.037471 0.496762 -0.041901
C23   C     C_R   0.515648 0.561486 0.308465 0.842783
C24   C     C_R   0.353024 0.001727 0.440233 0.118634
C25   C     C_R   0.323458 0.892695 0.422334 -0.264968
C26   C     C_R   0.399488 0.823188 0.451225 -0.162370
C27   C     C_R   0.492523 0.149685 0.503548 -0.109203
C28   C     C_R   0.344216 0.189124 0.383169 0.214441
C29   C     C_R   0.282444 0.499338 0.499863 0.874168
C30   C     C_1   0.838551 0.501973 0.498781 -0.188580
C31   C     C_1   0.940758 0.501213 0.498049 -0.017627
C32   C     C_1   0.059294 0.499504 0.497981 -0.016529
C33   C     C_1   0.161499 0.498587 0.498626 -0.210360
C34   C     C_R   0.412625 0.678551 0.058900 -0.244294
H1    H     H_    0.249117 0.862489 0.375462 0.158594
H2    H     H_    0.564485 0.182870 0.550960 0.143064
H3    H     H_    0.644552 0.066066 0.632878 0.141957
H4    H     H_    0.753691 0.932150 0.699718 0.157743
H5    H     H_    0.385296 0.749240 0.417818 0.206666
H6    H     H_    0.296865 0.640010 0.888810 0.148519
H7    H     H_    0.370174 0.742909 0.023131 0.134567
H8    H     H_    0.607612 0.479604 0.166055 0.176129
H9    H     H_    0.600865 0.280861 0.764694 0.154788
H10   H     H_    0.651769 0.230311 0.941024 0.145468
H11   H     H_    0.329906 0.514578 0.777082 0.155174
N1    N     N_R   0.440320 0.222190 0.444690 -0.123618
N2    N     N_R   0.559060 0.776980 0.554780 -0.146301
O1    O     O_R   0.471500 0.366730 0.627160 -0.609651
O2    O     O_R   0.509620 0.544830 0.662520 -0.605940
O3    O     O_R   0.646490 0.410960 0.482310 -0.621504
O4    O     O_R   0.684610 0.589050 0.517670 -0.606981
O5    O     O_R   0.490380 0.455170 0.337480 -0.623128
O6    O     O_R   0.528500 0.633270 0.372840 -0.627265
O7    O     O_R   0.315390 0.410950 0.482330 -0.611701
O8    O     O_R   0.353510 0.589040 0.517690 -0.630085
Zn1   Zn    Zn3+2 0.474550 0.381080 0.476390 0.922752
Zn2   Zn    Zn3+2 0.525450 0.618920 0.523610 0.930618
C35   C     C_R   0.488741 0.792883 0.195450 0.132565
C36   C     C_R   0.404855 0.860254 0.180290 -0.189281
C37   C     C_R   0.432586 0.966813 0.204076 -0.130137
C38   C     C_R   0.541738 0.005814 0.247946 -0.112029
C39   C     C_R   0.625200 0.939842 0.264696 -0.155422
C40   C     C_R   0.599982 0.834832 0.236960 -0.094923
H12   H     H_    0.318229 0.831221 0.149052 0.119139
H13   H     H_    0.368116 0.018300 0.190981 0.122445
H14   H     H_    0.560742 0.086608 0.270331 0.129745
H15   H     H_    0.710075 0.970634 0.297961 0.135527
H16   H     H_    0.668432 0.787254 0.246033 0.124903
C41   C     C_3   0.164771 0.041503 0.348492 -0.450120
C42   C     C_3   0.073741 0.990750 0.434486 -0.314294
C43   C     C_3   0.947886 0.967788 0.391912 -0.919467
H17   H     H_    0.926195 0.043534 0.349904 0.261399
H18   H     H_    0.938952 0.905246 0.339043 0.260670
H19   H     H_    0.883164 0.937667 0.456013 0.251166
H20   H     H_    0.093917 0.913424 0.474206 0.222718
H21   H     H_    0.077665 0.048102 0.492072 0.226355
H22   H     H_    0.131854 0.110417 0.305780 0.229158
H23   H     H_    0.165835 0.984973 0.291213 0.187791
C44   C     C_R   0.719409 0.727358 0.674077 0.179086
C45   C     C_R   0.684478 0.673656 0.772939 -0.124311
C46   C     C_R   0.756470 0.610901 0.829565 -0.149222
C47   C     C_R   0.865567 0.604151 0.789432 -0.129181
C48   C     C_R   0.903941 0.661991 0.693569 -0.147253
C49   C     C_R   0.832152 0.724845 0.636826 -0.141907
H24   H     H_    0.601969 0.681229 0.806343 0.146771
H25   H     H_    0.728691 0.568912 0.905244 0.142559
H26   H     H_    0.921315 0.555768 0.833441 0.129498
H27   H     H_    0.989720 0.658820 0.663524 0.141173
H28   H     H_    0.863857 0.770464 0.563470 0.130104
C50   C     C_3   0.603838 0.300587 0.108913 -0.450233
C51   C     C_3   0.736842 0.337516 0.130910 -0.356401
C52   C     C_3   0.764360 0.308151 0.244328 -0.867179
H29   H     H_    0.744297 0.218398 0.266102 0.253815
H30   H     H_    0.859934 0.339191 0.258282 0.248841
H31   H     H_    0.711448 0.345561 0.293507 0.278330
H32   H     H_    0.789420 0.297478 0.083842 0.220824
H33   H     H_    0.766224 0.426929 0.109066 0.215650
H34   H     H_    0.546506 0.314232 0.169002 0.194125
H35   H     H_    0.583698 0.210321 0.113709 0.197494
C53   C     C_3   0.317275 0.261680 0.286491 -0.406391
C54   C     C_3   0.217115 0.323611 0.296269 -0.278012
C55   C     C_3   0.146463 0.334443 0.196795 -0.949445
H36   H     H_    0.206663 0.375535 0.131680 0.278102
H37   H     H_    0.099660 0.253268 0.179085 0.259220
H38   H     H_    0.079411 0.384270 0.205256 0.254940
H39   H     H_    0.155800 0.283314 0.360866 0.225149
H40   H     H_    0.256376 0.407873 0.309839 0.246022
H41   H     H_    0.396918 0.318726 0.256504 0.214475
H42   H     H_    0.297215 0.210701 0.223140 0.170475

loop_
_geom_bond_atom_site_label_1
_geom_bond_atom_site_label_2
_ccdc_geom_bond_type
C16   C28   A    
C21   C26   A    
C54   H40   S    
C54   C55   S    
C41   H22   S    
C19   C20   A    
C46   C47   A    
C23   O5    A    
C7    C11   A    
C28   N1    A    
C36   H12   S    
C8    C13   A    
C39   H15   S    
C5    C6    A    
C30   C31   T    
C26   H5    S    
C29   O7    A    
C47   H26   S    
C29   C33   S    
C17   C44   S    
O2    Zn2   S    
C55   H38   S    
C10   H6    S    
C18   C19   A    
C2    C13   A    
C52   H29   S    
C19   H3    S    
C51   H32   S    
C38   H14   S    
C31   C32   S    
C8    C9    A    
C42   C43   S    
C1    C15   S    
C9    C10   A    
C46   H25   S    
C28   C53   S    
C7    C15   A    
C48   H27   S    
C36   C37   A    
C16   C24   A    
C41   H23   S    
C55   H36   S    
C34   H7    S    
C13   H8    S    
C23   O6    A    
C14   C35   S    
O7    Zn1   S    
C53   H41   S    
C17   N2    A    
C24   C25   A    
C51   C52   S    
C43   H18   S    
O6    Zn2   S    
C45   C46   A    
C6    C8    A    
C4    H10   S    
C25   C26   A    
C52   H31   S    
O3    Zn1   S    
C37   C38   A    
C45   H24   S    
N2    Zn2   S    
C48   C49   A    
C3    H9    S    
C39   C40   A    
C52   H30   S    
C17   C18   A    
C51   H33   S    
C55   H37   S    
C25   H1    S    
O4    Zn2   S    
C27   N1    A    
C20   C22   A    
C37   H13   S    
C22   C27   A    
O8    Zn2   S    
C42   H21   S    
C9    C34   A    
C22   C24   A    
C11   H11   S    
C49   H28   S    
C3    C4    A    
C50   H35   S    
C54   H39   S    
C12   O4    A    
C3    C15   A    
C35   C40   A    
O1    Zn1   S    
C40   H16   S    
C12   C30   S    
C16   C41   S    
C5    C50   S    
C4    C5    A    
C14   C34   A    
C43   H19   S    
C12   O3    A    
C1    O1    A    
C6    C7    A    
C27   H2    S    
C29   O8    A    
C32   C33   T    
C38   C39   A    
C35   C36   A    
C43   H17   S    
C50   C51   S    
C44   C49   A    
C53   C54   S    
C18   H4    S    
C41   C42   S    
C2    C14   A    
C10   C11   A    
C44   C45   A    
C53   H42   S    
C20   C21   A    
C42   H20   S    
C47   C48   A    
N1    Zn1   S    
C2    C23   S    
C1    O2    A    
C50   H34   S    
O5    Zn1   S    
C21   N2    A    
