data_mof_unit_39035.cif
_audit_creation_date              2013-03-05T15:41:13-0500
_audit_creation_method            fapswitch 2.2
_symmetry_space_group_name_H-M    P1
_symmetry_Int_Tables_number       1
_space_group_crystal_system       triclinic
_cell_length_a                    16.850026
_cell_length_b                    16.824639
_cell_length_c                    16.852316
_cell_angle_alpha                 68.098462
_cell_angle_beta                  68.687862
_cell_angle_gamma                 67.962981
_cell_volume                      3967.73597937

loop_
_atom_site_label
_atom_site_type_symbol
_atom_site_description
_atom_site_fract_x
_atom_site_fract_y
_atom_site_fract_z
_atom_type_partial_charge
O1    O     O_R   0.124540 0.978640 0.385460 -0.603913
O2    O     O_R   0.875460 0.021360 0.614540 -0.590260
O3    O     O_R   0.978640 0.385460 0.124540 -0.606034
O4    O     O_R   0.021360 0.614540 0.875460 -0.603606
O5    O     O_R   0.385460 0.124540 0.978640 -0.600024
O6    O     O_R   0.614540 0.875460 0.021360 -0.589731
O7    O     O_R   0.614540 0.021360 0.875460 -0.600374
O8    O     O_R   0.385460 0.978640 0.124540 -0.581758
O9    O     O_R   0.875460 0.614540 0.021360 -0.609086
O10   O     O_R   0.124540 0.385460 0.978640 -0.603671
O11   O     O_R   0.021360 0.875460 0.614540 -0.602311
O12   O     O_R   0.978640 0.124540 0.385460 -0.601837
C1    C     C_R   0.312133 0.000110 0.435054 -0.012467
C2    C     C_R   0.680086 0.034179 0.551772 -0.007803
C3    C     C_R   0.999189 0.434459 0.313398 -0.013879
C4    C     C_R   0.032617 0.549541 0.682234 -0.010718
C5    C     C_R   0.434991 0.312490 0.001009 -0.012301
C6    C     C_R   0.547755 0.679977 0.040842 -0.092191
C7    C     C_R   0.565581 0.996492 0.689169 -0.015313
C8    C     C_R   0.450011 0.960994 0.320944 -0.094764
C9    C     C_R   0.686658 0.566340 0.000016 -0.013103
C10   C     C_R   0.318230 0.451109 0.965247 -0.011109
C11   C     C_R   0.996223 0.688450 0.566267 -0.012616
C12   C     C_R   0.960153 0.319933 0.451392 -0.013091
Cu1   Cu    Cu3+1 0.995180 0.995180 0.424630 1.075815
Cu2   Cu    Cu3+1 0.004820 0.004820 0.575370 1.085590
Cu3   Cu    Cu3+1 0.995180 0.424630 0.995180 1.070129
Cu4   Cu    Cu3+1 0.004820 0.575370 0.004820 1.066508
Cu5   Cu    Cu3+1 0.424630 0.995180 0.995180 1.078706
Cu6   Cu    Cu3+1 0.575370 0.004820 0.004820 1.073192
C13   C     C_R   0.018274 0.830123 0.568135 0.812830
C14   C     C_R   0.970577 0.171674 0.435754 0.842340
C15   C     C_R   0.829852 0.568043 0.019182 0.818691
C16   C     C_R   0.171447 0.435703 0.971352 0.842685
C17   C     C_R   0.568753 0.015611 0.831150 0.819598
C18   C     C_R   0.435145 0.973221 0.171184 0.771963
C19   C     C_R   0.431973 0.169979 0.981378 0.820569
C20   C     C_R   0.564215 0.828365 0.029401 0.780367
C21   C     C_R   0.981105 0.431981 0.170025 0.820736
C22   C     C_R   0.028362 0.564347 0.828583 0.843554
C23   C     C_R   0.169225 0.983326 0.431497 0.808113
C24   C     C_R   0.828871 0.026141 0.565121 0.838834
O13   O     O_R   0.013780 0.867370 0.487190 -0.520708
O14   O     O_R   0.986220 0.132630 0.512810 -0.496120
O15   O     O_R   0.867370 0.487190 0.013780 -0.515221
O16   O     O_R   0.132630 0.512810 0.986220 -0.496539
O17   O     O_R   0.487190 0.013780 0.867370 -0.513595
O18   O     O_R   0.512810 0.986220 0.132630 -0.509463
O19   O     O_R   0.512810 0.132630 0.986220 -0.516946
O20   O     O_R   0.487190 0.867370 0.013780 -0.509757
O21   O     O_R   0.986220 0.512810 0.132630 -0.517522
O22   O     O_R   0.013780 0.487190 0.867370 -0.495903
O23   O     O_R   0.132630 0.986220 0.512810 -0.515001
O24   O     O_R   0.867370 0.013780 0.487190 -0.494994
C25   C     C_R   0.405275 0.983458 0.402007 -0.045231
C26   C     C_R   0.599038 0.011962 0.596293 -0.079025
C27   C     C_R   0.982701 0.401146 0.406654 -0.079577
C28   C     C_R   0.009855 0.595134 0.600883 -0.078963
C29   C     C_R   0.400152 0.405886 0.987073 -0.080657
C30   C     C_R   0.593173 0.599427 0.016732 -0.048553
C31   C     C_R   0.264042 0.983864 0.390892 -0.136284
C32   C     C_R   0.731880 0.034576 0.602347 -0.119407
C33   C     C_R   0.978704 0.392431 0.266049 -0.140622
C34   C     C_R   0.040191 0.598970 0.730654 -0.114812
C35   C     C_R   0.392560 0.265939 0.979835 -0.143797
C36   C     C_R   0.598256 0.729590 0.044532 -0.159992
C37   C     C_R   0.609745 0.013217 0.736982 -0.136351
C38   C     C_R   0.398858 0.962276 0.268696 -0.157622
C39   C     C_R   0.733681 0.607713 0.021710 -0.137758
C40   C     C_R   0.269561 0.401289 0.958740 -0.114422
C41   C     C_R   0.018895 0.734452 0.607978 -0.141877
C42   C     C_R   0.956305 0.270292 0.401093 -0.114951
C43   C     C_R   0.489044 0.964242 0.730049 0.453952
C44   C     C_R   0.544712 0.941358 0.293962 0.461832
C45   C     C_R   0.964587 0.730276 0.488461 0.451198
C46   C     C_R   0.939013 0.292977 0.545545 0.460602
C47   C     C_R   0.728120 0.491143 0.964878 0.449046
C48   C     C_R   0.290051 0.545603 0.946566 0.464018
C49   C     C_R   0.271203 0.033209 0.511159 0.450435
C50   C     C_R   0.706085 0.055248 0.457724 0.460989
C51   C     C_R   0.513565 0.271163 0.031561 0.453527
C52   C     C_R   0.452951 0.708047 0.059785 0.467378
C53   C     C_R   0.032407 0.510759 0.272574 0.452765
C54   C     C_R   0.051382 0.455047 0.709963 0.459967
C55   C     C_R   0.307904 0.965983 0.307180 -0.107626
C56   C     C_R   0.693867 0.029977 0.693456 -0.140486
C57   C     C_R   0.951575 0.313105 0.312637 -0.127141
C58   C     C_R   0.046646 0.686769 0.687255 -0.126774
C59   C     C_R   0.312956 0.313339 0.952582 -0.127254
C60   C     C_R   0.686534 0.686510 0.049861 -0.086075
C61   C     C_R   0.670874 0.024224 0.413856 -0.104088
C62   C     C_R   0.321614 0.014341 0.570473 -0.107075
C63   C     C_R   0.019512 0.412069 0.674697 -0.109368
C64   C     C_R   0.013779 0.570179 0.322587 -0.107287
C65   C     C_R   0.409534 0.672696 0.028964 -0.028487
C66   C     C_R   0.571827 0.322459 0.012240 -0.108990
C67   C     C_R   0.587788 0.972159 0.329739 -0.024548
C68   C     C_R   0.430042 0.982667 0.679376 -0.106299
C69   C     C_R   0.325512 0.588864 0.977910 -0.106703
C70   C     C_R   0.678690 0.431831 0.981815 -0.108563
C71   C     C_R   0.968369 0.328776 0.590268 -0.105661
C72   C     C_R   0.982797 0.679320 0.430124 -0.107348
C73   C     C_R   0.714172 0.013121 0.327698 0.256652
C74   C     C_R   0.282955 0.008714 0.661706 0.267041
C75   C     C_R   0.009371 0.325020 0.717722 0.298512
C76   C     C_R   0.009200 0.661771 0.283304 0.273747
C77   C     C_R   0.321189 0.714453 0.021862 0.345614
C78   C     C_R   0.664282 0.284855 0.001937 0.266433
C79   C     C_R   0.675133 0.980327 0.288320 0.339444
C80   C     C_R   0.338544 0.989279 0.717567 0.266074
C81   C     C_R   0.281554 0.675338 0.989553 0.262279
C82   C     C_R   0.718707 0.340567 0.984561 0.276688
C83   C     C_R   0.977836 0.285614 0.677629 0.300745
C84   C     C_R   0.992054 0.717238 0.337963 0.270877
C85   C     C_R   0.543532 0.990377 0.411931 -0.089440
C86   C     C_R   0.464559 0.995969 0.587863 -0.050913
C87   C     C_R   0.986754 0.411249 0.546042 -0.059275
C88   C     C_R   0.993985 0.587563 0.465882 -0.049389
C89   C     C_R   0.408777 0.544589 0.994966 -0.058572
C90   C     C_R   0.586520 0.465778 0.997277 -0.053035
C91   C     C_R   0.588924 0.005836 0.457707 -0.057876
C92   C     C_R   0.413278 0.000125 0.536379 -0.052687
C93   C     C_R   0.454412 0.590340 0.009944 -0.090609
C94   C     C_R   0.535562 0.414138 0.001520 -0.047791
C95   C     C_R   0.001504 0.456813 0.591967 -0.057838
C96   C     C_R   0.998758 0.535948 0.414552 -0.052113
C97   C     C_R   0.454036 0.991415 0.449927 0.023370
C98   C     C_R   0.551033 0.004334 0.547347 0.028967
C99   C     C_R   0.989691 0.449229 0.455687 0.025480
C100  C     C_R   0.000905 0.546720 0.553328 0.026284
C101  C     C_R   0.447820 0.454698 0.995233 0.030742
C102  C     C_R   0.544756 0.552139 0.007628 0.024588
C103  C     C_R   0.257542 0.953348 0.258134 0.176522
C104  C     C_R   0.206672 0.028146 0.206500 -0.045308
C105  C     C_R   0.157056 0.016549 0.162940 -0.154568
C106  C     C_R   0.156940 0.930811 0.171295 -0.064914
C107  C     C_R   0.206960 0.856366 0.222675 -0.008052
C108  C     C_R   0.257731 0.867377 0.265539 -0.116275
H1    H     H_    0.205610 0.094896 0.200524 0.098547
H2    H     H_    0.118321 0.074002 0.123122 0.096125
H3    H     H_    0.117967 0.922192 0.137889 0.107339
H4    H     H_    0.206448 0.790053 0.229238 0.141547
H5    H     H_    0.296032 0.809397 0.305375 0.101925
C109  C     C_R   0.743928 0.039995 0.744607 0.186355
C110  C     C_R   0.737076 0.124925 0.746926 -0.086863
C111  C     C_R   0.780251 0.133357 0.799052 -0.067183
C112  C     C_R   0.831914 0.057542 0.847413 -0.059272
C113  C     C_R   0.839740 0.972850 0.844778 -0.152415
C114  C     C_R   0.795467 0.963725 0.794182 -0.058263
H6    H     H_    0.697070 0.184023 0.709878 0.109663
H7    H     H_    0.773604 0.198773 0.802012 0.116586
H8    H     H_    0.865732 0.064366 0.887178 0.109557
H9    H     H_    0.879598 0.914302 0.882447 0.095165
H10   H     H_    0.800924 0.897758 0.793434 0.099818
C115  C     C_R   0.901195 0.285367 0.275726 0.157551
C116  C     C_R   0.943959 0.224134 0.224356 -0.010765
C117  C     C_R   0.896009 0.205781 0.183955 -0.084432
C118  C     C_R   0.805742 0.249547 0.192969 -0.083681
C119  C     C_R   0.763154 0.311398 0.242632 -0.155418
C120  C     C_R   0.810452 0.328852 0.284352 -0.140430
H11   H     H_    0.014570 0.192452 0.214135 0.103221
H12   H     H_    0.929010 0.158360 0.144909 0.107769
H13   H     H_    0.768340 0.234870 0.162478 0.131960
H14   H     H_    0.693330 0.345433 0.249202 0.129913
H15   H     H_    0.776888 0.377664 0.321890 0.121634
C121  C     C_R   0.100518 0.720871 0.713503 0.153422
C122  C     C_R   0.190777 0.709333 0.668812 -0.143126
C123  C     C_R   0.240921 0.750201 0.683066 -0.152750
C124  C     C_R   0.201631 0.802181 0.742677 -0.099228
C125  C     C_R   0.112010 0.813628 0.788099 -0.079147
C126  C     C_R   0.061274 0.773704 0.773267 -0.002878
H16   H     H_    0.221641 0.670466 0.621244 0.123194
H17   H     H_    0.310342 0.741387 0.648102 0.131109
H18   H     H_    0.241445 0.831663 0.755041 0.134142
H19   H     H_    0.081651 0.854175 0.834067 0.109937
H20   H     H_    0.991054 0.786153 0.805887 0.101939
C127  C     C_R   0.286155 0.278695 0.899533 0.152141
C128  C     C_R   0.329976 0.290031 0.809153 -0.143001
C129  C     C_R   0.314780 0.249210 0.759562 -0.151477
C130  C     C_R   0.255036 0.197532 0.799520 -0.096022
C131  C     C_R   0.210567 0.186174 0.889302 -0.078231
C132  C     C_R   0.226393 0.225983 0.939500 -0.003462
H21   H     H_    0.377510 0.328807 0.777712 0.124006
H22   H     H_    0.349040 0.257912 0.690025 0.132242
H23   H     H_    0.241916 0.168104 0.760141 0.134084
H24   H     H_    0.164557 0.145791 0.920194 0.109435
H25   H     H_    0.194431 0.213647 0.009816 0.102126
C133  C     C_R   0.721678 0.713319 0.102465 0.141388
C134  C     C_R   0.706289 0.673488 0.194195 -0.208358
C135  C     C_R   0.742830 0.693013 0.244716 -0.115916
C136  C     C_R   0.794625 0.752724 0.204163 0.010249
C137  C     C_R   0.810322 0.792844 0.112882 -0.073246
C138  C     C_R   0.774299 0.773135 0.061986 -0.012725
H26   H     H_    0.666834 0.626499 0.226295 0.123540
H27   H     H_    0.730943 0.661901 0.315346 0.125489
H28   H     H_    0.822230 0.768068 0.243692 0.121464
H29   H     H_    0.850840 0.838779 0.081479 0.103399
H30   H     H_    0.788494 0.802944 0.991045 0.106370
O25   O     O_3   0.305300 0.983685 0.807000 -0.724662
H31   H     H_    0.242130 0.017781 0.819501 0.313249
O26   O     O_3   0.718788 0.960387 0.208198 -0.679104
H32   H     H_    0.783472 0.941267 0.201712 0.314529
O27   O     O_3   0.992438 0.805603 0.302647 -0.724941
H33   H     H_    0.032248 0.813520 0.242040 0.313044
O28   O     O_3   0.961739 0.203236 0.719819 -0.713765
H34   H     H_    0.941130 0.196046 0.784465 0.315903
O29   O     O_3   0.808786 0.306889 0.977664 -0.719064
H35   H     H_    0.823141 0.242219 0.007435 0.316447
O30   O     O_3   0.198385 0.717534 0.974611 -0.710807
H36   H     H_    0.190635 0.782699 0.953661 0.315351
O31   O     O_3   0.193246 0.015443 0.694448 -0.722423
H37   H     H_    0.180338 0.981527 0.757528 0.312801
O32   O     O_3   0.796321 0.028797 0.286177 -0.710170
H38   H     H_    0.803044 0.050199 0.221426 0.315993
O33   O     O_3   0.699855 0.196498 0.001219 -0.729440
H39   H     H_    0.760041 0.188757 0.960500 0.312310
O34   O     O_3   0.276792 0.794601 0.042627 -0.679129
H40   H     H_    0.212413 0.800273 0.062882 0.312771
O35   O     O_3   0.014147 0.696032 0.193740 -0.723207
H41   H     H_    0.982033 0.760229 0.180899 0.314651
O36   O     O_3   0.025703 0.282235 0.800181 -0.711867
H42   H     H_    0.047853 0.217215 0.806896 0.317134
O37   O     O_3   0.483141 0.901538 0.811792 -0.683691
H43   H     H_    0.443909 0.866306 0.819217 0.351482
O38   O     O_3   0.596841 0.882333 0.243674 -0.660490
H44   H     H_    0.561259 0.844633 0.248177 0.293962
O39   O     O_3   0.902824 0.813055 0.480299 -0.685951
H45   H     H_    0.870396 0.822558 0.437382 0.356455
O40   O     O_3   0.878380 0.243857 0.591504 -0.700981
H46   H     H_    0.843075 0.262249 0.646386 0.328579
O41   O     O_3   0.808732 0.486870 0.901786 -0.685742
H47   H     H_    0.816045 0.448842 0.865278 0.355220
O42   O     O_3   0.241320 0.593894 0.884922 -0.692635
H48   H     H_    0.257825 0.650268 0.853009 0.344099
O43   O     O_3   0.190071 0.097263 0.516100 -0.686284
H49   H     H_    0.182807 0.132408 0.555415 0.354005
O44   O     O_3   0.752980 0.117786 0.410868 -0.694749
H50   H     H_    0.736283 0.150129 0.354301 0.344883
O45   O     O_3   0.522227 0.189002 0.094048 -0.683173
H51   H     H_    0.566073 0.179885 0.125235 0.352066
O46   O     O_3   0.401163 0.759109 0.118130 -0.672641
H52   H     H_    0.437104 0.754209 0.155949 0.287765
O47   O     O_3   0.095865 0.515913 0.192189 -0.685261
H53   H     H_    0.130538 0.555618 0.184927 0.356626
O48   O     O_3   0.113930 0.406474 0.757641 -0.691980
H54   H     H_    0.146370 0.350686 0.739849 0.342838

loop_
_geom_bond_atom_site_label_1
_geom_bond_atom_site_label_2
_geom_bond_distance
_ccdc_geom_bond_type
C7    C26   1.414268 A    
O10   Cu3   1.969929 S    
C11   C28   1.414752 A    
C2    C26   1.413047 A    
O27   H33   0.989167 S    
C1    C49   1.425617 A    
C117  C118  1.397772 A    
C85   C91   1.405571 A    
C103  C104  1.411154 A    
O5    C19   1.305020 A    
C93   C102  1.404738 A    
C15   O15   1.289815 A    
O26   H32   0.989904 S    
C27   C99   1.411422 A    
C21   O21   1.289591 A    
C112  C113  1.397014 A    
C23   C31   1.494127 S    
C107  H4    1.082390 S    
C18   O18   1.293557 A    
Cu1   O13   1.968989 S    
C128  C129  1.396920 A    
Cu2   O14   1.968988 S    
C105  C106  1.396815 A    
C36   C60   1.409081 A    
O28   H34   0.990099 S    
C130  C131  1.398178 A    
O31   H37   0.987681 S    
C35   C59   1.420537 A    
C32   C56   1.416825 A    
C84   O27   1.381616 S    
C29   C101  1.413531 A    
O40   H46   0.990202 S    
C13   O13   1.288796 A    
C76   C84   1.431206 A    
C68   C80   1.416691 A    
O8    Cu5   1.976078 S    
C75   C83   1.427555 A    
C116  C117  1.398442 A    
O2    C24   1.301615 A    
C111  C112  1.398562 A    
C44   O38   1.381343 S    
C108  H5    1.082914 S    
Cu4   O21   1.977598 S    
C75   O36   1.381327 S    
C125  C126  1.398577 A    
C65   C93   1.401204 A    
C127  C132  1.409154 A    
C2    C32   1.427384 A    
C53   O47   1.383841 S    
C4    C54   1.421911 A    
C85   C97   1.403944 A    
C47   C70   1.417538 A    
C137  H29   1.082426 S    
O46   H52   0.991792 S    
O8    C18   1.301803 A    
C92   C97   1.404330 A    
O39   H45   0.991294 S    
C136  H28   1.081843 S    
O37   H43   0.991273 S    
C63   C75   1.416127 A    
C77   O34   1.380285 S    
C90   C94   1.402157 A    
C134  H26   1.083312 S    
C65   C77   1.416284 A    
O45   H51   0.991301 S    
C12   C27   1.411588 A    
C19   C35   1.491626 S    
C45   C72   1.416952 A    
C89   C101  1.403765 A    
O43   H49   0.991270 S    
O6    C20   1.306074 A    
C7    C37   1.429808 A    
C69   C81   1.415095 A    
C16   O16   1.288492 A    
C2    C50   1.422062 A    
C67   C85   1.401069 A    
Cu5   Cu6   2.670750 S    
C87   C99   1.404435 A    
O42   H48   0.987352 S    
C24   C32   1.493914 S    
C128  H21   1.083345 S    
C72   C88   1.397181 A    
C15   C39   1.494212 S    
Cu5   O20   1.967187 S    
Cu3   O15   1.974474 S    
C13   C41   1.492646 S    
C76   O35   1.383083 S    
C80   O25   1.383559 S    
O11   C13   1.304015 A    
C103  C108  1.403525 A    
C122  C123  1.396823 A    
O7    Cu6   1.976080 S    
O48   H54   0.987668 S    
O12   C14   1.304835 A    
O1    Cu1   1.974923 S    
C38   C55   1.417485 A    
C3    C27   1.415457 A    
C30   C102  1.411102 A    
C105  H2    1.082451 S    
C77   C81   1.427246 A    
C114  H10   1.083253 S    
C8    C25   1.414264 A    
C95   C100  1.403829 A    
O4    Cu4   1.972016 S    
C138  H30   1.082985 S    
C110  C111  1.398572 A    
C44   C67   1.411510 A    
O5    Cu5   1.963002 S    
C125  H19   1.082360 S    
C64   C96   1.398594 A    
C123  H17   1.082348 S    
O30   H36   0.990488 S    
C47   O41   1.383695 S    
C43   O37   1.384011 S    
C56   C109  1.492192 S    
C136  C137  1.398402 A    
C124  C125  1.398195 A    
C20   C36   1.493528 S    
C7    C43   1.425708 A    
Cu1   O24   1.984293 S    
C10   C48   1.421578 A    
C91   C98   1.404580 A    
C14   C42   1.493875 S    
C11   C45   1.427189 A    
C104  H1    1.083294 S    
O3    C21   1.302711 A    
C51   C66   1.417168 A    
C66   C94   1.396539 A    
C12   C46   1.422584 A    
C45   O39   1.383884 S    
C3    C53   1.426512 A    
C96   C99   1.402973 A    
O34   H40   0.989861 S    
C131  C132  1.398614 A    
C53   C64   1.417443 A    
C51   O45   1.383982 S    
C52   O46   1.382114 S    
C9    C39   1.435384 A    
C133  C134  1.404350 A    
C83   O28   1.380873 S    
C50   O44   1.380399 S    
C126  H20   1.083140 S    
O33   H39   0.988947 S    
C81   O30   1.381259 S    
C135  C136  1.396489 A    
O4    C22   1.306271 A    
C109  C114  1.410728 A    
C72   C84   1.415246 A    
C62   C92   1.397552 A    
O36   H42   0.990333 S    
C19   O19   1.287277 A    
C68   C86   1.398200 A    
C119  C120  1.397372 A    
O41   H47   0.991190 S    
C17   C37   1.492367 S    
C124  H18   1.080729 S    
C58   C121  1.490255 S    
Cu4   O16   1.974473 S    
O38   H44   0.991947 S    
C14   O14   1.292186 A    
C8    C44   1.432231 A    
O10   C16   1.306790 A    
Cu1   Cu2   2.670764 S    
C4    C28   1.411360 A    
C120  H15   1.083270 S    
C113  C114  1.397539 A    
C23   O23   1.293600 A    
C49   C62   1.414050 A    
C104  C105  1.396872 A    
C31   C55   1.420836 A    
C118  H13   1.081219 S    
C9    C30   1.416676 A    
C70   C90   1.399057 A    
C46   O40   1.381127 S    
C135  H27   1.082337 S    
C6    C30   1.412045 A    
C123  C124  1.396348 A    
O6    Cu6   1.963002 S    
Cu6   O19   1.967187 S    
Cu5   O17   1.985617 S    
C116  H11   1.083056 S    
C70   C82   1.416773 A    
C59   C127  1.490860 S    
C61   C91   1.398875 A    
C121  C122  1.404578 A    
C57   C115  1.490980 S    
C40   C59   1.408009 A    
C6    C36   1.426518 A    
C113  H9    1.082269 S    
C39   C60   1.420797 A    
Cu2   O23   1.984293 S    
C10   C29   1.411319 A    
C42   C57   1.410521 A    
Cu3   O22   1.977600 S    
C12   C42   1.424437 A    
C132  H25   1.083426 S    
C129  H22   1.082419 S    
C86   C92   1.399531 A    
Cu6   O18   1.985616 S    
C46   C71   1.417306 A    
O35   H41   0.989143 S    
C16   C40   1.493874 S    
C64   C76   1.416242 A    
C37   C56   1.420072 A    
C3    C33   1.435338 A    
C52   C65   1.411357 A    
C33   C57   1.421901 A    
C115  C120  1.404504 A    
C90   C102  1.403361 A    
O7    C17   1.300312 A    
C127  C128  1.404606 A    
C8    C38   1.429059 A    
C73   O32   1.381108 S    
C110  H6    1.082914 S    
C82   O29   1.383448 S    
C61   C73   1.416127 A    
C109  C110  1.404007 A    
O9    C15   1.302690 A    
O2    Cu2   1.974923 S    
C25   C97   1.410912 A    
O1    C23   1.299944 A    
C131  H24   1.082447 S    
C18   C38   1.495517 S    
C88   C100  1.402420 A    
O11   Cu2   1.963934 S    
C122  H16   1.083284 S    
C20   O20   1.290261 A    
C89   C93   1.406313 A    
C129  C130  1.396472 A    
C48   C69   1.417179 A    
C111  H7    1.082012 S    
C21   C33   1.494109 S    
C107  C108  1.398570 A    
C4    C34   1.426652 A    
C5    C35   1.437377 A    
C22   C34   1.494469 S    
O12   Cu1   1.963934 S    
C73   C79   1.428405 A    
C71   C87   1.400008 A    
C137  C138  1.398486 A    
C50   C61   1.417787 A    
O3    Cu3   1.972014 S    
C67   C79   1.416209 A    
C5    C29   1.414785 A    
C49   O43   1.384152 S    
C22   O22   1.289327 A    
C24   O24   1.293096 A    
C74   C80   1.432467 A    
C118  C119  1.396818 A    
C60   C133  1.490076 S    
C28   C100  1.412644 A    
C48   O42   1.379612 S    
O32   H38   0.990368 S    
O44   H50   0.988477 S    
C79   O26   1.381154 S    
C6    C52   1.432648 A    
C106  H3    1.081811 S    
C34   C58   1.409101 A    
C112  H8    1.082151 S    
C5    C51   1.427972 A    
C54   C63   1.417194 A    
C26   C98   1.411750 A    
C66   C78   1.415305 A    
C134  C135  1.397643 A    
C71   C83   1.416492 A    
C63   C95   1.398446 A    
C43   C68   1.414958 A    
C78   O33   1.381603 S    
C130  H23   1.080879 S    
C62   C74   1.416629 A    
O25   H31   0.987620 S    
C69   C89   1.398253 A    
C41   C58   1.421325 A    
C78   C82   1.431935 A    
C121  C126  1.408718 A    
C1    C31   1.428840 A    
C94   C101  1.401981 A    
C11   C41   1.435974 A    
C133  C138  1.407870 A    
C86   C98   1.402900 A    
C9    C47   1.426267 A    
Cu3   Cu4   2.668427 S    
O29   H35   0.988710 S    
C119  H14   1.082334 S    
C54   O48   1.379698 S    
C88   C96   1.402256 A    
C74   O31   1.383516 S    
C17   O17   1.292401 A    
C115  C116  1.408865 A    
C87   C95   1.404924 A    
C117  H12   1.082369 S    
C10   C40   1.427193 A    
C106  C107  1.399323 A    
O47   H53   0.991194 S    
O9    Cu4   1.969930 S    
C55   C103  1.491579 S    
C1    C25   1.415238 A    
