data_mof_unit_17772.cif
_audit_creation_date              2012-12-10T17:14:40-0500
_audit_creation_method            fapswitch 2.2
_symmetry_space_group_name_H-M    P1
_symmetry_Int_Tables_number       1
_space_group_crystal_system       triclinic
_cell_length_a                    10.806816
_cell_length_b                    13.033246
_cell_length_c                    11.909767
_cell_angle_alpha                 100.536854
_cell_angle_beta                  90.758413
_cell_angle_gamma                 96.425066
_cell_volume                      1637.84559019

loop_
_atom_site_label
_atom_site_type_symbol
_atom_type_description
_atom_site_fract_x
_atom_site_fract_y
_atom_site_fract_z
_atom_type_partial_charge
C1    C     C_R   0.500790 0.299382 0.477039 0.831722
C2    C     C_R   0.500740 0.700727 0.522859 0.882048
C3    C     C_R   0.505900 0.141051 0.559582 -0.169271
C4    C     C_R   0.504150 0.859600 0.440143 -0.177668
C5    C     C_R   0.504142 0.033258 0.553984 0.093727
C6    C     C_R   0.504700 0.967321 0.445669 0.096004
C7    C     C_R   0.341167 0.479714 0.048305 -0.152044
C8    C     C_R   0.659559 0.526029 0.953374 -0.154750
C9    C     C_R   0.362586 0.449270 0.153281 0.458863
C10   C     C_R   0.636735 0.554309 0.847333 0.452821
C11   C     C_R   0.573415 0.521644 0.147740 0.444457
C12   C     C_R   0.427320 0.478310 0.853352 0.477579
C13   C     C_R   0.560000 0.510705 0.025874 -0.175834
C14   C     C_R   0.440951 0.492389 0.975469 -0.157856
C15   C     C_R   0.259292 0.495275 0.501796 0.904919
C16   C     C_R   0.740490 0.503850 0.497976 0.974516
C17   C     C_3   0.018866 0.404944 0.522639 0.335810
C18   C     C_3   0.979797 0.592283 0.476333 0.347593
C19   C     C_3   0.945842 0.422602 0.417466 0.405954
C20   C     C_3   0.053114 0.575033 0.581340 0.402062
C21   C     C_3   0.877271 0.504607 0.493945 -0.332158
C22   C     C_3   0.121936 0.492827 0.505121 -0.327456
C23   C     C_3   0.950565 0.487499 0.600443 -0.304480
C24   C     C_3   0.048475 0.510138 0.398487 -0.306324
C25   C     C_R   0.501024 0.815513 0.538610 -0.056025
C26   C     C_R   0.503966 0.184838 0.461102 -0.050839
C27   C     C_R   0.506133 0.010183 0.344732 -0.069750
C28   C     C_R   0.500419 0.990306 0.654889 -0.078818
C29   C     C_R   0.505774 0.118990 0.352177 -0.071466
C30   C     C_R   0.497556 0.881254 0.647392 -0.075132
Cu1   Cu    Cu3+1 0.509400 0.507730 0.615930 1.094383
Cu2   Cu    Cu3+1 0.490600 0.492270 0.384070 1.108393
H1    H     H_    0.912093 0.476170 0.683759 0.246457
H2    H     H_    0.086952 0.522168 0.315425 0.245999
H3    H     H_    0.505826 0.808803 0.357657 0.182280
H4    H     H_    0.508276 0.192031 0.642222 0.203265
N1    N     N_R   0.523540 0.519360 0.790140 -0.299291
N2    N     N_R   0.476460 0.480640 0.209860 -0.294645
O1    O     O_R   0.506670 0.354460 0.582000 -0.587195
O2    O     O_R   0.493330 0.645540 0.418000 -0.577721
O3    O     O_R   0.490800 0.341410 0.386200 -0.546388
O4    O     O_R   0.509200 0.658590 0.613800 -0.545881
O5    O     O_R   0.324790 0.506500 0.597880 -0.543267
O6    O     O_R   0.675210 0.493500 0.402120 -0.508148
O7    O     O_R   0.308910 0.493440 0.402080 -0.568690
O8    O     O_R   0.691090 0.506560 0.597920 -0.575072
S1    S     S_3+6 0.878744 0.316997 0.307074 0.116244
O9    O     O_2   0.754243 0.274543 0.343885 -0.324580
O10   O     O_2   0.862399 0.353252 0.195998 -0.209171
O11   O     O_3   0.971597 0.220536 0.285839 -0.411539
H5    H     H_    0.923286 0.162098 0.232543 0.374683
S2    S     S_3+6 0.120033 0.681037 0.690898 0.116672
O12   O     O_2   0.140649 0.644201 0.801026 -0.210472
O13   O     O_2   0.242340 0.726049 0.651945 -0.320014
O14   O     O_3   0.024033 0.775188 0.714152 -0.415295
H6    H     H_    0.070412 0.833274 0.769359 0.377145
S3    S     S_3+6 0.018656 0.274813 0.553543 0.078530
O15   O     O_2   0.113952 0.218247 0.484051 -0.255092
O16   O     O_2   0.044663 0.278887 0.678330 -0.196045
O17   O     O_3   0.876978 0.207453 0.520578 -0.487232
H7    H     H_    0.886034 0.134921 0.530887 0.383357
S4    S     S_3+6 0.969866 0.720756 0.444394 0.118722
O18   O     O_2   0.958759 0.715290 0.317751 -0.183237
O19   O     O_2   0.859218 0.765356 0.501132 -0.221385
O20   O     O_3   0.099922 0.801121 0.491843 -0.481147
H8    H     H_    0.083246 0.871280 0.478762 0.383055
C31   C     C_1   0.486097 0.838910 0.751915 0.426667
N3    N     N_1   0.475752 0.805673 0.835456 -0.165524
C32   C     C_1   0.512217 0.161005 0.247296 0.429778
N4    N     N_1   0.518680 0.193955 0.163403 -0.160419
C33   C     C_1   0.507406 0.943096 0.232787 0.244470
N5    N     N_1   0.508298 0.889857 0.143701 -0.230160
C34   C     C_1   0.497095 0.057349 0.766663 0.271694
N6    N     N_1   0.494362 0.110652 0.855521 -0.179650
S5    S     S_3+6 0.294361 0.389723 0.791198 0.090044
O21   O     O_2   0.242744 0.324219 0.874990 -0.193214
O22   O     O_2   0.194239 0.452588 0.763324 -0.256076
O23   O     O_3   0.321357 0.301341 0.676761 -0.491981
H9    H     H_    0.278148 0.321132 0.612001 0.382846
S6    S     S_3+6 0.706890 0.607000 0.212210 0.072097
O24   O     O_2   0.686902 0.671634 0.325870 -0.260098
O25   O     O_2   0.810504 0.542619 0.225186 -0.213564
O26   O     O_3   0.755400 0.692949 0.128146 -0.459671
H10   H     H_    0.692919 0.743687 0.136494 0.372966
S7    S     S_3+6 0.741427 0.662200 0.819380 0.063317
O27   O     O_2   0.872558 0.637177 0.831399 -0.257162
O28   O     O_2   0.724144 0.693271 0.705840 -0.245342
O29   O     O_3   0.722568 0.766850 0.920615 -0.513266
H11   H     H_    0.792212 0.820640 0.911549 0.391165
S8    S     S_3+6 0.258096 0.340118 0.177604 0.070476
O30   O     O_2   0.276008 0.306624 0.289845 -0.258119
O31   O     O_2   0.126807 0.365037 0.166568 -0.258404
O32   O     O_3   0.277647 0.237810 0.073492 -0.473957
H12   H     H_    0.209639 0.182522 0.082259 0.389902
C35   C     C_1   0.223310 0.516362 0.027270 0.441255
N7    N     N_1   0.129650 0.547293 0.011534 -0.110269
C36   C     C_1   0.778613 0.491238 0.973751 0.476785
N8    N     N_1   0.873313 0.461559 0.988482 -0.112463

loop_
_geom_bond_atom_site_label_1
_geom_bond_atom_site_label_2
_ccdc_geom_bond_type
O14   H6    S    
C10   S7    S    
C16   C21   S    
Cu1   O4    S    
C27   C29   A    
C18   C21   S    
Cu2   O7    S    
C35   N7    T    
S5    O21   D    
C36   N8    T    
S3    O15   D    
S1    O10   D    
S7    O27   D    
C17   C23   S    
Cu1   O5    S    
O26   H10   S    
C18   C24   S    
C19   C21   S    
C5    C6    A    
C19   S1    S    
S3    O16   D    
C34   N6    T    
C12   N1    A    
S4    O19   D    
C15   C22   S    
Cu1   Cu2   S    
C23   H1    S    
Cu1   O8    S    
Cu2   O3    S    
Cu2   N2    S    
C7    C14   A    
C16   O6    A    
C30   C31   S    
S2    O14   S    
C4    H3    S    
C13   C14   A    
S6    O26   S    
C28   C34   S    
S2    O13   D    
C4    C25   A    
S1    O11   S    
C29   C32   S    
S7    O28   D    
C31   N3    T    
S1    O9    D    
C4    C6    A    
C16   O8    A    
O23   H9    S    
C18   S4    S    
S3    O17   S    
C24   H2    S    
Cu1   N1    S    
O17   H7    S    
C11   N2    A    
C8    C36   S    
S4    O18   D    
C5    C28   A    
S8    O31   D    
C6    C27   A    
C20   C23   S    
O11   H5    S    
Cu2   O6    S    
O32   H12   S    
S5    O22   D    
C1    O3    A    
C12   C14   A    
C21   C23   S    
C1    C26   S    
C22   C24   S    
C15   O7    A    
C27   C33   S    
S2    O12   D    
S8    O32   S    
S7    O29   S    
C25   C30   A    
C7    C9    A    
S4    O20   S    
C3    C26   A    
C20   C22   S    
S6    O24   D    
C3    C5    A    
C9    S8    S    
C10   N1    A    
C7    C35   S    
C17   C22   S    
C28   C30   A    
C19   C24   S    
C15   O5    A    
C33   N5    T    
C20   S2    S    
C11   C13   A    
S8    O30   D    
C3    H4    S    
C2    O4    A    
C9    N2    A    
C17   C19   S    
S6    O25   D    
Cu1   O1    S    
C2    C25   S    
C18   C20   S    
Cu2   O2    S    
C32   N4    T    
S5    O23   S    
C11   S6    S    
C1    O1    A    
C8    C13   A    
C2    O2    A    
O29   H11   S    
C26   C29   A    
C8    C10   A    
O20   H8    S    
C12   S5    S    
C17   S3    S    
