data_mof_unit_50332.cif
_audit_creation_date              2012-12-10T20:35:52-0500
_audit_creation_method            fapswitch 2.2
_symmetry_space_group_name_H-M    P1
_symmetry_Int_Tables_number       1
_space_group_crystal_system       triclinic
_cell_length_a                    15.750589
_cell_length_b                    10.684342
_cell_length_c                    9.860769
_cell_angle_alpha                 90.045765
_cell_angle_beta                  89.927655
_cell_angle_gamma                 89.84453
_cell_volume                      1659.4083858

loop_
_atom_site_label
_atom_site_type_symbol
_atom_type_description
_atom_site_fract_x
_atom_site_fract_y
_atom_site_fract_z
_atom_type_partial_charge
C1    C     C_R   0.497761 0.259972 0.500086 0.875255
C2    C     C_3   0.951062 0.398620 0.599627 -0.561272
C3    C     C_3   0.916868 0.499711 0.499123 0.008949
C4    C     C_3   0.952672 0.632782 0.538570 0.415947
C5    C     C_3   0.050469 0.628244 0.552925 -0.600535
C6    C     C_1   0.825614 0.499213 0.499357 0.036796
C7    C     C_1   0.174320 0.499909 0.499845 0.020900
C8    C     C_1   0.249548 0.499706 0.500090 -0.144696
C9    C     C_R   0.491209 0.063936 0.623578 0.014989
C10   C     C_R   0.485556 0.128540 0.501375 -0.039427
C11   C     C_R   0.464894 0.064661 0.381665 -0.218317
C12   C     C_R   0.338318 0.499764 0.500099 0.892245
C13   C     C_R   0.464801 0.935245 0.381659 -0.218393
C14   C     C_R   0.485666 0.871488 0.501326 -0.045798
C15   C     C_R   0.491472 0.936273 0.623453 -0.004383
C16   C     C_3   0.557065 0.929542 0.732854 0.497017
C17   C     C_3   0.556753 0.071430 0.732964 -0.506710
C18   C     C_R   0.428211 0.469741 0.071321 0.202478
C19   C     C_R   0.568353 0.541363 0.071846 -0.141994
C20   C     C_R   0.568354 0.541388 0.927896 -0.118318
C21   C     C_R   0.428119 0.470004 0.928826 0.145230
C22   C     C_3   0.380870 0.349406 0.922777 -0.567058
C23   C     C_R   0.497774 0.740005 0.500084 0.919727
C24   C     C_3   0.381610 0.348753 0.077347 0.321379
C25   C     C_R   0.661667 0.499851 0.499868 0.926713
C26   C     C_3   0.049359 0.396106 0.595420 0.494108
C27   C     C_3   0.049961 0.479418 0.352166 -0.441182
C28   C     C_3   0.952573 0.458340 0.356356 0.332294
C29   C     C_1   0.750411 0.499379 0.499642 -0.153531
C30   C     C_3   0.082975 0.500422 0.499543 0.090531
H1    H     H_    0.926181 0.304684 0.571362 0.223898
H2    H     H_    0.074174 0.411056 0.699849 0.090070
H3    H     H_    0.928551 0.411559 0.704736 0.162791
H4    H     H_    0.942679 0.693596 0.450226 0.119263
H5    H     H_    0.454325 0.113511 0.287116 0.150136
H6    H     H_    0.453906 0.886127 0.287133 0.166679
H7    H     H_    0.533261 0.886619 0.828204 0.065759
H8    H     H_    0.530832 0.111987 0.828246 0.151972
H9    H     H_    0.617317 0.113594 0.697389 0.232955
H10   H     H_    0.624060 0.572898 0.125822 0.168924
H11   H     H_    0.624048 0.572982 0.873751 0.172762
H12   H     H_    0.316586 0.361415 0.878068 0.231838
H13   H     H_    0.419108 0.272525 0.877335 0.178184
H14   H     H_    0.420883 0.273186 0.123889 0.071012
H15   H     H_    0.067455 0.560501 0.287926 0.181883
H16   H     H_    0.081251 0.396005 0.306138 0.203070
H17   H     H_    0.945767 0.354612 0.352792 0.165338
H18   H     H_    0.071212 0.642731 0.659290 0.197050
H19   H     H_    0.079298 0.705804 0.493144 0.188879
N1    N     N_R   0.499430 0.499140 0.142800 -0.143811
N2    N     N_R   0.499430 0.499180 0.857150 -0.107130
O1    O     O_R   0.500010 0.316790 0.614690 -0.614560
O2    O     O_R   0.500000 0.316760 0.385350 -0.632237
O3    O     O_R   0.377150 0.500020 0.614720 -0.621879
O4    O     O_R   0.377140 0.499990 0.385380 -0.583556
O5    O     O_R   0.500000 0.683240 0.614650 -0.607484
O6    O     O_R   0.499990 0.683210 0.385310 -0.631403
O7    O     O_R   0.622860 0.500010 0.614620 -0.611387
O8    O     O_R   0.622850 0.499980 0.385280 -0.616430
Zn1   Zn    Zn3+2 0.500010 0.500020 0.653130 0.967140
Zn2   Zn    Zn3+2 0.499990 0.499980 0.346870 0.967718
F1    F     F_    0.633306 0.880208 0.686917 -0.639189
F2    F     F_    0.077363 0.279648 0.551602 -0.665393
O9    O     O_3   0.299979 0.366834 0.133602 -0.573532
C31   C     C_3   0.264996 0.249726 0.167422 -0.264863
H20   H     H_    0.300546 0.206066 0.252630 0.160440
H21   H     H_    0.263563 0.185787 0.078236 0.155380
H22   H     H_    0.198604 0.264140 0.201661 0.198076
O10   O     O_3   0.907714 0.494829 0.236958 -0.597376
C32   C     C_3   0.899126 0.624768 0.217190 -0.286670
H23   H     H_    0.959960 0.675878 0.226123 0.141166
H24   H     H_    0.849267 0.663931 0.284652 0.173877
H25   H     H_    0.876623 0.640242 0.111986 0.182072
O11   O     O_3   0.910022 0.701000 0.642900 -0.574650
C33   C     C_3   0.908010 0.641827 0.770533 -0.208340
H26   H     H_    0.968284 0.594638 0.798144 0.127951
H27   H     H_    0.853286 0.576847 0.776092 0.167397
H28   H     H_    0.896833 0.714687 0.848756 0.183266

loop_
_geom_bond_atom_site_label_1
_geom_bond_atom_site_label_2
_ccdc_geom_bond_type
C28   H17   S    
C26   H2    S    
C18   C21   A    
C19   C20   A    
C26   F2    S    
C3    C6    S    
C20   H11   S    
C7    C8    T    
O3    Zn1   S    
C18   N1    A    
C18   C24   S    
C3    C28   S    
C20   N2    A    
O7    Zn1   S    
C15   C16   S    
C17   H9    S    
C1    O2    A    
O1    Zn1   S    
O2    Zn2   S    
C28   O10   S    
C16   C17   S    
C31   H21   S    
C32   H23   S    
C9    C10   A    
C4    O11   S    
C16   H7    S    
C27   H15   S    
C24   O9    S    
C7    C30   S    
C21   C22   S    
C27   C30   S    
C5    H19   S    
C16   F1    S    
C1    O1    A    
C25   C29   S    
C5    H18   S    
C4    H4    S    
O8    Zn2   S    
O11   C33   S    
C23   O5    A    
C13   H6    S    
C10   C11   A    
O5    Zn1   S    
C2    H1    S    
C14   C23   S    
C33   H26   S    
C22   H13   S    
C8    C12   S    
C31   H22   S    
C32   H25   S    
C2    C26   S    
C33   H27   S    
C2    H3    S    
C9    C17   S    
C26   C30   S    
C24   H14   S    
C22   C24   S    
C25   O7    A    
C3    C4    S    
C21   N2    A    
C27   H16   S    
C5    C30   S    
C23   O6    A    
C1    C10   S    
C4    C5    S    
O6    Zn2   S    
O9    C31   S    
C11   H5    S    
C2    C3    S    
C9    C15   A    
C11   C13   A    
C19   N1    A    
C22   H12   S    
O4    Zn2   S    
C17   H8    S    
O10   C32   S    
C33   H28   S    
C12   O4    A    
C19   H10   S    
C6    C29   T    
C31   H20   S    
C27   C28   S    
N1    Zn2   S    
C14   C15   A    
C32   H24   S    
N2    Zn1   S    
C25   O8    A    
C13   C14   A    
C12   O3    A    
