data_mof_unit_20168.cif
_audit_creation_date              2012-12-11T16:29:34-0500
_audit_creation_method            fapswitch 2.2
_symmetry_space_group_name_H-M    P1
_symmetry_Int_Tables_number       1
_space_group_crystal_system       triclinic
_cell_length_a                    6.962379
_cell_length_b                    17.352983
_cell_length_c                    18.686924
_cell_angle_alpha                 106.322866
_cell_angle_beta                  89.74092
_cell_angle_gamma                 90.54119
_cell_volume                      2166.61549754

loop_
_atom_site_label
_atom_site_type_symbol
_atom_type_description
_atom_site_fract_x
_atom_site_fract_y
_atom_site_fract_z
_atom_type_partial_charge
O1    O     O_R   0.494360 0.415680 0.413760 -0.535018
O2    O     O_R   0.818810 0.432910 0.557230 -0.525570
O3    O     O_R   0.994290 0.584320 0.586240 -0.531161
C1    C     C_R   0.649759 0.415806 0.580443 0.711212
O4    O     O_R   0.823740 0.406440 0.412520 -0.534942
O5    O     O_R   0.999250 0.557660 0.440500 -0.523409
C2    C     C_R   0.654768 0.384189 0.384512 0.694600
O6    O     O_R   0.489400 0.442340 0.559500 -0.525496
O7    O     O_3   0.662500 0.549650 0.509350 -0.354509
V1    V     V_3+5 0.935340 0.490790 0.498270 1.424441
O8    O     O_R   0.329270 0.567090 0.442770 -0.522432
C3    C     C_R   0.161197 0.583766 0.419178 0.713040
O9    O     O_R   0.324340 0.593560 0.587480 -0.532331
C4    C     C_R   0.155425 0.616318 0.615126 0.697443
V2    V     V_3+5 0.435970 0.509210 0.501730 1.430605
O10   O     O_3   0.158940 0.450350 0.490650 -0.362434
C5    C     C_R   0.195734 0.597630 0.762310 -0.143271
C6    C     C_R   0.212248 0.585691 0.832635 -0.115791
C7    C     C_R   0.197612 0.650276 0.896070 -0.127248
C8    C     C_R   0.166975 0.727227 0.889573 -0.121744
C9    C     C_R   0.150557 0.741612 0.818694 0.075387
C10   C     C_R   0.164493 0.675215 0.753997 0.061690
C11   C     C_R   0.121189 0.820513 0.812227 -0.164961
C12   C     C_R   0.106320 0.833862 0.739537 0.022253
C13   C     C_R   0.112796 0.764801 0.675306 0.023959
C14   C     C_R   0.144884 0.686680 0.682608 -0.158587
C15   C     C_R   0.086141 0.912331 0.726751 0.036517
C16   C     C_R   0.058369 0.916587 0.653144 -0.138532
C17   C     C_R   0.058464 0.848955 0.592913 0.178570
C18   C     C_R   0.088110 0.774400 0.603378 -0.151213
H1    H     H_    0.207357 0.545273 0.714650 0.097551
H2    H     H_    0.236050 0.525962 0.837904 0.116238
H3    H     H_    0.210190 0.640785 0.950690 0.113996
H4    H     H_    0.156520 0.775027 0.940988 0.092427
H5    H     H_    0.037143 0.972711 0.640320 0.135082
H6    H     H_    0.090391 0.723932 0.553856 0.120861
C19   C     C_1   0.111533 0.863686 0.132382 -0.162527
C20   C     C_1   0.118974 0.821044 0.175916 0.038141
C21   C     C_1   0.128462 0.770791 0.227769 0.017149
C22   C     C_1   0.136542 0.728323 0.271444 0.031639
C23   C     C_1   0.145959 0.677936 0.323182 0.037742
C24   C     C_1   0.153416 0.635468 0.366871 -0.192748
C25   C     C_1   0.640937 0.363350 0.632017 -0.224999
C26   C     C_1   0.636614 0.320355 0.675270 -0.008570
C27   C     C_1   0.633274 0.269865 0.726947 -0.011756
C28   C     C_1   0.630943 0.227559 0.770805 -0.012625
C29   C     C_1   0.627918 0.177623 0.822934 -0.003177
C30   C     C_1   0.623989 0.135329 0.866830 -0.240382
C31   C     C_R   0.735645 0.401592 0.238323 -0.194909
C32   C     C_R   0.772422 0.413782 0.168515 0.135196
C33   C     C_R   0.754403 0.348336 0.104670 -0.122915
C34   C     C_R   0.703947 0.272574 0.110721 -0.171860
C35   C     C_R   0.669794 0.258981 0.180933 0.064228
C36   C     C_R   0.683710 0.325119 0.245813 0.051347
C37   C     C_R   0.623142 0.180948 0.186769 -0.168877
C38   C     C_R   0.592019 0.168687 0.258756 0.024796
C39   C     C_R   0.594381 0.237085 0.323026 0.036268
C40   C     C_R   0.643441 0.314433 0.316652 -0.151427
C41   C     C_R   0.560869 0.091369 0.270877 0.082044
C42   C     C_R   0.517940 0.084807 0.342195 -0.108229
C43   C     C_R   0.511572 0.152175 0.404159 0.098593
C44   C     C_R   0.551995 0.227133 0.394012 -0.179145
H7    H     H_    0.748298 0.453086 0.286866 0.099028
H8    H     H_    0.779464 0.354563 0.049445 0.107255
H9    H     H_    0.692832 0.224772 0.059270 0.099053
H10   H     H_    0.493540 0.025618 0.348828 0.144857
H11   H     H_    0.550919 0.277966 0.443322 0.102134
O11   O     O_R   0.775690 0.057750 0.940570 -0.533194
O12   O     O_R   0.441200 0.093570 0.087490 -0.527978
O13   O     O_R   0.265840 0.942320 0.059480 -0.509704
C45   C     C_R   0.609951 0.113992 0.116998 0.762004
O14   O     O_R   0.446270 0.067110 0.942790 -0.532490
O15   O     O_R   0.270950 0.915660 0.913750 -0.536866
C46   C     C_R   0.615265 0.083820 0.919239 0.693836
O16   O     O_R   0.770580 0.084400 0.086300 -0.525316
O17   O     O_3   0.602640 0.950400 0.990690 -0.346111
V3    V     V_3+5 0.329740 0.009200 0.001730 1.438855
O18   O     O_R   0.940900 0.906360 0.912450 -0.538911
C47   C     C_R   0.109559 0.886820 0.882568 0.670263
O19   O     O_R   0.935830 0.932820 0.057160 -0.511549
C48   C     C_R   0.103897 0.915844 0.080474 0.750224
V4    V     V_3+5 0.829130 0.990680 0.998180 1.448156
O20   O     O_3   0.106100 0.049590 0.009310 -0.363680
I1    I     I_    0.017614 0.860483 0.484473 -0.458249
C49   C     C_3   0.830387 0.497649 0.166096 -0.366287
C50   C     C_3   0.864024 0.507506 0.087759 -0.320267
C51   C     C_3   0.924126 0.593375 0.091583 -0.749656
H12   H     H_    0.813762 0.636542 0.121392 0.236668
H13   H     H_    0.063917 0.608222 0.120808 0.227026
H14   H     H_    0.940482 0.599336 0.034239 0.213840
H15   H     H_    0.979800 0.466525 0.059022 0.194726
H16   H     H_    0.729574 0.492763 0.054646 0.195917
H17   H     H_    0.715840 0.539890 0.193978 0.177741
H18   H     H_    0.964342 0.515046 0.199150 0.176834
I2    I     I_    0.596106 0.975545 0.193847 -0.400433
C52   C     C_3   0.098268 0.991480 0.788986 -0.353296
C53   C     C_3   0.091811 0.070091 0.765925 -0.353675
C54   C     C_3   0.112640 0.143866 0.833134 -0.712467
H19   H     H_    0.002317 0.144000 0.875855 0.232732
H20   H     H_    0.253720 0.144584 0.859635 0.233145
H21   H     H_    0.098787 0.199281 0.815047 0.214073
H22   H     H_    0.210908 0.071332 0.726425 0.205369
H23   H     H_    0.951919 0.074451 0.738955 0.205046
H24   H     H_    0.975138 0.993449 0.826885 0.190448
H25   H     H_    0.236288 0.992526 0.818596 0.186303
C55   C     C_3   0.468600 0.148174 0.482915 -0.379658
C56   C     C_3   0.431760 0.063738 0.491537 -0.284047
C57   C     C_3   0.391180 0.067129 0.572748 -0.734604
H26   H     H_    0.515161 0.094250 0.608528 0.228883
H27   H     H_    0.260621 0.103113 0.592997 0.223027
H28   H     H_    0.367059 0.005378 0.577404 0.238431
H29   H     H_    0.305741 0.035753 0.457361 0.218988
H30   H     H_    0.560101 0.025692 0.472644 0.217572
H31   H     H_    0.592197 0.175521 0.518985 0.183233
H32   H     H_    0.340427 0.185723 0.503678 0.182547

loop_
_geom_bond_atom_site_label_1
_geom_bond_atom_site_label_2
_ccdc_geom_bond_type
C51   H12   S    
C31   H7    S    
C23   C24   T    
O12   V3    S    
C7    C8    A    
C12   C15   A    
C1    O6    A    
C53   C54   S    
C39   C44   A    
C35   C36   A    
C38   C39   A    
C17   C18   A    
C44   H11   S    
C55   H31   S    
C16   C17   A    
C19   C20   T    
C50   H15   S    
O5    C3    A    
C20   C21   S    
C55   C56   S    
V3    O20   S    
O11   C46   A    
C31   C36   A    
C54   H19   S    
C57   H26   S    
C6    C7    A    
C56   H29   S    
O12   C45   A    
O13   C48   A    
C56   H30   S    
C3    C24   S    
C32   C49   S    
O8    V2    S    
C16   H5    S    
C56   C57   S    
O1    V2    S    
O7    V1    S    
C2    C40   S    
C53   H22   S    
C8    H4    S    
C42   H10   S    
C41   C42   A    
O9    C4    A    
O13   V3    S    
C19   C48   S    
C15   C52   S    
C41   I2    S    
C32   C33   A    
C35   C37   A    
C33   C34   A    
C30   C46   S    
C12   C13   A    
C17   I1    S    
O14   C46   A    
C7    H3    S    
O17   V4    S    
C21   C22   T    
O4    C2    A    
C50   C51   S    
C13   C14   A    
C49   C50   S    
C4    C14   S    
C42   C43   A    
O2    C1    A    
C25   C26   T    
O14   V3    S    
C49   H18   S    
O18   V4    S    
C29   C30   T    
C11   C12   A    
C52   C53   S    
C37   C38   A    
C5    C6    A    
O15   C47   A    
C34   C35   A    
O17   V3    S    
C43   C55   S    
C53   H23   S    
O3    C4    A    
O19   V4    S    
C22   C23   S    
V4    O20   S    
O6    V2    S    
C54   H20   S    
O9    V2    S    
C5    H1    S    
C6    H2    S    
O2    V1    S    
C26   C27   S    
C52   H25   S    
C36   C40   A    
C13   C18   A    
C52   H24   S    
C28   C29   S    
O1    C2    A    
C33   H8    S    
O19   C48   A    
O5    V1    S    
O8    C3    A    
C57   H28   S    
O16   V4    S    
C1    C25   S    
C54   H21   S    
C5    C10   A    
C38   C41   A    
C18   H6    S    
C55   H32   S    
O11   V4    S    
C9    C11   A    
O7    V2    S    
O4    V1    S    
O3    V1    S    
V1    O10   S    
C45   O16   A    
O18   C47   A    
C39   C40   A    
C57   H27   S    
C43   C44   A    
C27   C28   T    
C49   H17   S    
C8    C9    A    
C31   C32   A    
C10   C14   A    
C51   H14   S    
C15   C16   A    
C51   H13   S    
O15   V3    S    
C50   H16   S    
C11   C47   S    
C9    C10   A    
C37   C45   S    
C34   H9    S    
V2    O10   S    
