data_mof_unit_36595.cif
_audit_creation_date              2012-12-10T16:42:55-0500
_audit_creation_method            fapswitch 2.2
_symmetry_space_group_name_H-M    P1
_symmetry_Int_Tables_number       1
_space_group_crystal_system       triclinic
_cell_length_a                    7.466454
_cell_length_b                    8.620381
_cell_length_c                    12.965011
_cell_angle_alpha                 88.151135
_cell_angle_beta                  79.073828
_cell_angle_gamma                 102.77487
_cell_volume                      796.665846805

loop_
_atom_site_label
_atom_site_type_symbol
_atom_type_description
_atom_site_fract_x
_atom_site_fract_y
_atom_site_fract_z
_atom_type_partial_charge
C1    C     C_R   0.450837 0.199562 0.517221 0.860198
C2    C     C_R   0.543768 0.797328 0.513095 0.821587
C3    C     C_R   0.466244 0.495336 0.701396 0.776971
C4    C     C_R   0.533686 0.504042 0.298587 0.822081
C5    C     C_R   0.553304 0.507732 0.184839 -0.053893
C6    C     C_R   0.446610 0.490357 0.815031 -0.041181
C7    C     C_R   0.249382 0.449094 0.989181 -0.222732
C8    C     C_R   0.750543 0.547829 0.010612 -0.224326
C9    C     C_R   0.267643 0.454175 0.880567 -0.200709
C10   C     C_R   0.732271 0.543073 0.119238 -0.195847
C11   C     C_R   0.607311 0.521129 0.858474 -0.276162
C12   C     C_R   0.392634 0.476524 0.141346 -0.271276
C13   C     C_R   0.590149 0.516616 0.966978 0.179422
C14   C     C_R   0.409791 0.480517 0.032827 0.179674
C15   C     C_2   0.417912 0.030746 0.551705 -0.042337
C16   C     C_2   0.563894 0.960589 0.544339 -0.087614
Cu1   Cu    Cu3+1 0.686350 0.517570 0.488220 0.931209
Cu2   Cu    Cu3+1 0.313650 0.482430 0.511780 0.921456
H1    H     H_    0.254168 0.448817 0.191681 0.154749
H2    H     H_    0.745790 0.549175 0.808123 0.153805
H3    H     H_    0.858159 0.568009 0.151700 0.156607
H4    H     H_    0.141791 0.429093 0.848058 0.154742
H5    H     H_    0.110521 0.420536 0.038875 0.139400
H6    H     H_    0.889399 0.576191 0.960896 0.138523
H7    H     H_    0.935180 0.385577 0.588646 0.229351
H8    H     H_    0.065498 0.618513 0.413366 0.225631
N1    N     N_2   0.033570 0.455950 0.529530 -0.231547
N2    N     N_2   0.966430 0.544050 0.470470 -0.223274
O1    O     O_R   0.621060 0.286250 0.492350 -0.586194
O2    O     O_R   0.378940 0.713750 0.507650 -0.599788
O3    O     O_R   0.306310 0.256580 0.512240 -0.580775
O4    O     O_R   0.693690 0.743420 0.487760 -0.586419
O5    O     O_R   0.631800 0.512400 0.642670 -0.599064
O6    O     O_R   0.368200 0.487600 0.357330 -0.585348
O7    O     O_R   0.317060 0.482730 0.662570 -0.604544
O8    O     O_R   0.682940 0.517270 0.337430 -0.582612
C17   C     C_3   0.221544 0.945593 0.610417 -0.369238
C18   C     C_3   0.160164 0.025054 0.710814 -0.867467
H9    H     H_    0.261564 0.027050 0.763602 0.253279
H10   H     H_    0.149404 0.148827 0.693288 0.269391
H11   H     H_    0.020638 0.955597 0.753420 0.244687
H12   H     H_    0.122639 0.943664 0.556574 0.202735
H13   H     H_    0.211949 0.821086 0.638941 0.240804
C19   C     C_3   0.740645 0.037288 0.583486 -0.371473
C20   C     C_3   0.694692 0.096431 0.693513 -0.831292
H14   H     H_    0.613950 0.189939 0.693549 0.254604
H15   H     H_    0.612048 0.995394 0.750578 0.250804
H16   H     H_    0.825690 0.148788 0.720414 0.229591
H17   H     H_    0.823650 0.947827 0.591467 0.215968
H18   H     H_    0.833182 0.133242 0.526321 0.227842

loop_
_geom_bond_atom_site_label_1
_geom_bond_atom_site_label_2
_ccdc_geom_bond_type
C19   H17   S    
C17   H13   S    
C4    O8    A    
C8    C13   A    
C1    C15   S    
Cu1   O8    S    
H7    N1    S    
Cu1   O1    S    
Cu2   O7    S    
C16   C19   S    
H8    N2    S    
C3    O7    A    
C2    O2    A    
C3    C6    S    
C6    C9    A    
C1    O1    A    
Cu1   Cu2   S    
C5    C10   A    
C20   H14   S    
C18   H10   S    
C11   C13   A    
C17   C18   S    
Cu1   O5    S    
Cu2   O6    S    
C7    H5    S    
C12   H1    S    
C8    C10   A    
C8    H6    S    
C12   C14   A    
C17   H12   S    
C20   H15   S    
C10   H3    S    
Cu2   O2    S    
C11   H2    S    
C4    O6    A    
C9    H4    S    
C5    C12   A    
C3    O5    A    
C15   C16   D    
C1    O3    A    
C2    C16   S    
C19   C20   S    
C18   H11   S    
C2    O4    A    
C20   H16   S    
C19   H18   S    
C6    C11   A    
C7    C9    A    
Cu1   O4    S    
C15   C17   S    
Cu2   O3    S    
C13   C14   A    
Cu1   N2    S    
C7    C14   A    
Cu2   N1    S    
C4    C5    S    
N1    N2    D    
C18   H9    S    
