data_mof_unit_30959.cif
_audit_creation_date              2013-03-05T15:41:04-0500
_audit_creation_method            fapswitch 2.2
_symmetry_space_group_name_H-M    P1
_symmetry_Int_Tables_number       1
_space_group_crystal_system       triclinic
_cell_length_a                    10.91742
_cell_length_b                    10.91351
_cell_length_c                    18.652983
_cell_angle_alpha                 90.139421
_cell_angle_beta                  89.709886
_cell_angle_gamma                 60.531229
_cell_volume                      1934.86587338

loop_
_atom_site_label
_atom_site_type_symbol
_atom_site_description
_atom_site_fract_x
_atom_site_fract_y
_atom_site_fract_z
_atom_type_partial_charge
O1    O     O_R   0.507110 0.256280 0.580300 -0.463808
O2    O     O_R   0.280830 0.527190 0.577940 -0.435880
C1    C     C_R   0.235460 0.645075 0.608769 0.547044
O3    O     O_R   0.261360 0.738990 0.584270 -0.530328
O4    O     O_R   0.532590 0.694780 0.574370 -0.510009
C2    C     C_R   0.654028 0.623067 0.600989 0.538153
O5    O     O_R   0.744470 0.503750 0.577000 -0.516686
O6    O     O_R   0.698520 0.277230 0.571620 -0.509593
C3    C     C_R   0.628333 0.227053 0.601848 0.549197
O7    O     O_R   0.498530 0.256920 0.419280 -0.511368
O8    O     O_R   0.272880 0.527780 0.428680 -0.496866
C4    C     C_R   0.215545 0.651778 0.404052 0.566906
O9    O     O_R   0.252780 0.739630 0.423250 -0.500136
O10   O     O_R   0.524640 0.695370 0.425100 -0.477402
C5    C     C_R   0.641798 0.621557 0.392767 0.541578
O11   O     O_R   0.735890 0.504390 0.415980 -0.515739
O12   O     O_R   0.690560 0.277820 0.422350 -0.503287
C6    C     C_R   0.621312 0.222721 0.397591 0.552105
Cr1   Cr    Cr6+3 0.393010 0.398050 0.501480 1.096980
Cr2   Cr    Cr6+3 0.398820 0.707980 0.501630 1.043106
Cr3   Cr    Cr6+3 0.708140 0.393940 0.496850 1.030254
O13   O     O_3   0.499990 0.499990 0.499980 -0.265056
C7    C     C_3   0.577806 0.815555 0.781640 -0.222917
H1    H     H_    0.601343 0.903150 0.789146 0.151636
H2    H     H_    0.477783 0.844541 0.810721 0.136642
C8    C     C_3   0.558665 0.799264 0.701391 -0.235001
H3    H     H_    0.450165 0.817434 0.692647 0.153993
H4    H     H_    0.570316 0.879967 0.670327 0.130002
H5    H     H_    0.866215 0.724040 0.779645 0.116975
H6    H     H_    0.832163 0.709433 0.659929 0.117651
C9    C     C_3   0.836995 0.640941 0.770018 -0.224087
C10   C     C_3   0.664634 0.556952 0.801098 -0.253112
C11   C     C_3   0.699965 0.675675 0.812108 0.046340
H7    H     H_    0.749434 0.456111 0.823103 0.142410
H8    H     H_    0.565112 0.582460 0.829760 0.117579
C12   C     C_3   0.669627 0.649365 0.676243 0.042881
C13   C     C_3   0.817808 0.628944 0.689606 -0.240744
C14   C     C_3   0.648711 0.539870 0.720755 -0.216072
H9    H     H_    0.542817 0.552059 0.710529 0.124128
H10   H     H_    0.727987 0.431266 0.704473 0.148731
H11   H     H_    0.925541 0.539117 0.788530 0.153054
H12   H     H_    0.899863 0.523564 0.670363 0.193884
C15   C     C_2   0.676682 0.153681 0.670144 -0.111227
C16   C     C_2   0.690280 0.166381 0.827439 -0.122814
C17   C     C_2   0.802030 0.120262 0.783210 -0.180795
C18   C     C_2   0.783334 0.152791 0.706235 -0.186395
H13   H     H_    0.908158 0.054354 0.802898 0.159306
H14   H     H_    0.854735 0.181448 0.680152 0.160071
H15   H     H_    0.584738 0.233229 0.807187 0.151393
H16   H     H_    0.611395 0.116765 0.695912 0.149377
C19   C     C_2   0.178083 0.660518 0.681354 -0.124560
C20   C     C_2   0.193374 0.662357 0.838967 -0.159530
C21   C     C_2   0.183717 0.563504 0.800585 -0.153040
C22   C     C_2   0.204805 0.547708 0.722732 0.164578
H17   H     H_    0.151183 0.494694 0.826144 0.174605
H18   H     H_    0.233123 0.726792 0.815149 0.096358
H19   H     H_    0.134272 0.764543 0.705363 0.068144
C23   C     C_2   0.651220 0.646444 0.317246 -0.057862
C24   C     C_2   0.627323 0.656373 0.156147 0.225609
C25   C     C_2   0.713346 0.545393 0.196504 -0.162476
C26   C     C_2   0.690981 0.536120 0.272525 -0.107196
H20   H     H_    0.816511 0.466781 0.177039 0.130101
H21   H     H_    0.723693 0.431398 0.293093 0.148501
H22   H     H_    0.618081 0.751936 0.297916 0.162628
C27   C     C_2   0.675709 0.137198 0.334193 -0.163926
C28   C     C_2   0.653020 0.142460 0.179995 -0.063215
C29   C     C_2   0.617855 0.065939 0.223564 0.344463
C30   C     C_2   0.596758 0.095330 0.299447 -0.116365
H23   H     H_    0.506195 0.096372 0.324546 0.174001
H24   H     H_    0.674860 0.223293 0.199970 0.034241
H25   H     H_    0.770910 0.127543 0.309939 0.084898
C31   C     C_2   0.115731 0.687121 0.346152 -0.094547
C32   C     C_2   0.045264 0.724032 0.195074 -0.062640
C33   C     C_2   0.008079 0.832584 0.240195 -0.127579
C34   C     C_2   0.061511 0.811986 0.313509 -0.127413
H26   H     H_    0.955358 0.939509 0.219797 0.135345
H27   H     H_    0.072760 0.897234 0.336809 0.163069
H28   H     H_    0.101056 0.615377 0.212354 0.114749
H29   H     H_    0.097109 0.604120 0.326542 0.101587
O14   O     O_R   0.089190 0.825870 0.932320 -0.504540
O15   O     O_R   0.819070 0.053960 0.931440 -0.498965
C35   C     C_R   0.703582 0.102240 0.897478 0.541312
O16   O     O_R   0.607070 0.076440 0.916460 -0.511830
O17   O     O_R   0.647110 0.806550 0.917690 -0.513715
C36   C     C_R   0.724203 0.688735 0.888159 0.537481
O18   O     O_R   0.837080 0.593860 0.915300 -0.526957
O19   O     O_R   0.064770 0.636080 0.932550 -0.497037
C37   C     C_R   0.119859 0.706005 0.907628 0.562437
O20   O     O_R   0.068250 0.829200 0.092940 -0.464692
O21   O     O_R   0.799650 0.057040 0.080330 -0.535782
C38   C     C_R   0.675957 0.104538 0.105411 0.568976
O22   O     O_R   0.586130 0.079760 0.077080 -0.430800
O23   O     O_R   0.627700 0.809630 0.066580 -0.410093
C39   C     C_R   0.691197 0.687480 0.094271 0.562213
O24   O     O_R   0.816140 0.597180 0.075920 -0.556205
O25   O     O_R   0.045360 0.639170 0.081440 -0.491970
C40   C     C_R   0.022755 0.748815 0.119118 0.578601
Cr4   Cr    Cr6+3 0.937950 0.938450 0.008940 1.048059
Cr5   Cr    Cr6+3 0.626180 0.937030 0.994750 1.095120
Cr6   Cr    Cr6+3 0.937790 0.625760 0.001410 1.030964
O26   O     O_3   0.833980 0.833750 0.001700 -0.291206
N1    N     N_R   0.244570 0.411064 0.693119 0.103831
O27   O     O_R   0.333817 0.298999 0.727455 -0.378805
O28   O     O_R   0.167235 0.398423 0.643980 -0.349502
N2    N     N_R   0.480797 0.746867 0.175436 0.093762
O29   O     O_R   0.414933 0.698850 0.214709 -0.337377
O30   O     O_R   0.407413 0.869705 0.145966 -0.253339
F1    F     F_    0.593401 0.963427 0.197726 -0.604519

loop_
_geom_bond_atom_site_label_1
_geom_bond_atom_site_label_2
_geom_bond_distance
_ccdc_geom_bond_type
C16   H15   1.086867 S    
O19   C37   1.269119 A    
O11   Cr3   2.045427 S    
C32   C33   1.339830 D    
O15   C35   1.274641 A    
O4    Cr2   1.951552 S    
C21   C22   1.465584 S    
C16   C17   1.343890 D    
C6    C27   1.436816 S    
C32   C40   1.442531 S    
N2    O30   1.300971 A    
O8    Cr1   1.941395 S    
C8    H3    1.113575 S    
O23   C39   1.273659 A    
C33   H26   1.086886 S    
C12   C13   1.542259 S    
C31   H29   1.084443 S    
C16   C35   1.457464 S    
C36   O18   1.265089 A    
O4    C2    1.266660 A    
C29   F1    1.359316 S    
O15   Cr4   1.944604 S    
C5    O11   1.261985 A    
C25   H20   1.086291 S    
C7    C8    1.534394 S    
C13   H12   1.111339 S    
C26   H21   1.087595 S    
C11   C36   1.463775 S    
O6    C3    1.270799 A    
C7    C11   1.562319 S    
C7    H1    1.113964 S    
C9    C11   1.557832 S    
C19   H19   1.085952 S    
C24   C39   1.469801 S    
C10   C14   1.531021 S    
O18   Cr6   2.074071 S    
O23   Cr5   1.927489 S    
C23   C26   1.345792 D    
C17   H13   1.086419 S    
C28   C29   1.349394 D    
C4    C31   1.450184 S    
C24   C25   1.344639 D    
O16   Cr5   2.047565 S    
Cr3   O13   1.979291 S    
N1    O27   1.301153 A    
C31   C34   1.338720 D    
O6    Cr3   1.928030 S    
C21   H17   1.086209 S    
C23   H22   1.086219 S    
C14   H9    1.114304 S    
C18   H14   1.085789 S    
O1    Cr1   2.059238 S    
C3    C15   1.462408 S    
C33   C34   1.463390 S    
C29   C30   1.442637 S    
C10   H8    1.113404 S    
O10   Cr2   1.933076 S    
C20   C37   1.456646 S    
Cr1   O13   1.969988 S    
O1    C3    1.267064 A    
O17   C36   1.261797 A    
C38   O22   1.256819 A    
C1    C19   1.462989 S    
O24   Cr6   2.045429 S    
C30   H23   1.086784 S    
C27   H25   1.087777 S    
O12   Cr3   1.951254 S    
C9    C13   1.529709 S    
H6    C13   1.113336 S    
O20   C40   1.297348 A    
C25   C26   1.449879 S    
C10   H7    1.113702 S    
O7    Cr1   2.067652 S    
C32   H28   1.083622 S    
C27   C30   1.327965 D    
O25   C40   1.300117 A    
O12   C6    1.263292 A    
C24   N2    1.449769 S    
N1    O28   1.301471 A    
C34   H27   1.086506 S    
C2    O5    1.264298 A    
C8    C12   1.550625 S    
Cr5   O26   1.980345 S    
Cr2   O13   1.976334 S    
C5    C23   1.447989 S    
C1    O3    1.274913 A    
C20   C21   1.340325 D    
O19   Cr6   1.928885 S    
C9    H11   1.112175 S    
O9    Cr2   2.069559 S    
O14   Cr4   2.061554 S    
O2    Cr1   1.947965 S    
O17   Cr5   1.952602 S    
C22   N1    1.440161 S    
O8    C4    1.267541 A    
C15   H16   1.086913 S    
C28   C38   1.435683 S    
Cr4   O26   1.972108 S    
N2    O29   1.302149 A    
C8    H4    1.113382 S    
O20   Cr4   2.064727 S    
C19   C22   1.360171 D    
C10   C11   1.536552 S    
C12   C14   1.562326 S    
O2    C1    1.264017 A    
H5    C9    1.113964 S    
O5    Cr3   2.072100 S    
C14   H10   1.110133 S    
O21   C38   1.270767 A    
C28   H24   1.086362 S    
O7    C6    1.265444 A    
O25   Cr6   1.953162 S    
Cr6   O26   1.976277 S    
C2    C12   1.459573 S    
C7    H2    1.113583 S    
C39   O24   1.272802 A    
C15   C18   1.343828 D    
O3    Cr2   2.053573 S    
C17   C18   1.470848 S    
C4    O9    1.263330 A    
O14   C37   1.264925 A    
C35   O16   1.266287 A    
O10   C5    1.274638 A    
O21   Cr4   1.943348 S    
C20   H18   1.086295 S    
O22   Cr5   2.070600 S    
