data_mof_unit_56618.cif
_audit_creation_date              2012-12-10T19:43:11-0500
_audit_creation_method            fapswitch 2.2
_symmetry_space_group_name_H-M    P1
_symmetry_Int_Tables_number       1
_space_group_crystal_system       triclinic
_cell_length_a                    18.573643
_cell_length_b                    18.575654
_cell_length_c                    18.457069
_cell_angle_alpha                 119.681889
_cell_angle_beta                  90.03435
_cell_angle_gamma                 59.889315
_cell_volume                      4518.21799357

loop_
_atom_site_label
_atom_site_type_symbol
_atom_type_description
_atom_site_fract_x
_atom_site_fract_y
_atom_site_fract_z
_atom_type_partial_charge
C1    C     C_R   0.859786 0.780424 0.640708 0.893245
C2    C     C_R   0.255910 0.669003 0.828301 0.240711
C3    C     C_R   0.259798 0.578622 0.790076 -0.080204
C4    C     C_R   0.238456 0.545339 0.712336 -0.076268
C5    C     C_R   0.282642 0.520587 0.825593 -0.026009
C6    C     C_R   0.247211 0.463283 0.808747 -0.097413
C7    C     C_R   0.199025 0.456103 0.748872 -0.078378
C8    C     C_R   0.195453 0.496770 0.698614 -0.038667
C9    C     C_R   0.249677 0.421527 0.856748 0.192183
C10   C     C_R   0.235180 0.345208 0.823565 0.250743
C11   C     C_R   0.184718 0.341007 0.766573 0.255967
C12   C     C_R   0.139203 0.220546 0.359565 0.860746
C13   C     C_R   0.153023 0.412622 0.745472 0.217923
C14   C     C_R   0.250348 0.055159 0.332086 -0.102103
C15   C     C_R   0.197080 0.109552 0.300868 -0.120708
C16   C     C_R   0.204133 0.052241 0.210618 0.297775
C17   C     C_R   0.260183 0.945139 0.159197 -0.180161
C18   C     C_R   0.308926 0.891804 0.195330 -0.067510
C19   C     C_R   0.302155 0.951850 0.283824 -0.050946
C20   C     C_3   0.323202 0.956315 0.364728 0.055863
C21   C     C_3   0.261336 0.073113 0.417417 0.543566
C22   C     C_R   0.227550 0.553368 0.334980 -0.111978
C23   C     C_R   0.860334 0.501995 0.641854 0.850244
C24   C     C_R   0.202444 0.487365 0.298389 -0.129443
C25   C     C_R   0.238358 0.414518 0.203996 0.337979
C26   C     C_R   0.290509 0.419060 0.153037 -0.183288
C27   C     C_R   0.309048 0.492356 0.192765 -0.061904
C28   C     C_R   0.280384 0.554383 0.284098 -0.095967
C29   C     C_3   0.240153 0.664134 0.348842 0.439520
C30   C     C_3   0.175361 0.665367 0.403829 0.473145
C31   C     C_R   0.833377 0.954420 0.730148 -0.013369
C32   C     C_R   0.801824 0.893578 0.695112 -0.226836
C33   C     C_R   0.708549 0.949252 0.712928 0.286449
C34   C     C_R   0.141215 0.497333 0.358824 0.884180
C35   C     C_R   0.653707 0.054169 0.781740 0.300847
C36   C     C_R   0.690694 0.110800 0.806359 -0.249123
C37   C     C_R   0.780432 0.056672 0.769980 -0.142554
C38   C     C_3   0.845650 0.077217 0.803074 0.186806
C39   C     C_3   0.901872 0.964433 0.770705 0.138772
C40   C     C_R   0.712265 0.554909 0.338283 -0.005268
C41   C     C_R   0.804603 0.496498 0.304319 -0.044017
C42   C     C_R   0.843137 0.439931 0.211137 -0.130916
C43   C     C_R   0.790179 0.441527 0.156289 -0.151881
C44   C     C_R   0.697216 0.505093 0.193670 -0.020482
C45   C     C_R   0.860053 0.497788 0.360369 0.818143
C46   C     C_R   0.662811 0.566014 0.285021 -0.004850
C47   C     C_3   0.576183 0.641936 0.356502 0.148454
C48   C     C_3   0.628319 0.613517 0.414648 0.452912
C49   C     C_R   0.714975 0.583564 0.746374 0.014807
C50   C     C_R   0.806162 0.509271 0.705737 -0.071557
C51   C     C_R   0.845311 0.442464 0.731951 -0.166561
C52   C     C_R   0.793183 0.443816 0.788669 0.300194
C53   C     C_R   0.698720 0.506351 0.813388 -0.147651
C54   C     C_R   0.663571 0.576455 0.791322 -0.046845
C55   C     C_3   0.580954 0.646140 0.783607 0.318404
C56   C     C_R   0.140651 0.498560 0.639744 0.869103
C57   C     C_3   0.638804 0.657690 0.736274 -0.381496
C58   C     C_R   0.360862 0.498889 0.139360 0.895495
C59   C     C_R   0.640409 0.501198 0.861743 0.853697
C60   C     C_R   0.361877 0.779950 0.140117 0.867633
C61   C     C_R   0.638736 0.221007 0.862414 0.884989
C62   C     C_R   0.640072 0.502089 0.139423 0.821562
C63   C     C_R   0.353625 0.506637 0.866717 0.858549
C64   C     C_R   0.256966 0.567317 0.654445 0.312896
C65   C     C_R   0.265441 0.647180 0.687109 -0.284979
C66   C     C_R   0.257115 0.704144 0.775781 0.307144
H1    H     H_    0.263164 0.903884 0.091261 0.232951
H2    H     H_    0.393814 0.925246 0.358690 0.194694
H3    H     H_    0.314840 0.366757 0.081842 0.231551
H4    H     H_    0.822763 0.131549 0.876507 0.098749
H5    H     H_    0.901964 0.956116 0.827102 0.064759
H6    H     H_    0.914137 0.392959 0.180139 0.212551
H7    H     H_    0.822182 0.393352 0.085136 0.200906
H8    H     H_    0.274484 0.667361 0.643937 0.233521
H9    H     H_    0.527985 0.621847 0.342578 0.167122
H10   H     H_    0.916485 0.389061 0.709006 0.251169
H11   H     H_    0.531038 0.716885 0.848379 0.124420
H12   H     H_    0.643297 0.628851 0.666174 0.282786
H13   H     H_    0.625516 0.734453 0.776804 0.203288
O1    O     O_3   0.000000 0.500000 0.500000 -0.564052
O2    O     O_R   0.944910 0.439280 0.615800 -0.609058
O3    O     O_R   0.115820 0.560710 0.444920 -0.556573
O4    O     O_R   0.823500 0.731590 0.615800 -0.609227
O5    O     O_R   0.115770 0.268420 0.323490 -0.587265
O6    O     O_3   0.500040 0.499910 0.999960 -0.553482
O7    O     O_R   0.384230 0.439200 0.055040 -0.610973
O8    O     O_R   0.555130 0.560630 0.884160 -0.612198
O9    O     O_R   0.384270 0.731490 0.176470 -0.608418
O10   O     O_R   0.676550 0.268320 0.884150 -0.622551
O11   O     O_R   0.555150 0.560600 0.176460 -0.643880
O12   O     O_R   0.944950 0.731580 0.615800 -0.555906
O13   O     O_R   0.384220 0.439220 0.884170 -0.610589
O14   O     O_R   0.676580 0.439170 0.055020 -0.644872
O15   O     O_R   0.384230 0.560650 0.884170 -0.589702
O16   O     O_R   0.384260 0.731500 0.055040 -0.629657
O17   O     O_R   0.555100 0.268330 0.884160 -0.564751
O18   O     O_R   0.384250 0.560620 0.176470 -0.586197
O19   O     O_R   0.676570 0.439190 0.884150 -0.581972
O20   O     O_R   0.115780 0.268410 0.444920 -0.593249
O21   O     O_R   0.823470 0.560720 0.615800 -0.625975
O22   O     O_R   0.115800 0.439290 0.323490 -0.582986
O23   O     O_R   0.823460 0.560740 0.444930 -0.639697
O24   O     O_R   0.115830 0.560690 0.615790 -0.607444
O25   O     O_R   0.944900 0.439310 0.323490 -0.617895
O26   O     O_R   0.115810 0.439260 0.615790 -0.575134
Zn1   Zn    Zn3+2 0.043370 0.413240 0.543370 1.098535
Zn2   Zn    Zn3+2 0.869870 0.586760 0.543380 1.048489
Zn3   Zn    Zn3+2 0.043360 0.413260 0.369880 1.106529
Zn4   Zn    Zn3+2 0.043390 0.586740 0.543370 1.119341
Zn5   Zn    Zn3+2 0.456670 0.586670 0.956580 1.077603
Zn6   Zn    Zn3+2 0.456680 0.586650 0.130080 1.069137
Zn7   Zn    Zn3+2 0.630180 0.413150 0.956570 1.052761
Zn8   Zn    Zn3+2 0.456650 0.413170 0.956580 1.100114
S1    S     S_3+6 0.160227 0.249231 0.719680 0.174752
O27   O     O_2   0.078117 0.288944 0.695066 -0.221239
O28   O     O_2   0.238414 0.153855 0.637224 -0.201971
O29   O     O_3   0.143648 0.216680 0.786359 -0.440555
H14   H     H_    0.158521 0.147021 0.745132 0.419835
S2    S     S_3+6 0.281413 0.907469 0.400654 0.193142
O30   O     O_2   0.264423 0.955492 0.498719 -0.116166
O31   O     O_2   0.196487 0.933211 0.380830 -0.178523
O32   O     O_3   0.353240 0.781909 0.346640 -0.416561
H15   H     H_    0.406599 0.764058 0.308044 0.378279
Br1   Br    Br    0.146385 0.144163 0.501778 -0.179066
S3    S     S_3+6 0.317920 0.132814 0.457583 0.067738
O33   O     O_2   0.376473 0.109971 0.381436 -0.282683
O34   O     O_2   0.251805 0.245723 0.520244 -0.286766
O35   O     O_3   0.380643 0.088296 0.511120 -0.469742
H16   H     H_    0.377656 0.147048 0.560725 0.393536
S4    S     S_3+6 0.218334 0.319290 0.144469 0.114546
O36   O     O_2   0.122581 0.369910 0.149926 -0.194530
O37   O     O_2   0.275213 0.245935 0.048339 -0.241256
O38   O     O_3   0.241259 0.252359 0.188408 -0.466976
H17   H     H_    0.297095 0.240696 0.201413 0.335121
Br2   Br    Br    0.332289 0.671639 0.396851 -0.244490
S5    S     S_3+6 0.189242 0.741872 0.307768 0.144392
O39   O     O_2   0.126145 0.849709 0.387754 -0.159331
O40   O     O_2   0.254357 0.738608 0.255639 -0.206530
O41   O     O_3   0.133439 0.707210 0.241711 -0.492314
H18   H     H_    0.079538 0.772711 0.257188 0.405109
Br3   Br    Br    0.190368 0.690272 0.516164 -0.220128
Br4   Br    Br    0.295921 0.474055 0.528015 -0.394114
S6    S     S_3+6 0.058375 0.729335 0.410099 0.113866
O42   O     O_2   0.006904 0.725362 0.469515 -0.267003
O43   O     O_2   0.013014 0.839877 0.446674 -0.160006
O44   O     O_3   0.049496 0.668744 0.309622 -0.533068
H19   H     H_    0.985268 0.699078 0.320908 0.388544
S7    S     S_3+6 0.660658 0.893131 0.643586 0.147869
O45   O     O_2   0.651547 0.834708 0.673905 -0.232264
O46   O     O_2   0.571762 0.970073 0.649388 -0.144362
O47   O     O_3   0.727685 0.815624 0.537480 -0.519192
H20   H     H_    0.732902 0.750145 0.510533 0.400885
S8    S     S_3+6 0.544685 0.108251 0.840901 0.139603
O48   O     O_2   0.483435 0.163059 0.805470 -0.182235
O49   O     O_2   0.533983 0.028122 0.828227 -0.191739
O50   O     O_3   0.520111 0.189608 0.949928 -0.557444
H21   H     H_    0.461457 0.210062 0.978230 0.394245
S9    S     S_3+6 0.875326 0.115642 0.740455 0.173177
O51   O     O_2   0.800087 0.221941 0.772741 -0.241326
O52   O     O_2   0.956185 0.115465 0.754237 -0.130750
O53   O     O_3   0.894283 0.040655 0.630156 -0.397566
H22   H     H_    0.839124 0.043281 0.625672 0.357644
S10   S     S_3+6 0.010529 0.885583 0.696986 0.161473
O54   O     O_2   0.005899 0.870206 0.609100 -0.112375
O55   O     O_2   0.059263 0.933850 0.732862 -0.164739
O56   O     O_3   0.063177 0.772975 0.685139 -0.489749
H23   H     H_    0.070395 0.788614 0.743614 0.338801
S11   S     S_3+6 0.542559 0.764081 0.378767 0.064522
O57   O     O_2   0.538376 0.757649 0.292996 -0.374308
O58   O     O_2   0.453380 0.847274 0.451923 -0.178332
O59   O     O_3   0.616427 0.792860 0.412051 -0.487654
H24   H     H_    0.592127 0.858328 0.419446 0.418235
Br5   Br    Br    0.596108 0.730091 0.534485 -0.166946
S12   S     S_3+6 0.619078 0.525940 0.427292 0.066374
O60   O     O_2   0.672413 0.501803 0.484338 -0.251021
O61   O     O_2   0.523191 0.576968 0.474113 -0.235268
O62   O     O_3   0.657477 0.415558 0.325366 -0.563361
H25   H     H_    0.654018 0.371127 0.340441 0.398720
Br6   Br    Br    0.858351 0.364913 0.833368 -0.250748
S13   S     S_3+6 0.539148 0.581359 0.709497 0.096192
O63   O     O_2   0.613412 0.484271 0.626532 -0.235068
O64   O     O_2   0.492886 0.557659 0.751993 -0.264354
O65   O     O_3   0.466533 0.658236 0.683527 -0.487574
H26   H     H_    0.453771 0.614356 0.633446 0.390334
S14   S     S_3+6 0.248217 0.818237 0.818539 0.149994
O66   O     O_2   0.160220 0.906043 0.890024 -0.186848
O67   O     O_2   0.320157 0.814611 0.857648 -0.207190
O68   O     O_3   0.255065 0.836821 0.738700 -0.423271
H27   H     H_    0.315085 0.778726 0.694185 0.378497
Br7   Br    Br    0.223388 0.757978 0.954863 -0.365053
Br8   Br    Br    0.220121 0.505574 0.983785 -0.313026
S15   S     S_3+6 0.269358 0.268159 0.864236 0.182201
O69   O     O_2   0.320689 0.157535 0.787777 -0.169485
O70   O     O_2   0.326646 0.284502 0.919175 -0.224186
O71   O     O_3   0.179993 0.300761 0.929733 -0.427967
H28   H     H_    0.197807 0.238055 0.924943 0.425449
Br9   Br    Br    0.025898 0.500908 0.781936 -0.410066
Br10  Br    Br    0.136536 0.111192 0.152679 -0.283177

loop_
_geom_bond_atom_site_label_1
_geom_bond_atom_site_label_2
_ccdc_geom_bond_type
C43   H7    S    
S6    O44   S    
O59   H24   S    
C38   H4    S    
C41   C42   A    
C57   H13   S    
S10   O54   D    
S7    O47   S    
C4    C8    A    
O6    Zn7   S    
O35   H16   S    
C8    C56   S    
C6    C9    A    
O53   H22   S    
C53   C59   S    
C61   O17   A    
C7    C8    A    
O8    Zn5   S    
C53   C54   A    
C52   C53   A    
C40   C46   A    
O1    Zn2   S    
C5    C63   S    
C26   C27   A    
C29   C30   S    
C30   Br3   S    
C13   Br9   S    
O7    Zn8   S    
C14   C21   S    
C28   C29   S    
C45   O25   A    
S7    O46   D    
O44   H19   S    
C38   C39   S    
C55   H11   S    
S14   O67   D    
S6    O42   D    
O1    Zn1   S    
C49   C57   S    
C12   O5    A    
S6    O43   D    
C18   C19   A    
C55   S13   S    
C11   S1    S    
S12   O60   D    
C12   O20   A    
S9    O53   S    
O5    Zn3   S    
C46   C47   S    
O9    Zn6   S    
S11   O59   S    
C35   C36   A    
C61   O10   A    
C16   C17   A    
C24   C34   S    
O1    Zn4   S    
S3    O35   S    
O47   H20   S    
S8    O49   D    
C23   O2    A    
C9    C10   A    
S13   O65   S    
O22   Zn3   S    
S11   O58   D    
C23   O21   A    
C1    O12   A    
C22   C28   A    
S9    O52   D    
C58   O18   A    
S3    O33   D    
O11   Zn6   S    
S5    O41   S    
C25   S4    S    
C58   O7    A    
C44   C46   A    
S1    O27   D    
C48   S12   S    
S2    O31   D    
C60   O9    A    
C26   H3    S    
C17   H1    S    
C34   O22   A    
O19   Zn7   S    
C15   C16   A    
C51   C52   A    
S15   O71   S    
S11   O57   D    
S10   O56   S    
C24   C25   A    
C38   S9    S    
C59   O8    A    
S5    O40   D    
O6    Zn5   S    
C10   C11   A    
C14   C19   A    
C23   C50   S    
O6    Zn6   S    
C25   C26   A    
C27   C58   S    
C1    C32   S    
C10   S15   S    
C30   S6    S    
C31   C37   A    
O68   H27   S    
O50   H21   S    
S9    O51   D    
C63   O13   A    
S4    O37   D    
O65   H26   S    
O3    Zn4   S    
C37   C38   S    
C33   S7    S    
O38   H17   S    
C35   S8    S    
C47   C48   S    
O10   Zn7   S    
C12   C15   S    
S2    O30   D    
C42   H6    S    
C50   C51   A    
C3    C4    A    
O23   Zn2   S    
C51   H10   S    
S8    O50   S    
S12   O62   S    
C18   C60   S    
C40   C41   A    
C29   Br2   S    
O62   H25   S    
C55   C57   S    
C43   C44   A    
O56   H23   S    
C22   C24   A    
O17   Zn8   S    
C66   S14   S    
S4    O38   S    
C42   C43   A    
C39   S10   S    
C36   C61   S    
C3    C5    A    
O25   Zn3   S    
C16   Br10  S    
S13   O63   D    
S3    O34   D    
C48   Br5   S    
O13   Zn8   S    
S2    O32   S    
C40   C48   S    
O20   Zn1   S    
O1    Zn3   S    
C54   C55   S    
C36   C37   A    
O21   Zn2   S    
C41   C45   S    
C22   C30   S    
S10   O55   D    
C57   H12   S    
C20   H2    S    
C31   C32   A    
C2    Br7   S    
C56   O24   A    
S5    O39   D    
S14   O68   S    
O16   Zn5   S    
S1    O28   D    
O41   H18   S    
C2    C66   A    
C6    C7    A    
C1    O4    A    
O26   Zn1   S    
C4    C64   A    
C9    Br8   S    
C17   C18   A    
O24   Zn4   S    
C44   C62   S    
S15   O69   D    
O12   Zn4   S    
C19   C20   S    
O6    Zn8   S    
S4    O36   D    
S8    O48   D    
C52   Br6   S    
C47   H9    S    
O15   Zn5   S    
O29   H14   S    
C32   C33   A    
S13   O64   D    
C47   S11   S    
C11   C13   A    
S14   O66   D    
C5    C6    A    
C64   Br4   S    
C21   Br1   S    
O18   Zn6   S    
C62   O11   A    
C64   C65   A    
C33   C35   A    
O4    Zn2   S    
C63   O15   A    
C2    C3    A    
S7    O45   D    
C65   C66   A    
S12   O61   D    
C56   O26   A    
S1    O29   S    
C45   O23   A    
C65   H8    S    
O14   Zn7   S    
O71   H28   S    
C60   O16   A    
C7    C13   A    
C29   S5    S    
C20   C21   S    
C49   C50   A    
C62   O14   A    
C27   C28   A    
C31   C39   S    
C59   O19   A    
C39   H5    S    
C14   C15   A    
C34   O3    A    
O32   H15   S    
O2    Zn1   S    
C21   S3    S    
C20   S2    S    
C49   C54   A    
S15   O70   D    
