data_mof_unit_43386.cif
_audit_creation_date              2012-12-11T14:21:22-0500
_audit_creation_method            fapswitch 2.2
_symmetry_space_group_name_H-M    P1
_symmetry_Int_Tables_number       1
_space_group_crystal_system       triclinic
_cell_length_a                    21.956128
_cell_length_b                    7.223788
_cell_length_c                    14.855609
_cell_angle_alpha                 89.997942
_cell_angle_beta                  106.664993
_cell_angle_gamma                 89.998344
_cell_volume                      2257.22971071

loop_
_atom_site_label
_atom_site_type_symbol
_atom_type_description
_atom_site_fract_x
_atom_site_fract_y
_atom_site_fract_z
_atom_type_partial_charge
O1    O     O_R   0.584770 0.505770 0.002090 -0.523341
O2    O     O_R   0.415230 0.005770 0.997910 -0.523340
O3    O     O_R   0.467060 0.173340 0.861950 -0.538613
O4    O     O_R   0.532940 0.673340 0.138050 -0.538624
C1    C     C_R   0.454909 0.344135 0.826000 0.681618
C2    C     C_R   0.545095 0.844123 0.174001 0.681604
O5    O     O_R   0.587510 0.175890 0.993210 -0.545077
O6    O     O_R   0.412490 0.675890 0.006790 -0.545082
O7    O     O_R   0.536540 0.008150 0.130100 -0.535448
O8    O     O_R   0.463460 0.508150 0.869900 -0.535443
C3    C     C_R   0.612140 0.345175 0.994224 0.695587
C4    C     C_R   0.387860 0.845179 0.005776 0.695598
O9    O     O_3   0.483140 0.340040 0.044760 -0.370020
O10   O     O_3   0.516860 0.840040 0.955240 -0.370013
V1    V     V_3+5 0.503130 0.064190 0.991700 1.481694
V2    V     V_3+5 0.496870 0.564190 0.008300 1.481672
C5    C     C_2   0.214619 0.734128 0.003168 -0.092434
C6    C     C_2   0.785389 0.234129 0.996869 -0.092414
C7    C     C_2   0.177927 0.886866 0.987083 -0.274333
C8    C     C_2   0.822071 0.386881 0.012913 -0.274355
H1    H     H_    0.195123 0.603922 0.018821 0.150749
H2    H     H_    0.804895 0.103908 0.981256 0.150747
H3    H     H_    0.195938 0.013349 0.964679 0.165365
H4    H     H_    0.804051 0.513384 0.035282 0.165373
C9    C     C_2   0.279466 0.729225 0.990720 -0.162644
C10   C     C_2   0.720542 0.229240 0.009318 -0.162624
C11   C     C_2   0.324409 0.860950 0.021396 0.025351
C12   C     C_2   0.675589 0.360934 0.978601 0.025391
H5    H     H_    0.291116 0.606968 0.956403 0.129124
H6    H     H_    0.708902 0.107019 0.043674 0.129061
C13   C     C_R   0.927938 0.886816 0.723322 -0.069352
C14   C     C_R   0.072056 0.386798 0.276676 -0.069352
C15   C     C_R   0.574090 0.850819 0.275544 -0.028081
C16   C     C_R   0.425909 0.350907 0.724462 -0.028057
C17   C     C_R   0.939620 0.892706 0.566194 0.231806
C18   C     C_R   0.060374 0.392675 0.433801 0.231810
C19   C     C_R   0.966497 0.895443 0.663477 -0.158113
C20   C     C_R   0.033496 0.395419 0.336518 -0.158119
C21   C     C_R   0.862087 0.875461 0.686503 -0.198220
C22   C     C_R   0.137908 0.375499 0.313494 -0.198208
C23   C     C_R   0.832689 0.873613 0.588364 0.057660
C24   C     C_R   0.167309 0.373753 0.411633 0.057658
C25   C     C_R   0.872666 0.883153 0.527967 0.089930
C26   C     C_R   0.127328 0.383152 0.472029 0.089923
C27   C     C_R   0.765016 0.863964 0.548696 0.067858
C28   C     C_R   0.234987 0.364321 0.451303 0.067867
C29   C     C_R   0.738107 0.867390 0.448882 0.060858
C30   C     C_R   0.261890 0.367491 0.551122 0.060847
C31   C     C_R   0.779710 0.876751 0.392106 -0.191574
C32   C     C_R   0.220281 0.376663 0.607895 -0.191564
C33   C     C_R   0.845127 0.883768 0.430767 -0.136012
C34   C     C_R   0.154865 0.383669 0.569229 -0.136012
C35   C     C_R   0.723325 0.850239 0.605526 -0.165714
C36   C     C_R   0.276692 0.351185 0.394470 -0.165660
C37   C     C_R   0.657960 0.841264 0.566683 -0.185940
C38   C     C_R   0.342061 0.342470 0.433313 -0.185930
C39   C     C_R   0.631045 0.845594 0.469796 0.127804
C40   C     C_R   0.368968 0.346426 0.530205 0.127820
C41   C     C_R   0.670456 0.859703 0.409189 0.085650
C42   C     C_R   0.329543 0.359888 0.590819 0.085647
C43   C     C_R   0.564657 0.834247 0.433052 -0.160327
C44   C     C_R   0.435363 0.335411 0.566944 -0.160313
C45   C     C_R   0.536405 0.835414 0.336400 -0.161843
C46   C     C_R   0.463612 0.336270 0.663597 -0.161913
C47   C     C_R   0.640220 0.864129 0.311159 -0.208172
C48   C     C_R   0.359769 0.363821 0.688858 -0.208142
H7    H     H_    0.873836 0.890638 0.382710 0.165688
H8    H     H_    0.126152 0.390435 0.617284 0.165691
H9    H     H_    0.666282 0.875467 0.260069 0.095826
H10   H     H_    0.333697 0.374489 0.739963 0.095808
H11   H     H_    0.485199 0.823935 0.309005 0.125422
H12   H     H_    0.514828 0.325155 0.690983 0.125473
H13   H     H_    0.628095 0.830090 0.613292 0.144389
H14   H     H_    0.371938 0.331817 0.386698 0.144309
H15   H     H_    0.017648 0.904311 0.692564 0.135216
H16   H     H_    0.982345 0.404276 0.307431 0.135215
H17   H     H_    0.835508 0.871223 0.737096 0.111068
H18   H     H_    0.164480 0.371145 0.262894 0.111071
H19   H     H_    0.763453 0.877991 0.316567 0.123804
H20   H     H_    0.236535 0.377883 0.683433 0.123813
H21   H     H_    0.739320 0.844350 0.680985 0.146071
H22   H     H_    0.260711 0.345728 0.319003 0.145983
H23   H     H_    0.534564 0.822686 0.479272 0.123232
H24   H     H_    0.465467 0.324411 0.520714 0.123231
O11   O     O_R   0.036450 0.233070 0.130130 -0.534208
O12   O     O_R   0.963550 0.733070 0.869870 -0.534203
O13   O     O_R   0.912470 0.560570 0.006790 -0.540581
O14   O     O_R   0.087530 0.060570 0.993210 -0.540569
C49   C     C_R   0.887528 0.391888 0.004395 0.729148
C50   C     C_R   0.112472 0.891884 0.995605 0.729155
O15   O     O_R   0.032920 0.562940 0.138050 -0.536612
O16   O     O_R   0.967080 0.062940 0.861950 -0.536616
O17   O     O_R   0.084790 0.730500 0.002090 -0.539927
O18   O     O_R   0.915210 0.230500 0.997910 -0.539924
C51   C     C_R   0.044228 0.394409 0.174689 0.696695
C52   C     C_R   0.955768 0.894417 0.825310 0.696695
O19   O     O_3   0.016820 0.396170 0.955260 -0.378153
O20   O     O_3   0.983180 0.896170 0.044740 -0.378158
V3    V     V_3+5 0.996880 0.672090 0.008300 1.457562
V4    V     V_3+5 0.003120 0.172090 0.991700 1.457580
I1    I     I_    0.313652 0.088867 0.107685 -0.464683
I2    I     I_    0.686328 0.588765 0.892244 -0.464790
I3    I     I_    0.004342 0.903111 0.482803 -0.405686
I4    I     I_    0.995650 0.403100 0.517190 -0.405686

loop_
_geom_bond_atom_site_label_1
_geom_bond_atom_site_label_2
_ccdc_geom_bond_type
C40   C44   A    
C6    C10   S    
O2    C4    A    
C16   C48   A    
C2    O7    A    
C15   C47   A    
C29   C31   A    
C20   H16   S    
O5    C3    A    
C21   H17   S    
C17   C19   A    
C17   I3    S    
C39   C41   A    
C40   C42   A    
C13   C52   S    
O16   C52   A    
C35   H21   S    
C24   C28   A    
C27   C29   A    
C49   O18   A    
C43   C45   A    
C44   C46   A    
C8    H4    S    
C13   C21   A    
C31   C33   A    
O1    C3    A    
C32   C34   A    
C14   C20   A    
C17   C25   A    
O17   V3    S    
C34   H8    S    
C15   C45   A    
C26   C34   A    
C30   C32   A    
C19   H15   S    
C42   C48   A    
O6    V2    S    
C23   C25   A    
C24   C26   A    
C30   C42   A    
O13   V3    S    
C35   C37   A    
C9    H5    S    
C36   C38   A    
C38   H14   S    
C4    C11   S    
O4    C2    A    
C43   H23   S    
O5    V1    S    
O15   C51   A    
C11   I1    S    
C5    H1    S    
C31   H19   S    
O4    V2    S    
C7    H3    S    
O2    V1    S    
C12   I2    S    
O18   V4    S    
O6    C4    A    
C1    C16   S    
C28   C36   A    
C16   C46   A    
O1    V2    S    
C33   H7    S    
O12   V3    S    
O14   V4    S    
O12   C52   A    
O14   C50   A    
C10   H6    S    
C14   C22   A    
C37   C39   A    
C22   H18   S    
C18   C26   A    
C36   H22   S    
O19   V4    S    
O3    V1    S    
O16   V4    S    
C50   O17   A    
C44   H24   S    
C6    H2    S    
C45   H11   S    
O3    C1    A    
C32   H20   S    
C39   C43   A    
C9    C11   D    
C8    C49   S    
C10   C12   D    
C2    C15   S    
C18   I4    S    
C5    C9    S    
C18   C20   A    
O7    V1    S    
C1    O8    A    
O11   V4    S    
O8    V2    S    
C41   C47   A    
O11   C51   A    
C25   C33   A    
C48   H10   S    
C3    C12   S    
C47   H9    S    
C27   C35   A    
C22   C24   A    
C5    C7    D    
C38   C40   A    
C6    C8    D    
C46   H12   S    
C29   C41   A    
C37   H13   S    
C28   C30   A    
C13   C19   A    
C14   C51   S    
C21   C23   A    
O20   V3    S    
O9    V2    S    
C7    C50   S    
O13   C49   A    
C23   C27   A    
O10   V1    S    
O15   V3    S    
