data_mof_unit_42897.cif
_audit_creation_date              2012-12-10T17:05:20-0500
_audit_creation_method            fapswitch 2.2
_symmetry_space_group_name_H-M    P1
_symmetry_Int_Tables_number       1
_space_group_crystal_system       triclinic
_cell_length_a                    10.05374
_cell_length_b                    10.679621
_cell_length_c                    15.491297
_cell_angle_alpha                 90.74747
_cell_angle_beta                  66.744748
_cell_angle_gamma                 90.63799
_cell_volume                      1528.00517498

loop_
_atom_site_label
_atom_site_type_symbol
_atom_type_description
_atom_site_fract_x
_atom_site_fract_y
_atom_site_fract_z
_atom_type_partial_charge
C1    C     C_R   0.502158 0.737204 0.498417 0.785141
C2    C     C_R   0.411726 0.549107 0.913247 0.070917
C3    C     C_R   0.274939 0.602523 0.967726 -0.102645
C4    C     C_R   0.519835 0.538000 0.949901 -0.006552
C5    C     C_R   0.476557 0.542095 0.048660 -0.083764
C6    C     C_R   0.327538 0.564809 0.105965 0.381342
C7    C     C_R   0.236046 0.613778 0.066123 -0.058909
C8    C     C_R   0.669968 0.523788 0.891193 -0.010890
C9    C     C_R   0.767374 0.488382 0.929574 -0.229055
C10   C     C_R   0.724628 0.484432 0.026297 0.144959
C11   C     C_R   0.583628 0.522690 0.085888 0.100469
C12   C     C_R   0.408464 0.506628 0.676263 0.852462
C13   C     C_R   0.824807 0.450584 0.063968 -0.224205
C14   C     C_R   0.786504 0.454036 0.160951 -0.004166
C15   C     C_R   0.557072 0.545486 0.180179 -0.254811
C16   C     C_2   0.558683 0.065527 0.559244 0.042503
C17   C     C_2   0.473844 0.133168 0.529759 -0.290942
C18   C     C_2   0.543478 0.930387 0.558986 -0.241992
C19   C     C_2   0.511475 0.870009 0.492903 0.309467
C20   C     C_2   0.104267 0.422223 0.450863 -0.113324
C21   C     C_2   0.949695 0.412825 0.460219 0.009268
C22   C     C_R   0.493647 0.263457 0.508594 0.920648
C23   C     C_R   0.591667 0.500276 0.323347 0.874803
C24   C     C_R   0.349958 0.534335 0.777460 -0.185788
C25   C     C_R   0.650028 0.501725 0.220107 -0.121244
C26   C     C_R   0.182580 0.634797 0.920947 -0.055871
C27   C     C_R   0.224781 0.607103 0.824606 0.387549
C28   C     C_R   0.435432 0.500583 0.824665 -0.266176
H1    H     H_    0.932316 0.419888 0.017771 0.140676
H2    H     H_    0.381317 0.089892 0.521215 0.197420
H3    H     H_    0.561748 0.878315 0.613264 0.120943
H4    H     H_    0.182000 0.356620 0.404046 0.166900
H5    H     H_    0.072475 0.553733 0.548758 0.179604
H6    H     H_    0.886743 0.580856 0.519079 0.177010
H7    H     H_    0.463212 0.597807 0.224423 0.215326
H8    H     H_    0.879695 0.471371 0.883831 0.174987
H9    H     H_    0.524200 0.436872 0.790325 0.178472
N1    N     N_2   0.148330 0.498670 0.499030 -0.186030
N2    N     N_2   0.852680 0.498640 0.499000 -0.199031
O1    O     O_R   0.386950 0.680940 0.500010 -0.615421
O2    O     O_R   0.613110 0.680900 0.499990 -0.608866
O3    O     O_R   0.322330 0.500030 0.632270 -0.597213
O4    O     O_R   0.548480 0.499990 0.632240 -0.597083
O5    O     O_R   0.386890 0.319100 0.500010 -0.612377
O6    O     O_R   0.613050 0.319060 0.499990 -0.599677
O7    O     O_R   0.451520 0.500010 0.367760 -0.598561
O8    O     O_R   0.677670 0.499970 0.367730 -0.590478
Zn1   Zn    Zn3+2 0.349000 0.500030 0.500020 0.969260
Zn2   Zn    Zn3+2 0.651000 0.499970 0.499980 0.986780
C29   C     C_1   0.098695 0.663283 0.130567 0.269753
N3    N     N_1   0.989705 0.703163 0.183007 -0.173987
C30   C     C_1   0.657744 0.119921 0.596554 0.215608
N4    N     N_1   0.736502 0.163143 0.626834 -0.204346
O9    O     O_3   0.505748 0.930065 0.415717 -0.763789
H10   H     H_    0.487040 0.866647 0.374391 0.335323
C31   C     C_1   0.912991 0.301274 0.421101 0.291464
N5    N     N_1   0.885735 0.210684 0.389382 -0.177189
C32   C     C_1   0.890945 0.410303 0.195610 0.215354
N6    N     N_1   0.977302 0.375605 0.221416 -0.170187
C33   C     C_1   0.049278 0.703760 0.966166 0.247057
N7    N     N_1   0.942557 0.759042 0.001249 -0.171101
O10   O     O_3   0.142204 0.653303 0.779160 -0.762958
H11   H     H_    0.208646 0.682111 0.716285 0.342120
O11   O     O_3   0.264045 0.531132 0.199264 -0.772267
H12   H     H_    0.307296 0.450539 0.205620 0.337745
C34   C     C_1   0.732516 0.560367 0.793580 0.213290
N8    N     N_1   0.783177 0.590110 0.715655 -0.203726

loop_
_geom_bond_atom_site_label_1
_geom_bond_atom_site_label_2
_ccdc_geom_bond_type
C9    H8    S    
C2    C4    A    
C8    C34   S    
C6    C7    A    
C27   O10   S    
C21   C31   S    
C20   N1    D    
C9    C10   A    
C12   C24   S    
N1    Zn1   S    
C17   C22   S    
C21   N2    D    
C24   C27   A    
O6    Zn2   S    
C4    C8    A    
O11   H12   S    
C2    C3    A    
O8    Zn2   S    
C23   O7    A    
O3    Zn1   S    
C13   C14   A    
C31   N5    T    
C17   H2    S    
C26   C27   A    
O10   H11   S    
C26   C33   S    
C28   H9    S    
C19   O9    S    
C15   H7    S    
N2    Zn2   S    
C22   O5    A    
C5    C11   A    
C12   O4    A    
C3    C7    A    
C23   C25   S    
C14   C25   A    
C5    C6    A    
C14   C32   S    
O7    Zn1   S    
C15   C25   A    
C23   O8    A    
C10   C11   A    
C1    O2    A    
C6    O11   S    
H6    N2    S    
C16   C17   D    
C16   C30   S    
C4    C5    A    
C22   O6    A    
C34   N8    T    
C20   C21   S    
C24   C28   A    
C16   C18   S    
C18   C19   D    
C20   H4    S    
C13   H1    S    
O1    Zn1   S    
C2    C28   A    
O9    H10   S    
C33   N7    T    
H5    N1    S    
C12   O3    A    
C18   H3    S    
C1    O1    A    
C29   N3    T    
C32   N6    T    
C1    C19   S    
C11   C15   A    
O2    Zn2   S    
C3    C26   A    
O4    Zn2   S    
O5    Zn1   S    
C7    C29   S    
C30   N4    T    
C8    C9    A    
C10   C13   A    
