data_mof_unit_45833.cif
_audit_creation_date              2012-12-11T19:44:47-0500
_audit_creation_method            fapswitch 2.2
_symmetry_space_group_name_H-M    P1
_symmetry_Int_Tables_number       1
_space_group_crystal_system       triclinic
_cell_length_a                    8.227463
_cell_length_b                    15.116856
_cell_length_c                    19.280515
_cell_angle_alpha                 102.538522
_cell_angle_beta                  92.476186
_cell_angle_gamma                 98.367268
_cell_volume                      2308.91933055

loop_
_atom_site_label
_atom_site_type_symbol
_atom_type_description
_atom_site_fract_x
_atom_site_fract_y
_atom_site_fract_z
_atom_type_partial_charge
Ba1   Ba    Ba6+2 0.853900 0.540470 0.466700 1.660922
Ba2   Ba    Ba6+2 0.335940 0.459610 0.533310 1.656173
C1    C     C_3   0.581284 0.858822 0.306873 0.220017
C2    C     C_R   0.025201 0.535278 0.727621 0.064513
C3    C     C_R   0.868171 0.414640 0.801548 -0.158218
C4    C     C_3   0.052387 0.724337 0.281912 0.675839
C5    C     C_R   0.790872 0.427589 0.739332 0.007413
C6    C     C_R   0.343402 0.546137 0.183392 -0.103458
C7    C     C_R   0.415445 0.540749 0.249259 0.049554
C8    C     C_R   0.123493 0.428457 0.194539 -0.122670
C9    C     C_R   0.168874 0.450012 0.268842 0.097889
C10   C     C_R   0.999247 0.481251 0.840573 0.020275
C11   C     C_R   0.878407 0.479958 0.699022 -0.249147
C12   C     C_3   0.595879 0.766402 0.325652 0.295366
C13   C     C_R   0.202234 0.482783 0.149503 0.031846
C14   C     C_R   0.321560 0.499730 0.294169 -0.205567
C15   C     C_R   0.765617 0.422746 0.943414 -0.148705
C16   C     C_3   0.025028 0.749341 0.209695 0.303023
C17   C     C_R   0.659123 0.371424 0.978567 -0.143876
C18   C     C_R   0.701784 0.368990 0.048981 0.437324
C19   C     C_R   0.851255 0.420683 0.080714 -0.109217
C20   C     C_R   0.979484 0.448953 0.039608 -0.038187
C21   C     C_R   0.934154 0.450416 0.966611 0.031108
C22   C     C_R   0.146744 0.475458 0.069329 0.002982
C23   C     C_3   0.458618 0.302014 0.313981 0.300101
C24   C     C_R   0.265150 0.498204 0.020969 0.029886
C25   C     C_R   0.219933 0.506766 0.949957 -0.039863
C26   C     C_R   0.051980 0.481521 0.919971 0.007708
C27   C     C_R   0.434354 0.510025 0.041444 -0.157678
C28   C     C_3   0.246306 0.747049 0.633635 0.360217
C29   C     C_R   0.549913 0.559018 0.008996 -0.135289
C30   C     C_R   0.509775 0.572588 0.941589 0.434545
C31   C     C_R   0.350220 0.536796 0.910350 -0.119612
C32   C     C_R   0.853526 0.174043 0.552995 -0.004523
C33   C     C_R   0.785447 0.081001 0.548561 -0.037938
C34   C     C_3   0.433246 0.268013 0.233806 -0.387804
C35   C     C_R   0.645613 0.893448 0.535962 -0.025728
C36   C     C_R   0.800225 0.930657 0.573131 -0.047511
C37   C     C_R   0.869627 0.022145 0.578451 -0.118727
C38   C     C_R   0.577638 0.798885 0.525117 0.030991
C39   C     C_R   0.422352 0.766810 0.489439 -0.308138
C40   C     C_3   0.274820 0.851392 0.656891 -0.384319
C41   C     C_R   0.611316 0.194901 0.485393 0.008257
C42   C     C_R   0.540995 0.102750 0.480260 -0.013227
C43   C     C_R   0.626787 0.045909 0.513087 0.045088
C44   C     C_R   0.387137 0.065863 0.443228 -0.013330
C45   C     C_3   0.071624 0.262158 0.722577 0.361081
C46   C     C_R   0.313836 0.977177 0.442066 -0.072711
C47   C     C_R   0.397236 0.918617 0.472446 -0.016148
C48   C     C_R   0.556257 0.952718 0.507617 0.054955
C49   C     C_R   0.329186 0.825808 0.465773 0.019063
C50   C     C_R   0.761763 0.230240 0.524411 -0.296824
C51   C     C_3   0.943947 0.261340 0.376159 0.305047
C52   C     C_3   0.895833 0.158372 0.356320 -0.387323
C53   C     C_3   0.707350 0.673766 0.686635 0.419208
C54   C     C_3   0.665208 0.701885 0.763236 0.272535
C55   C     C_3   0.835087 0.943448 0.352530 0.187641
C56   C     C_3   0.108596 0.234379 0.792236 -0.372434
C57   C     C_3   0.478679 0.768461 0.835501 0.208162
C58   C     C_3   0.476790 0.256645 0.052475 0.128787
C59   C     C_3   0.754862 0.671487 0.939875 0.107194
C60   C     C_3   0.874764 0.826243 0.146072 0.150782
C61   C     C_3   0.532127 0.216197 0.677682 0.380351
C62   C     C_3   0.491476 0.124567 0.698750 -0.368320
C63   C     C_R   0.070467 0.546708 0.801675 -0.134815
H1    H     H_    0.682080 0.776639 0.373709 0.076686
H2    H     H_    0.831524 0.654144 0.685399 -0.155047
H3    H     H_    0.615067 0.613623 0.660306 0.046968
H4    H     H_    0.770516 0.752015 0.793606 -0.009808
H5    H     H_    0.647038 0.638971 0.784377 0.059776
H6    H     H_    0.474024 0.736574 0.339865 -0.075415
H7    H     H_    0.448968 0.866152 0.303431 0.049512
H8    H     H_    0.342171 0.322876 0.333864 0.012509
H9    H     H_    0.558824 0.362218 0.325982 0.058204
H10   H     H_    0.329916 0.209607 0.219667 0.110987
H11   H     H_    0.403784 0.324188 0.209163 0.085809
H12   H     H_    0.364798 0.874366 0.704312 0.145574
H13   H     H_    0.547623 0.245301 0.212810 0.152822
H14   H     H_    0.623463 0.861541 0.253152 0.081355
H15   H     H_    0.145987 0.778095 0.193225 -0.017789
H16   H     H_    0.128147 0.334975 0.727786 0.068379
H17   H     H_    0.935879 0.254180 0.713019 -0.061168
H18   H     H_    0.243480 0.241858 0.804523 0.155822
H19   H     H_    0.056754 0.278588 0.836742 0.069245
H20   H     H_    0.052715 0.161805 0.788120 0.103286
H21   H     H_    0.666814 0.229042 0.672640 -0.091883
H22   H     H_    0.465580 0.211544 0.625331 0.080508
H23   H     H_    0.323900 0.882560 0.613648 0.042496
H24   H     H_    0.530125 0.069241 0.658038 0.064336
H25   H     H_    0.356996 0.107671 0.703057 0.147292
H26   H     H_    0.934012 0.695269 0.298037 0.112529
H27   H     H_    0.557726 0.127727 0.750867 0.104897
H28   H     H_    0.159230 0.605951 0.827119 0.038877
H29   H     H_    0.817191 0.355134 0.820501 0.063001
H30   H     H_    0.401578 0.599425 0.159166 0.062415
H31   H     H_    0.029816 0.369636 0.174010 0.052223
H32   H     H_    0.828276 0.480966 0.646421 0.062309
H33   H     H_    0.367360 0.506640 0.348891 0.045469
H34   H     H_    0.156845 0.875989 0.670486 0.108722
H35   H     H_    0.708171 0.443503 0.899933 0.137644
H36   H     H_    0.535839 0.345351 0.953943 0.073144
H37   H     H_    0.860331 0.439670 0.137611 0.134412
H38   H     H_    0.481205 0.482288 0.083656 0.126771
H39   H     H_    0.674976 0.575117 0.032953 0.072486
H40   H     H_    0.334413 0.531498 0.854635 0.140180
H41   H     H_    0.870867 0.889857 0.598273 0.104617
H42   H     H_    0.989949 0.045950 0.606417 0.103328
H43   H     H_    0.192196 0.955240 0.415398 0.090699
H44   H     H_    0.318728 0.105047 0.415451 0.098731
H45   H     H_    0.836066 0.293167 0.394267 0.017029
H46   H     H_    0.371013 0.694962 0.481749 0.071549
H47   H     H_    0.973376 0.684759 0.170016 0.006769
H48   H     H_    0.813985 0.301092 0.527565 0.062860
H49   H     H_    0.365191 0.723606 0.621373 0.017228
H50   H     H_    0.158320 0.725988 0.585491 0.036528
H51   H     H_    0.864484 0.971836 0.305277 0.068588
H52   H     H_    0.883070 0.878306 0.347727 0.121509
H53   H     H_    0.900199 0.990048 0.401281 0.055413
H54   H     H_    0.582703 0.814261 0.870333 -0.001883
H55   H     H_    0.436667 0.707519 0.857115 0.059080
H56   H     H_    0.043344 0.279089 0.419896 0.079037
H57   H     H_    0.374341 0.807443 0.835820 0.051331
H58   H     H_    0.532219 0.210355 0.010139 0.023852
H59   H     H_    0.372937 0.283761 0.029891 0.044496
H60   H     H_    0.424561 0.213902 0.088487 0.062033
H61   H     H_    0.262354 0.689383 0.262845 0.254237
H62   H     H_    0.846953 0.638186 0.964295 0.051826
H63   H     H_    0.706269 0.723089 0.980715 0.005611
H64   H     H_    0.821440 0.709048 0.903642 0.043982
H65   H     H_    0.798567 0.762907 0.113304 0.033461
H66   H     H_    0.985970 0.846423 0.118691 0.013776
H67   H     H_    0.794058 0.138316 0.313442 0.143595
H68   H     H_    0.799819 0.882340 0.151243 0.052817
H69   H     H_    0.854524 0.133612 0.403297 0.067540
H70   H     H_    0.004285 0.126516 0.337733 0.102589
O1    O     O_2   0.873950 0.434950 0.324050 -0.459463
O2    O     O_2   0.184222 0.181088 0.533280 -0.494102
O3    O     O_3   0.138207 0.205493 0.667297 -0.597079
O4    O     O_3   0.122400 0.443310 0.412980 -0.498582
O5    O     O_3   0.579970 0.613770 0.540070 -0.504971
O6    O     O_2   0.337870 0.272490 0.457870 -0.466095
O7    O     O_3   0.501316 0.231122 0.343971 -0.639506
O8    O     O_2   0.470378 0.462332 0.756831 -0.481876
O9    O     O_3   0.482545 0.285512 0.729741 -0.593154
O10   O     O_3   0.662890 0.605900 0.373340 -0.485959
O11   O     O_2   0.756108 0.547443 0.242907 -0.494842
O12   O     O_3   0.707513 0.749600 0.655991 -0.627691
O13   O     O_3   0.998063 0.289350 0.315642 -0.640789
O14   O     O_3   0.653335 0.708188 0.267792 -0.636840
O15   O     O_2   0.851830 0.727540 0.542170 -0.467037
O16   O     O_3   0.085020 0.656200 0.410840 -0.448193
O17   O     O_2   0.986008 0.818386 0.456393 -0.518790
O18   O     O_3   0.664229 0.933020 0.360097 -0.669503
O19   O     O_3   0.519884 0.741617 0.764711 -0.618727
O20   O     O_3   0.594660 0.329672 0.092077 -0.656419
O21   O     O_3   0.155896 0.658456 0.274452 -0.777714
O22   O     O_3   0.627242 0.605067 0.899533 -0.661498
O23   O     O_3   0.121980 0.801990 0.334237 -0.669886
O24   O     O_3   0.917088 0.814383 0.214746 -0.653082
O25   O     O_2   0.315750 0.565080 0.676000 -0.460088
O26   O     O_3   0.067310 0.556770 0.587020 -0.498665
O27   O     O_3   0.526830 0.394180 0.626670 -0.476818
O28   O     O_3   0.182902 0.711424 0.689745 -0.611537
O29   O     O_3   0.609740 0.386310 0.459940 -0.489678
O30   O     O_3   0.104690 0.343880 0.589170 -0.484642
P1    P     P_3+3 0.041310 0.408750 0.334260 0.990807
P2    P     P_3+3 0.676060 0.715830 0.563200 0.975420
P3    P     P_3+3 0.126968 0.774937 0.418662 0.937618
P4    P     P_3+3 0.148400 0.591330 0.665750 1.007514
P5    P     P_3+3 0.068334 0.225720 0.586089 0.936215
P6    P     P_3+3 0.623138 0.597108 0.282323 0.929191
P7    P     P_3+3 0.519480 0.269929 0.436570 0.931741
P8    P     P_3+3 0.569011 0.391786 0.714910 0.952427

loop_
_geom_bond_atom_site_label_1
_geom_bond_atom_site_label_2
_ccdc_geom_bond_type
C51   H45   S    
C53   C54   S    
O10   P6    S    
C38   C39   A    
C57   H55   S    
C18   O20   S    
O3    P5    S    
O13   P1    S    
C12   H6    S    
C60   H65   S    
Ba1   O10   S    
C17   C18   A    
C62   H25   S    
C1    H14   S    
Ba2   O27   S    
C3    H29   S    
O23   P3    S    
O27   P8    S    
C46   H43   S    
C50   H48   S    
C25   C31   A    
C37   H42   S    
C24   C25   A    
C15   C21   A    
C10   C26   S    
Ba2   O4    S    
C28   O28   S    
C60   H68   S    
O7    P7    S    
C58   H60   S    
C7    C14   A    
C16   H47   S    
C32   C33   A    
C35   C38   A    
C56   H19   S    
C8    C13   A    
C36   C37   A    
C41   C50   A    
C52   H70   S    
C56   H18   S    
O16   P3    S    
C52   H69   S    
C1    O18   S    
C27   H38   S    
Ba1   Ba2   S    
C45   H17   S    
C2    C11   A    
C58   H59   S    
C38   P2    S    
C16   O24   S    
C34   H11   S    
O17   P3    D    
C23   O7    S    
Ba1   O29   S    
C6    C7    A    
C47   C49   A    
O9    P8    S    
C9    P1    S    
O25   P4    D    
Ba1   P2    S    
Ba1   O1    S    
C32   P5    S    
C59   H64   S    
O26   P4    S    
O5    P2    S    
C63   H28   S    
Ba1   O26   S    
O11   P6    D    
C49   P3    S    
C51   O13   S    
C6    H30   S    
C62   H24   S    
Ba2   O26   S    
C4    O23   S    
C57   O19   S    
C42   C44   A    
C53   H3    S    
C55   H51   S    
C28   H50   S    
C4    C16   S    
C44   C46   A    
C2    P4    S    
C31   H40   S    
C3    C10   A    
C54   O19   S    
Ba2   O29   S    
C3    C5    A    
Ba2   P4    S    
C45   O3    S    
C51   C52   S    
C55   O18   S    
O6    P7    D    
C36   H41   S    
O4    P1    S    
C33   C37   A    
C41   C42   A    
C35   C36   A    
C34   H10   S    
C59   O22   S    
C9    C14   A    
C53   O12   S    
C29   C30   A    
C8    H31   S    
C61   O9    S    
C12   H1    S    
Ba1   O15   S    
C59   H62   S    
C21   C26   A    
Ba1   O5    S    
Ba2   O30   S    
O2    P5    D    
C1    C12   S    
O12   P2    S    
C24   C27   A    
C19   H37   S    
Ba2   O25   S    
C13   C22   S    
C54   H4    S    
C6    C13   A    
C54   H5    S    
C61   H21   S    
C20   C22   A    
C7    P6    S    
C40   H23   S    
O8    P8    D    
C33   C43   A    
C56   H20   S    
C60   O24   S    
C42   C43   A    
C55   H52   S    
C30   O22   S    
C28   H49   S    
O30   P5    S    
C46   C47   A    
C57   H54   S    
C61   H22   S    
O14   P6    S    
C60   H66   S    
C22   C24   A    
Ba1   O4    S    
C53   H2    S    
C41   P7    S    
C52   H67   S    
C10   C63   A    
C32   C50   A    
C23   H9    S    
Ba2   O5    S    
C29   H39   S    
C1    H7    S    
C58   O20   S    
C27   C29   A    
C34   H13   S    
C40   H34   S    
C30   C31   A    
C45   C56   S    
C35   C48   A    
C17   H36   S    
C14   H33   S    
C2    C63   A    
O1    P1    D    
C43   C48   A    
C57   H57   S    
O15   P2    D    
C5    P8    S    
C12   O14   S    
C15   C17   A    
Ba1   O16   S    
C59   H63   S    
C23   H8    S    
C45   H16   S    
C11   H32   S    
O28   P4    S    
C15   H35   S    
O29   P7    S    
C8    C9    A    
C23   C34   S    
C61   C62   S    
C5    C11   A    
C58   H58   S    
C18   C19   A    
C40   H12   S    
C16   H15   S    
C47   C48   A    
C39   H46   S    
C44   H44   S    
C25   C26   A    
Ba2   O6    S    
C62   H27   S    
C20   C21   A    
C28   C40   S    
C51   H56   S    
C19   C20   A    
C39   C49   A    
C4    O21   S    
C4    H26   S    
Ba1   P1    S    
C55   H53   S    
H61   O21   S    
