data_mof_unit_57958.cif
_audit_creation_date              2012-12-10T20:28:14-0500
_audit_creation_method            fapswitch 2.2
_symmetry_space_group_name_H-M    P1
_symmetry_Int_Tables_number       1
_space_group_crystal_system       triclinic
_cell_length_a                    18.561618
_cell_length_b                    18.578844
_cell_length_c                    19.253982
_cell_angle_alpha                 110.124398
_cell_angle_beta                  109.789976
_cell_angle_gamma                 108.618395
_cell_volume                      5103.06751948

loop_
_atom_site_label
_atom_site_type_symbol
_atom_type_description
_atom_site_fract_x
_atom_site_fract_y
_atom_site_fract_z
_atom_type_partial_charge
C1    C     C_R   0.381435 0.501578 0.381265 0.910645
C2    C     C_R   0.827786 0.813886 0.573371 -0.168017
C3    C     C_R   0.270877 0.328390 0.713045 -0.224507
C4    C     C_R   0.326887 0.311082 0.766225 -0.199465
C5    C     C_R   0.077826 0.325712 0.815642 -0.226982
C6    C     C_R   0.998355 0.312099 0.813288 -0.160398
C7    C     C_R   0.918014 0.235983 0.745368 -0.115129
C8    C     C_R   0.919372 0.174266 0.680355 0.595291
C9    C     C_R   0.999360 0.188082 0.683782 -0.179828
C10   C     C_3   0.763654 0.742721 0.171113 -0.433150
C11   C     C_3   0.797047 0.826330 0.165917 -0.805904
C12   C     C_3   0.740732 0.869258 0.839673 -0.330200
C13   C     C_R   0.810210 0.811999 0.495966 -0.078495
C14   C     C_3   0.747297 0.862720 0.918445 -0.946500
C15   C     C_3   0.891834 0.153264 0.986746 -0.380541
C16   C     C_3   0.897359 0.107169 0.038864 -0.863703
C17   C     C_3   0.235604 0.364988 0.038467 -0.398172
C18   C     C_3   0.295168 0.325487 0.057688 -0.834535
C19   C     C_3   0.157867 0.589191 0.480515 -0.478005
C20   C     C_3   0.221763 0.679835 0.561436 -0.814684
C21   C     C_3   0.414178 0.239741 0.520930 -0.387707
C22   C     C_3   0.483665 0.301182 0.615539 -0.877778
C23   C     C_3   0.295674 0.864017 0.447549 -0.462407
C24   C     C_R   0.726771 0.750015 0.420904 0.006173
C25   C     C_3   0.358788 0.870922 0.412637 -0.717906
C26   C     C_3   0.793442 0.568259 0.385120 -0.449074
C27   C     C_3   0.778129 0.541012 0.447366 -0.809251
C28   C     C_3   0.040639 0.615287 0.282202 -0.363020
C29   C     C_3   0.961851 0.530473 0.255106 -0.822433
C30   C     C_3   0.842622 0.661241 0.019695 -0.404942
C31   C     C_3   0.767053 0.672798 0.970503 -0.901432
C32   C     C_R   0.666544 0.685869 0.424155 -0.289018
C33   C     C_R   0.685219 0.687795 0.501196 -0.058214
C34   C     C_R   0.764308 0.753985 0.577040 0.057252
C35   C     C_R   0.621041 0.757978 0.306308 -0.139407
C36   C     C_R   0.589989 0.756532 0.228712 -0.179205
C37   C     C_R   0.635351 0.749972 0.184140 -0.142451
C38   C     C_R   0.620226 0.620574 0.500808 0.885197
C39   C     C_R   0.802263 0.762942 0.811412 -0.189780
C40   C     C_R   0.712712 0.745423 0.217353 0.222695
C41   C     C_R   0.742297 0.744133 0.294242 -0.159280
C42   C     C_R   0.697244 0.751454 0.339671 0.108572
C43   C     C_R   0.444463 0.789341 0.546445 0.601743
C44   C     C_R   0.375164 0.711071 0.471296 -0.217645
C45   C     C_R   0.389492 0.668979 0.405554 0.130685
C46   C     C_R   0.473521 0.705997 0.415415 -0.195629
C47   C     C_R   0.542404 0.784782 0.490058 -0.179390
C48   C     C_R   0.527920 0.826333 0.555605 -0.128939
C49   C     C_R   0.253145 0.581405 0.263731 0.532898
C50   C     C_R   0.079319 0.263618 0.751842 -0.007933
C51   C     C_R   0.618113 0.497257 0.618312 0.831495
C52   C     C_R   0.189421 0.501224 0.188003 -0.226522
C53   C     C_R   0.189301 0.422077 0.175320 -0.035472
C54   C     C_R   0.252968 0.423942 0.240258 -0.247842
C55   C     C_R   0.316635 0.503701 0.316295 -0.182446
C56   C     C_R   0.318076 0.583430 0.328403 -0.087450
C57   C     C_R   0.044226 0.285096 0.079152 -0.250627
C58   C     C_R   0.981234 0.206823 0.000760 0.108799
C59   C     C_R   0.002177 0.180510 0.936051 0.614992
C60   C     C_R   0.084664 0.232038 0.949692 -0.287204
C61   C     C_R   0.781469 0.149868 0.742890 -0.048341
C62   C     C_R   0.147583 0.311208 0.027460 0.106833
C63   C     C_R   0.381429 0.379216 0.500975 0.876140
C64   C     C_R   0.126691 0.338018 0.092799 0.065092
C65   C     C_R   0.190008 0.503878 0.553058 -0.132981
C66   C     C_R   0.211844 0.439749 0.557486 -0.175546
C67   C     C_R   0.224875 0.389885 0.494087 0.134127
C68   C     C_R   0.216374 0.405727 0.426314 -0.147596
C69   C     C_R   0.195749 0.470954 0.422546 -0.177395
C70   C     C_R   0.182492 0.520627 0.485962 0.243176
C71   C     C_R   0.177197 0.251548 0.494826 -0.229162
C72   C     C_R   0.699059 0.134219 0.733838 -0.165330
C73   C     C_R   0.187456 0.181652 0.497404 -0.122008
C74   C     C_R   0.260588 0.173430 0.499619 -0.024864
C75   C     C_R   0.768656 0.814139 0.787704 0.109512
C76   C     C_R   0.327808 0.240431 0.504193 0.116966
C77   C     C_R   0.315841 0.311263 0.500388 -0.110220
C78   C     C_R   0.240402 0.316812 0.496092 -0.045125
C79   C     C_R   0.309413 0.085737 0.558977 -0.136382
C80   C     C_R   0.317633 0.010633 0.546300 -0.186907
C81   C     C_R   0.278663 0.940361 0.462909 0.229967
C82   C     C_R   0.228167 0.944455 0.392867 -0.131866
C83   C     C_R   0.666319 0.189043 0.719738 -0.134617
C84   C     C_R   0.219893 0.019258 0.405396 -0.227832
C85   C     C_R   0.262107 0.091011 0.488340 0.122289
C86   C     C_2   0.736853 0.480560 0.809179 -0.146553
C87   C     C_R   0.759463 0.813312 0.711797 0.641759
C88   C     C_2   0.818449 0.505934 0.822289 -0.261253
C89   C     C_2   0.677760 0.495958 0.750633 -0.342656
C90   C     C_2   0.677652 0.485316 0.678282 0.462004
C91   C     C_R   0.999766 0.877918 0.381578 0.892236
C92   C     C_R   0.878765 0.878304 0.497852 0.891323
C93   C     C_R   0.999312 0.120805 0.618736 0.975731
C94   C     C_R   0.716011 0.259647 0.714791 -0.097744
C95   C     C_R   0.120526 0.118190 0.498797 0.911212
C96   C     C_R   0.001900 0.379224 0.882261 0.897483
C97   C     C_R   0.122992 0.500664 0.122559 0.941830
C98   C     C_R   0.004547 0.620972 0.123920 0.891672
C99   C     C_R   0.781655 0.760983 0.660118 -0.034205
C100  C     C_R   0.883238 0.500482 0.884291 0.879463
C101  C     C_R   0.041241 0.736733 0.529841 -0.192527
C102  C     C_R   0.058760 0.757919 0.472294 -0.111713
C103  C     C_R   0.990176 0.720997 0.389167 0.125643
C104  C     C_R   0.904505 0.662009 0.363830 -0.278547
C105  C     C_R   0.798695 0.275873 0.724328 -0.095220
C106  C     C_R   0.886498 0.637829 0.419990 0.222233
C107  C     C_R   0.955819 0.677035 0.504185 -0.099874
C108  C     C_R   0.015335 0.680507 0.265298 0.105146
C109  C     C_R   0.010140 0.689306 0.193965 -0.125427
C110  C     C_R   0.008819 0.763057 0.189299 -0.015692
C111  C     C_R   0.815130 0.711033 0.684909 -0.251342
C112  C     C_R   0.006953 0.824604 0.252671 -0.267357
C113  C     C_R   0.003447 0.812265 0.318791 -0.119312
C114  C     C_R   0.006836 0.740285 0.325913 -0.035076
C115  C     C_R   0.084988 0.836966 0.129802 -0.260280
C116  C     C_R   0.831972 0.221055 0.738510 0.164466
C117  C     C_R   0.088848 0.843380 0.060919 0.689491
C118  C     C_R   0.015217 0.787966 0.978960 -0.243987
C119  C     C_R   0.937061 0.728191 0.966456 -0.240611
C120  C     C_R   0.930268 0.723722 0.035362 0.205892
C121  C     C_R   0.006784 0.776027 0.117350 0.000655
C122  C     C_R   0.302384 0.278884 0.815082 -0.135450
C123  C     C_R   0.825360 0.712071 0.760134 -0.188287
C124  C     C_R   0.221789 0.263830 0.810707 -0.212816
C125  C     C_R   0.164811 0.280195 0.756703 0.029302
C126  C     C_R   0.189618 0.312399 0.707607 0.617455
F1    F     F_    0.430762 0.829626 0.610323 -0.706224
F2    F     F_    0.251939 0.657082 0.274006 -0.698804
F3    F     F_    0.943320 0.104556 0.859889 -0.687120
F4    F     F_    0.726729 0.861541 0.686920 -0.690310
F5    F     F_    0.722712 0.448201 0.651339 -0.671642
F6    F     F_    0.164845 0.901612 0.073276 -0.666532
F7    F     F_    0.135336 0.328631 0.655165 -0.709252
F8    F     F_    0.842984 0.100209 0.614142 -0.656158
H1    H     H_    0.810688 0.761834 0.869122 0.173255
H2    H     H_    0.099347 0.210325 0.898942 0.174516
H3    H     H_    0.178766 0.540269 0.601946 0.153488
H4    H     H_    0.217742 0.428321 0.610065 0.192912
H5    H     H_    0.224276 0.366692 0.375784 0.119616
H6    H     H_    0.188436 0.481525 0.369260 0.134144
H7    H     H_    0.119423 0.255582 0.492503 0.205733
H8    H     H_    0.341690 0.140557 0.623392 0.134335
H9    H     H_    0.356820 0.008646 0.601243 0.143126
H10   H     H_    0.197501 0.890504 0.328472 0.151695
H11   H     H_    0.182809 0.022382 0.350374 0.141767
H12   H     H_    0.610776 0.749491 0.124236 0.139882
H13   H     H_    0.715706 0.454781 0.845776 0.163864
H14   H     H_    0.842046 0.540432 0.792384 0.194230
H15   H     H_    0.631946 0.512985 0.765548 0.139525
H16   H     H_    0.832476 0.670513 0.645709 0.159119
H17   H     H_    0.945151 0.661435 0.550227 0.139713
H18   H     H_    0.094240 0.765824 0.594265 0.145119
H19   H     H_    0.125392 0.803004 0.492302 0.130382
H20   H     H_    0.852115 0.632049 0.298713 0.130055
H21   H     H_    0.006697 0.881805 0.249666 0.166896
H22   H     H_    0.143651 0.877929 0.192466 0.156848
H23   H     H_    0.801134 0.739423 0.319733 0.102858
H24   H     H_    0.850397 0.672130 0.777395 0.152963
H25   H     H_    0.018557 0.791114 0.924954 0.173233
H26   H     H_    0.881381 0.684836 0.902856 0.157748
H27   H     H_    0.389354 0.322860 0.769723 0.146698
H28   H     H_    0.345866 0.265655 0.856410 0.141947
H29   H     H_    0.203404 0.238533 0.848555 0.151749
H30   H     H_    0.290708 0.354216 0.676153 0.158662
H31   H     H_    0.139069 0.384750 0.867737 0.161717
H32   H     H_    0.890025 0.863839 0.631735 0.172784
H33   H     H_    0.805835 0.106556 0.753136 0.200791
H34   H     H_    0.581395 0.887115 0.613490 0.191328
H35   H     H_    0.660393 0.079316 0.737301 0.151183
H36   H     H_    0.602307 0.176605 0.712261 0.134837
H37   H     H_    0.690235 0.301491 0.703089 0.168555
H38   H     H_    0.836378 0.330485 0.719878 0.136148
H39   H     H_    0.603604 0.635416 0.366786 0.148242
H40   H     H_    0.585803 0.764616 0.340671 0.137668
H41   H     H_    0.530953 0.761087 0.203368 0.155559
H42   H     H_    0.742605 0.823685 0.115677 0.236115
H43   H     H_    0.824401 0.885946 0.227975 0.276379
H44   H     H_    0.849766 0.832481 0.149659 0.251010
H45   H     H_    0.310570 0.682974 0.463977 0.158884
H46   H     H_    0.820666 0.735664 0.204159 0.210274
H47   H     H_    0.720491 0.684156 0.105670 0.200275
H48   H     H_    0.705654 0.793519 0.899396 0.267787
H49   H     H_    0.816744 0.887522 0.965213 0.268558
H50   H     H_    0.723257 0.903681 0.950142 0.261068
H51   H     H_    0.781706 0.939360 0.860855 0.242065
H52   H     H_    0.671155 0.848718 0.797365 0.229775
H53   H     H_    0.922954 0.061818 0.019455 0.278145
H54   H     H_    0.941138 0.156105 0.108402 0.256684
H55   H     H_    0.830761 0.068337 0.027292 0.252275
H56   H     H_    0.485366 0.673219 0.365464 0.127296
H57   H     H_    0.864743 0.197267 0.005677 0.192975
H58   H     H_    0.844722 0.102727 0.918039 0.242611
H59   H     H_    0.307626 0.324764 0.118019 0.268945
H60   H     H_    0.264414 0.257162 0.004443 0.255001
H61   H     H_    0.359101 0.365866 0.065187 0.244469
H62   H     H_    0.225549 0.367015 0.979136 0.195795
H63   H     H_    0.269871 0.434469 0.090664 0.218230
H64   H     H_    0.208529 0.682322 0.614056 0.247363
H65   H     H_    0.290929 0.694802 0.582589 0.297614
H66   H     H_    0.213325 0.731248 0.548500 0.249386
H67   H     H_    0.607149 0.813303 0.497434 0.200580
H68   H     H_    0.157805 0.594674 0.424944 0.202555
H69   H     H_    0.090196 0.568564 0.470182 0.222718
H70   H     H_    0.494189 0.369020 0.636426 0.243020
H71   H     H_    0.462534 0.278060 0.654948 0.246892
H72   H     H_    0.546673 0.302112 0.626279 0.267211
H73   H     H_    0.406635 0.173264 0.502898 0.217473
H74   H     H_    0.439112 0.257480 0.481328 0.238981
H75   H     H_    0.330179 0.869432 0.350971 0.261885
H76   H     H_    0.422525 0.933051 0.459492 0.242708
H77   H     H_    0.371583 0.814972 0.400970 0.285871
H78   H     H_    0.253015 0.363031 0.231339 0.177272
H79   H     H_    0.325046 0.863478 0.507973 0.241072
H80   H     H_    0.232615 0.800979 0.401181 0.223632
H81   H     H_    0.821360 0.514283 0.468919 0.255109
H82   H     H_    0.790574 0.598136 0.503154 0.247741
H83   H     H_    0.708638 0.488846 0.414833 0.270856
H84   H     H_    0.747782 0.592591 0.363417 0.220592
H85   H     H_    0.775713 0.508333 0.327994 0.207696
H86   H     H_    0.902309 0.511192 0.197155 0.269018
H87   H     H_    0.977773 0.476208 0.240990 0.240742
H88   H     H_    0.947253 0.538449 0.307658 0.250474
H89   H     H_    0.028335 0.306068 0.129221 0.169511
H90   H     H_    0.076655 0.598157 0.249340 0.219816
H91   H     H_    0.088588 0.647535 0.351227 0.188360
H92   H     H_    0.783509 0.742729 0.001887 0.270282
H93   H     H_    0.752644 0.651114 0.903890 0.260532
H94   H     H_    0.706370 0.631819 0.967547 0.249637
H95   H     H_    0.827774 0.592575 0.983717 0.202738
H96   H     H_    0.844842 0.670896 0.080586 0.210620
O1    O     O_R   0.408620 0.551720 0.460350 -0.606944
O2    O     O_R   0.952100 0.356700 0.912170 -0.622867
O3    O     O_R   0.145980 0.551740 0.094190 -0.583392
O4    O     O_R   0.409320 0.448300 0.357580 -0.630161
O5    O     O_R   0.042530 0.448320 0.094220 -0.639126
O6    O     O_R   0.054350 0.643370 0.094170 -0.598979
O7    O     O_R   0.950900 0.539950 0.094200 -0.630554
O8    O     O_R   0.963910 0.551750 0.912120 -0.614913
O9    O     O_R   0.860470 0.448330 0.912150 -0.623404
O10   O     O_R   0.591270 0.643330 0.551380 -0.600494
O11   O     O_R   0.591970 0.539910 0.448620 -0.631263
O12   O     O_R   0.949210 0.908400 0.357560 -0.637590
O13   O     O_R   0.590680 0.551700 0.642420 -0.653921
O14   O     O_R   0.591380 0.448280 0.539650 -0.574671
O15   O     O_R   0.408030 0.460090 0.551380 -0.614950
O16   O     O_R   0.408730 0.356670 0.448620 -0.636232
O17   O     O_R   0.051990 0.908360 0.460320 -0.619979
O18   O     O_R   0.959770 0.908340 0.551360 -0.626935
O19   O     O_R   0.856990 0.908380 0.448600 -0.600094
O20   O     O_R   0.050790 0.091560 0.642400 -0.636220
O21   O     O_R   0.948010 0.091600 0.539640 -0.565007
O22   O     O_R   0.143010 0.091580 0.551350 -0.619120
O23   O     O_R   0.040230 0.091620 0.448600 -0.629569
O24   O     O_R   0.055540 0.460120 0.912140 -0.620847
Zn1   Zn    Zn3+2 0.499530 0.569060 0.568620 0.986706
Zn2   Zn    Zn3+2 0.500470 0.430940 0.431380 0.966498
Zn3   Zn    Zn3+2 0.068630 0.999950 0.568590 0.972196
Zn4   Zn    Zn3+2 0.931370 0.000000 0.431370 1.001679
Zn5   Zn    Zn3+2 0.072290 0.569090 0.003150 1.009028
Zn6   Zn    Zn3+2 0.934150 0.430980 0.003190 0.932886

loop_
_geom_bond_atom_site_label_1
_geom_bond_atom_site_label_2
_ccdc_geom_bond_type
C101  C107  A    
C55   C56   A    
C94   C105  A    
C101  C102  A    
C115  C121  A    
C105  H38   S    
C31   H93   S    
C115  H22   S    
C18   H60   S    
C117  C118  A    
C24   C42   S    
C41   C42   A    
C105  C116  A    
C51   O14   A    
O19   Zn4   S    
C15   H58   S    
C86   H13   S    
C26   C106  S    
C104  C106  A    
C14   H49   S    
C92   O18   A    
C3    C126  A    
O13   Zn1   S    
C7    C8    A    
O3    Zn5   S    
C98   O7    A    
C39   H1    S    
C92   O19   A    
C120  C121  A    
C29   H87   S    
O15   Zn1   S    
C21   C76   S    
C47   H67   S    
C11   H42   S    
C125  C126  A    
C74   C76   A    
C104  H20   S    
C87   F4    S    
C60   C62   A    
C36   C37   A    
C37   C40   A    
C69   C70   A    
C110  C121  S    
C23   H79   S    
C5    C6    A    
C94   H37   S    
C53   C64   S    
C86   C88   D    
O21   Zn4   S    
C79   H8    S    
C26   H84   S    
C106  C107  A    
C17   H62   S    
C15   C16   S    
C97   O5    A    
C83   H36   S    
C52   C97   S    
C39   C123  A    
C108  C109  A    
C22   H72   S    
C100  O9    A    
C10   C40   S    
C73   C74   A    
O7    Zn6   S    
C108  C114  A    
C25   H77   S    
C117  F6    S    
C118  C119  A    
C20   H66   S    
C62   C64   A    
O17   Zn3   S    
C68   C69   A    
O23   Zn4   S    
C29   H86   S    
C84   H11   S    
C35   C36   A    
C45   C56   S    
C119  H26   S    
C115  C117  A    
C112  H21   S    
C48   H34   S    
C17   C18   S    
C100  O8    A    
C11   H43   S    
C39   C75   A    
C37   H12   S    
O1    Zn1   S    
C43   C48   A    
C60   H2    S    
O20   Zn3   S    
C49   F2    S    
C71   H7    S    
C124  H29   S    
C107  H17   S    
C49   C52   A    
C69   H6    S    
C54   H78   S    
C66   C67   A    
C26   H85   S    
C12   H52   S    
C59   C60   A    
C98   C109  S    
C21   C22   S    
C18   H59   S    
C27   H81   S    
O12   Zn4   S    
C118  H25   S    
C102  C103  A    
C67   C78   S    
C65   H3    S    
C46   H56   S    
C44   H45   S    
C112  C113  A    
C14   H48   S    
O22   Zn3   S    
C81   C82   A    
C87   C99   A    
C88   H14   S    
C29   H88   S    
C63   O15   A    
C91   O17   A    
C30   C120  S    
C9    C50   A    
C111  C123  A    
C67   C68   A    
O9    Zn6   S    
C103  C114  S    
C84   C85   A    
C126  F7    S    
C82   H10   S    
C9    C93   S    
C16   H54   S    
C43   F1    S    
C71   C73   A    
C97   O3    A    
C8    C9    A    
C58   C59   A    
C77   C78   A    
C83   C94   A    
C8    F8    S    
C63   O16   A    
C19   H68   S    
O18   Zn3   S    
C13   C24   A    
C61   H33   S    
C7    C116  S    
C95   O22   A    
C25   H75   S    
C43   C44   A    
C24   C32   A    
C20   H65   S    
C17   C62   S    
C65   C70   A    
C1    O1    A    
C47   C48   A    
C66   H4    S    
C91   O12   A    
C1    O4    A    
C28   H90   S    
C80   H9    S    
C99   C111  A    
C61   C116  A    
C19   H69   S    
C33   C34   A    
C26   C27   S    
C4    C122  A    
O8    Zn5   S    
C50   C125  S    
C46   C47   A    
C52   C53   A    
C76   C77   A    
C17   H63   S    
C2    C13   A    
C102  H19   S    
C20   H64   S    
C88   C100  S    
C30   H95   S    
C3    H30   S    
C16   H53   S    
C41   H23   S    
C90   F5    S    
C61   C72   A    
C75   C87   A    
C40   C41   A    
C12   C14   S    
C27   H83   S    
C6    C96   S    
C13   C92   S    
O2    Zn6   S    
C27   H82   S    
C15   C58   S    
C5    C50   A    
C12   C75   S    
C73   C95   S    
C122  C124  A    
C3    C4    A    
C89   C90   D    
C111  H16   S    
O4    Zn2   S    
C79   C85   A    
C93   O20   A    
C21   H74   S    
C57   C64   A    
C113  C114  A    
C63   C77   S    
C38   O11   A    
C2    H32   S    
C54   C55   A    
C28   C29   S    
O10   Zn1   S    
C91   C113  S    
C23   C81   S    
O11   Zn2   S    
C18   H61   S    
C35   H40   S    
C51   O13   A    
C44   C45   A    
C80   C81   A    
C68   H5    S    
C86   C89   S    
C28   H91   S    
C14   H50   S    
C119  C120  A    
C53   C54   A    
C6    C7    A    
C123  H24   S    
C49   C56   A    
C34   C99   S    
C15   H57   S    
C101  H18   S    
C82   C84   A    
C33   C38   S    
C122  H28   S    
C22   H70   S    
C10   H46   S    
C72   H35   S    
C21   H73   S    
C19   C20   S    
C59   F3    S    
C1    C55   S    
C96   O24   A    
C51   C90   S    
C109  C110  A    
C32   C33   A    
O6    Zn5   S    
C30   H96   S    
C57   C58   A    
C30   C31   S    
C32   H39   S    
O16   Zn2   S    
O24   Zn5   S    
C28   C108  S    
C12   H51   S    
C89   H15   S    
C35   C42   A    
C5    H31   S    
C96   O2    A    
C74   C85   S    
C25   H76   S    
C2    C34   A    
C110  C112  A    
C72   C83   A    
C10   C11   S    
C95   O23   A    
C38   O10   A    
C79   C80   A    
C45   C46   A    
C23   C25   S    
C98   O6    A    
C22   H71   S    
C36   H41   S    
C65   C66   A    
O14   Zn2   S    
C31   H92   S    
C103  C104  A    
C10   H47   S    
C4    H27   S    
C19   C70   S    
C57   H89   S    
O5    Zn6   S    
C31   H94   S    
C11   H44   S    
C16   H55   S    
C71   C78   A    
C93   O21   A    
C124  C125  A    
C23   H80   S    
