data_mof_unit_40000.cif
_audit_creation_date              2013-03-05T15:51:18-0500
_audit_creation_method            fapswitch 2.2
_symmetry_space_group_name_H-M    P1
_symmetry_Int_Tables_number       1
_space_group_crystal_system       triclinic
_cell_length_a                    8.671171
_cell_length_b                    17.279574
_cell_length_c                    17.364657
_cell_angle_alpha                 97.31393
_cell_angle_beta                  97.199951
_cell_angle_gamma                 98.128882
_cell_volume                      2527.35396791

loop_
_atom_site_label
_atom_site_type_symbol
_atom_site_description
_atom_site_fract_x
_atom_site_fract_y
_atom_site_fract_z
_atom_type_partial_charge
P1    P     P_3+3 0.996700 0.679700 0.572930 0.494115
O1    O     O_2   0.169780 0.691990 0.551040 -0.336540
O2    O     O_3   0.896620 0.594010 0.545570 -0.386153
O3    O     O_3   0.384860 0.644020 0.410190 -0.303872
O4    O     O_2   0.415503 0.757327 0.533001 -0.377389
O5    O     O_3   0.032805 0.698778 0.675882 -0.554939
O6    O     O_3   0.325558 0.799738 0.398636 -0.414608
C1    C     C_3   0.332659 0.905407 0.320214 -0.848374
H1    H     H_    0.207588 0.901782 0.329486 0.270816
H2    H     H_    0.400075 0.957613 0.360463 0.289355
P2    P     P_3+3 0.328720 0.438370 0.322170 0.507002
P3    P     P_3+3 0.897614 0.588853 0.264084 0.653876
O7    O     O_2   0.160250 0.462050 0.312130 -0.340676
O8    O     O_3   0.957280 0.604490 0.369120 -0.326794
O9    O     O_2   0.997119 0.527620 0.235059 -0.316611
O10   O     O_3   0.289386 0.335765 0.297351 -0.528219
O11   O     O_3   0.972271 0.665955 0.213188 -0.495173
C2    C     C_3   0.887167 0.730496 0.204826 0.998344
C3    C     C_3   0.000833 0.796464 0.178994 0.069371
H3    H     H_    0.102688 0.813582 0.224981 0.034597
C4    C     C_3   0.653551 0.278994 0.279897 0.727348
H4    H     H_    0.563312 0.312788 0.300109 0.028498
C5    C     C_3   0.673587 0.292611 0.195199 0.059874
H5    H     H_    0.768734 0.261299 0.175853 0.139299
H6    H     H_    0.714082 0.356741 0.196159 0.025961
Ba1   Ba    Ba6+2 0.160000 0.538340 0.465920 1.722157
C6    C     C_3   0.056040 0.629570 0.706847 0.301243
H7    H     H_    0.164293 0.610004 0.689199 0.074998
H8    H     H_    0.954120 0.581809 0.685571 0.130972
C7    C     C_3   0.069479 0.645456 0.796633 -0.706217
H9    H     H_    0.056961 0.588942 0.820450 0.135167
H10   H     H_    0.971697 0.675391 0.813971 0.251185
C8    C     C_3   0.218340 0.300782 0.354770 0.350372
H11   H     H_    0.122368 0.331892 0.372713 0.106168
H12   H     H_    0.308513 0.300751 0.406164 0.104384
C9    C     C_3   0.147961 0.215913 0.319739 -0.740433
H13   H     H_    0.049445 0.215628 0.272176 0.274033
H14   H     H_    0.103342 0.182757 0.364920 0.192817
H15   H     H_    0.238342 0.185217 0.294707 0.304607
P4    P     P_3+3 0.813590 0.320290 0.427010 0.522090
O12   O     O_2   0.640500 0.307960 0.448930 -0.345643
O13   O     O_3   0.913680 0.405980 0.454370 -0.387326
O14   O     O_3   0.425430 0.355970 0.589750 -0.387083
O15   O     O_3   0.802617 0.310006 0.324106 -0.645782
P5    P     P_3+3 0.883939 0.393903 0.732535 0.494846
O16   O     O_3   0.389690 0.539950 0.593560 -0.308263
O17   O     O_3   0.853010 0.395500 0.630820 -0.364936
O18   O     O_2   0.787480 0.455448 0.765383 -0.360068
O19   O     O_3   0.772775 0.305648 0.752097 -0.604228
Ba2   Ba    Ba6+2 0.650170 0.461650 0.534010 1.668115
P6    P     P_3+3 0.451228 0.744973 0.448124 0.609669
C10   C     C_3   0.397226 0.830015 0.337177 0.345620
H16   H     H_    0.525952 0.848799 0.353102 0.098726
H17   H     H_    0.344015 0.916893 0.259459 0.233454
O20   O     O_3   0.420600 0.460050 0.406370 -0.402316
C11   C     C_3   0.627623 0.703623 0.731216 0.156086
H18   H     H_    0.720333 0.673585 0.758626 0.091166
C12   C     C_3   0.622625 0.780311 0.786339 0.014322
H19   H     H_    0.608018 0.764995 0.845527 0.146869
H20   H     H_    0.518052 0.806524 0.765241 0.138109
P7    P     P_3+3 0.475082 0.556251 0.692844 0.506311
O21   O     O_2   0.650040 0.537900 0.687840 -0.345894
O22   O     O_3   0.477772 0.657696 0.722850 -0.620915
H21   H     H_    0.945990 0.850240 0.173941 0.141908
C13   C     C_3   0.855189 0.241429 0.762490 0.542012
H22   H     H_    0.957467 0.253422 0.738570 0.168508
C14   C     C_3   0.893476 0.232776 0.851983 0.077418
H23   H     H_    0.001770 0.272908 0.879277 0.135372
H24   H     H_    0.808564 0.255678 0.887293 0.110055
P8    P     P_3+3 0.388146 0.253159 0.579482 0.566338
C15   C     C_3   0.429716 0.272025 0.735394 0.747814
O23   O     O_2   0.489888 0.220685 0.520342 -0.310354
O24   O     O_3   0.456644 0.220920 0.669471 -0.508220
H25   H     H_    0.479365 0.333967 0.730711 0.039239
C16   C     C_3   0.500505 0.252659 0.817484 0.063560
H26   H     H_    0.603535 0.229319 0.808441 0.125661
C17   C     C_2   0.774324 0.731399 0.482872 -0.129015
C18   C     C_3   0.665598 0.788079 0.459774 0.236826
C19   C     C_2   0.716233 0.871368 0.505933 -0.292667
C20   C     C_2   0.872429 0.895821 0.528185 0.035063
C21   C     C_2   0.976379 0.834386 0.541968 -0.157202
C22   C     C_1   0.910720 0.757804 0.528384 0.152568
C23   C     C_R   0.117964 0.140018 0.525746 -0.269000
C24   C     C_R   0.180177 0.219781 0.535243 0.299006
C25   C     C_R   0.928287 0.249237 0.473919 0.233844
C26   C     C_R   0.866817 0.168376 0.467333 -0.176745
C27   C     C_R   0.959410 0.114028 0.495064 0.146880
C28   C     C_2   0.937792 0.982052 0.539998 -0.038686
C29   C     C_2   0.890982 0.029494 0.488348 -0.158305
C30   C     C_R   0.084700 0.274516 0.510621 -0.411413
H27   H     H_    0.798229 0.005607 0.439549 0.136595
H28   H     H_    0.193837 0.098484 0.542579 0.175472
H29   H     H_    0.027003 0.006030 0.590049 0.191852
H30   H     H_    0.745845 0.147429 0.443090 0.219241
H31   H     H_    0.749640 0.671490 0.451479 0.154872
H32   H     H_    0.134635 0.336425 0.517356 0.158545
H33   H     H_    0.524512 0.532319 0.859485 0.160803
C31   C     C_R   0.594812 0.521637 0.278297 -0.403258
C32   C     C_R   0.439241 0.485663 0.253282 0.284666
C33   C     C_R   0.378147 0.473643 0.173700 -0.103170
C34   C     C_R   0.477439 0.488755 0.118036 0.055352
C35   C     C_R   0.642024 0.510998 0.142082 -0.192607
C36   C     C_R   0.696949 0.536332 0.223917 0.242767
C37   C     C_R   0.404584 0.505484 0.835673 -0.303959
C38   C     C_R   0.353461 0.500121 0.755020 0.215512
C39   C     C_R   0.090883 0.438071 0.775056 0.307530
C40   C     C_R   0.141602 0.448534 0.856186 -0.189534
C41   C     C_R   0.299648 0.479440 0.886166 0.079965
C42   C     C_1   0.356306 0.482151 0.968462 0.010055
C43   C     C_1   0.408535 0.484019 0.036689 0.064677
C44   C     C_R   0.196553 0.466302 0.725378 -0.347473
H34   H     H_    0.060568 0.428921 0.895057 0.154572
H35   H     H_    0.254906 0.449418 0.154925 0.156747
H36   H     H_    0.639342 0.534405 0.340426 0.152009
H37   H     H_    0.155170 0.463480 0.663474 0.143485
C45   C     C_2   0.371487 0.769405 0.264386 0.625846
H38   H     H_    0.418297 0.784934 0.212360 0.113597
O25   O     O_2   0.300874 0.702823 0.263060 -0.474089
S1    S     S_3+6 0.503606 0.264253 0.121436 0.033536
O26   O     O_2   0.512795 0.320030 0.062062 -0.350073
O27   O     O_2   0.504238 0.182246 0.080827 -0.106666
O28   O     O_3   0.335626 0.266683 0.159522 -0.497308
H39   H     H_    0.251542 0.257105 0.113618 0.392423
C46   C     C_2   0.224237 0.693731 0.834083 0.781540
H40   H     H_    0.329837 0.666877 0.837393 -0.019314
O29   O     O_2   0.231917 0.762466 0.863350 -0.513122
C47   C     C_2   0.659485 0.720038 0.651759 0.645663
H41   H     H_    0.702486 0.779013 0.641078 -0.016240
O30   O     O_2   0.637136 0.665760 0.597506 -0.558927
S2    S     S_3+6 0.793592 0.854741 0.796460 -0.022024
O31   O     O_2   0.768939 0.908165 0.735650 -0.327821
O32   O     O_2   0.816394 0.902326 0.876880 -0.152605
O33   O     O_3   0.955188 0.814188 0.784708 -0.523095
H42   H     H_    0.035520 0.858424 0.777454 0.395596
S3    S     S_3+6 0.760018 0.151833 0.697038 0.044669
O34   O     O_2   0.866992 0.091114 0.690625 -0.241851
O35   O     O_2   0.611560 0.113730 0.721775 -0.208570
O36   O     O_3   0.717072 0.175048 0.607160 -0.464434
H43   H     H_    0.778536 0.228104 0.608420 0.346523
S4    S     S_3+6 0.910441 0.136186 0.877995 0.154460
O37   O     O_2   0.020754 0.096202 0.832610 -0.140210
O38   O     O_2   0.974281 0.146173 0.963813 -0.179683
O39   O     O_3   0.734088 0.077928 0.863642 -0.399197
H44   H     H_    0.741151 0.033473 0.823107 0.424774
S5    S     S_3+6 0.231666 0.265703 0.735371 -0.116146
O40   O     O_2   0.208813 0.302872 0.814427 -0.428377
O41   O     O_2   0.158828 0.308660 0.674532 -0.432037
O42   O     O_3   0.148495 0.170234 0.719040 -0.445100
H45   H     H_    0.203167 0.143230 0.679656 0.369602
S6    S     S_3+6 0.407441 0.173409 0.862805 0.124353
O43   O     O_2   0.528837 0.155727 0.924764 -0.173520
O44   O     O_2   0.275109 0.198065 0.902966 -0.166255
O45   O     O_3   0.343991 0.090793 0.797803 -0.426416
H46   H     H_    0.324549 0.048027 0.830016 0.399833
C48   C     C_2   0.539706 0.326420 0.877799 0.454533
H47   H     H_    0.454694 0.341449 0.915423 0.137521
O46   O     O_2   0.664717 0.370698 0.884209 -0.593336
S7    S     S_3+6 0.835634 0.770791 0.296240 -0.109122
O47   O     O_2   0.697570 0.716415 0.313442 -0.388215
O48   O     O_2   0.973018 0.776682 0.359882 -0.327459
O49   O     O_3   0.785419 0.860876 0.291558 -0.592183
H48   H     H_    0.880004 0.898979 0.316710 0.351068
C49   C     C_2   0.141920 0.859883 0.581119 0.683754
H49   H     H_    0.195590 0.826453 0.622790 0.047008
O50   O     O_2   0.220823 0.919452 0.567643 -0.539538
C50   C     C_2   0.606521 0.925604 0.531025 0.623083
H50   H     H_    0.644309 0.970028 0.582605 0.122725
O51   O     O_2   0.477131 0.923883 0.494397 -0.518571
S8    S     S_3+6 0.711005 0.709705 0.131796 0.015421
O52   O     O_2   0.574181 0.666259 0.161926 -0.313689
O53   O     O_2   0.666423 0.786932 0.112986 -0.230821
O54   O     O_3   0.742109 0.658050 0.048084 -0.506288
H51   H     H_    0.641354 0.651604 0.012247 0.355880
C51   C     C_2   0.747537 0.503708 0.080551 0.667017
H52   H     H_    0.699627 0.472919 0.022272 0.038822
O55   O     O_2   0.886958 0.531414 0.092304 -0.483906
S9    S     S_3+6 0.075250 0.770164 0.088672 0.085042
O56   O     O_2   0.228570 0.823307 0.089453 -0.232079
O57   O     O_2   0.102459 0.685688 0.079558 -0.190586
O58   O     O_3   0.946904 0.783657 0.012408 -0.409149
H53   H     H_    0.990155 0.763265 0.965083 0.393046
S10   S     S_3+6 0.599266 0.174954 0.285908 -0.013020
O59   O     O_2   0.523189 0.166303 0.357997 -0.330751
O60   O     O_2   0.483411 0.132709 0.216815 -0.194021
O61   O     O_3   0.761545 0.131807 0.289947 -0.563811
H54   H     H_    0.725013 0.076555 0.297065 0.373616

loop_
_geom_bond_atom_site_label_1
_geom_bond_atom_site_label_2
_geom_bond_distance
_ccdc_geom_bond_type
S3    O36   1.670731 S    
C23   C27   1.398792 A    
C19   C20   1.351914 D    
C34   C35   1.418961 A    
O33   H42   0.990600 S    
C6    H8    1.110361 S    
S8    O53   1.504020 D    
C40   H34   1.083489 S    
C3    H3    1.092892 S    
S4    O39   1.679040 S    
Ba1   O20   3.016578 S    
C21   C22   1.343401 D    
S3    O34   1.498337 D    
C17   C18   1.508421 S    
C11   H18   1.107791 S    
C23   H28   1.082626 S    
O19   C13   1.420412 S    
C23   C24   1.388308 A    
C9    H13   1.110323 S    
C49   O50   1.218471 D    
S4    O38   1.502546 D    
O6    C10   1.419620 S    
C2    C3    1.547682 S    
C10   C45   1.506805 S    
Ba1   Ba2   4.685253 S    
C5    S1    1.793298 S    
C7    H9    1.104791 S    
S1    O28   1.677050 S    
C48   O46   1.219155 D    
C39   C40   1.402920 A    
C16   S6    1.807450 S    
C12   H20   1.112096 S    
C31   C36   1.395562 A    
C8    C9    1.523081 S    
C41   C42   1.444359 S    
P2    C32   1.825369 S    
P1    O1    1.586007 D    
S8    O52   1.499551 D    
C11   C47   1.494496 S    
P7    O22   1.760012 S    
S10   O59   1.500425 D    
C26   H30   1.073171 S    
S7    O49   1.683538 S    
C51   H52   1.083886 S    
S7    O48   1.502621 D    
O5    C6    1.401634 S    
C45   O25   1.220493 D    
C1    H1    1.110468 S    
S9    O57   1.503129 D    
S6    O45   1.681275 S    
P3    O11   1.781695 S    
C40   C41   1.406316 A    
C29   H27   1.086982 S    
P8    C24   1.849491 S    
C1    C10   1.536218 S    
P4    O13   1.589182 S    
C38   C44   1.407346 A    
O45   H46   0.990484 S    
C4    H4    1.105586 S    
C6    C7    1.534976 S    
C50   O51   1.212885 D    
C21   C49   1.488975 S    
C50   H50   1.085864 S    
P7    O21   1.603662 D    
C24   C30   1.413649 A    
C37   C38   1.402215 A    
S5    O41   1.493640 D    
O2    Ba2   2.869043 S    
S5    O40   1.488632 D    
O17   Ba2   2.746414 S    
S10   O60   1.499675 D    
C39   C44   1.414412 A    
P5    O17   1.757295 S    
S4    O37   1.500217 D    
C4    S10   1.812521 S    
P7    C38   1.865835 S    
O3    P6    1.771058 S    
C14   H23   1.099054 S    
C7    H10   1.107011 S    
C8    H11   1.107909 S    
O42   H45   0.986292 S    
P3    C36   1.850879 S    
C1    H17   1.111729 S    
C15   O24   1.418685 S    
C18   C19   1.531627 S    
O16   P7    1.759906 S    
P2    Ba1   3.447826 S    
C13   C14   1.578430 S    
C12   H19   1.111232 S    
C25   C26   1.408152 A    
C17   H31   1.085817 S    
P1    O5    1.755891 S    
P1    O2    1.589149 S    
S10   O61   1.681104 S    
P4    C25   1.885987 S    
S2    O32   1.502582 D    
C16   H26   1.051855 S    
C47   O30   1.217619 D    
C2    S7    1.785667 S    
O10   C8    1.393253 S    
C4    O15   1.413466 S    
C44   H37   1.082445 S    
P2    O10   1.744441 S    
C32   C33   1.394911 A    
P3    O9    1.532792 D    
P5    O19   1.780011 S    
C3    H21   1.110216 S    
S1    O26   1.500048 D    
S9    O58   1.682040 S    
P8    O24   1.785361 S    
O11   C2    1.434065 S    
C11   O22   1.403933 S    
O1    Ba1   2.854243 S    
C10   H16   1.106823 S    
O8    Ba1   2.745666 S    
C14   S4    1.804443 S    
C34   C43   1.450579 S    
C13   S3    1.823526 S    
S1    O27   1.501350 D    
O13   Ba2   3.022206 S    
P4    O12   1.586308 D    
C15   S5    1.705248 S    
P3    O8    1.807148 S    
S9    O56   1.502655 D    
O14   P8    1.742076 S    
C4    C5    1.545722 S    
P1    Ba1   3.450574 S    
Ba2   O21   2.824253 S    
S8    O54   1.678829 S    
S6    O44   1.499235 D    
O7    Ba1   2.824068 S    
S2    O33   1.676020 S    
C13   H22   1.031647 S    
C47   H41   1.081624 S    
O12   Ba2   2.854720 S    
C37   C41   1.408515 A    
S5    O42   1.677818 S    
P2    O20   1.548215 S    
P5    C39   1.866754 S    
Ba1   O13   2.868363 S    
C46   O29   1.220169 D    
P5    O18   1.540325 D    
S3    O35   1.498699 D    
C3    S9    1.799427 S    
C28   H29   1.083783 S    
C26   C27   1.410631 A    
C9    H15   1.108489 S    
C33   H35   1.083943 S    
C7    C46   1.498700 S    
C20   C21   1.509265 S    
C15   H25   1.112746 S    
O3    Ba1   2.826461 S    
C25   C30   1.407622 A    
O14   Ba2   2.825883 S    
C30   H32   1.081675 S    
C35   C51   1.495969 S    
O2    Ba1   3.021329 S    
O16   Ba2   3.015778 S    
Ba2   O20   2.781876 S    
H33   C37   1.083717 S    
C27   C29   1.481055 S    
S2    O31   1.503445 D    
P1    C22   1.838860 S    
P6    C18   1.877983 S    
O6    P6    1.756523 S    
C20   C28   1.495906 S    
O49   H48   0.990558 S    
C42   C43   1.208886 T    
C2    S8    1.820404 S    
C15   C16   1.575097 S    
P2    O7    1.566914 D    
O61   H54   0.990699 S    
S7    O47   1.499433 D    
C17   C22   1.323946 D    
C12   S2    1.794634 S    
P4    Ba2   3.451089 S    
C9    H14   1.105119 S    
C33   C34   1.397511 A    
C8    H12   1.110477 S    
C11   C12   1.541990 S    
C45   H38   1.084322 S    
C5    H6    1.111456 S    
C19   C50   1.491718 S    
C35   C36   1.432075 A    
C51   O55   1.217367 D    
C49   H49   1.082546 S    
C31   H36   1.082861 S    
O36   H43   0.989365 S    
Ba1   O16   2.782481 S    
C5    H5    1.111628 S    
O54   H51   0.990710 S    
C16   C48   1.511724 S    
P4    O15   1.762202 S    
C28   C29   1.353227 D    
C1    H2    1.109921 S    
C31   C32   1.393582 A    
C48   H47   1.081364 S    
S6    O43   1.499911 D    
O4    P6    1.538444 D    
P8    O23   1.538889 D    
C14   H24   1.099296 S    
O28   H39   0.990442 S    
O58   H53   0.990467 S    
O39   H44   0.987770 S    
C46   H40   1.082055 S    
C6    H7    1.106713 S    
