data_mof_unit_22157.cif
_audit_creation_date              2013-03-05T15:44:39-0500
_audit_creation_method            fapswitch 2.2
_symmetry_space_group_name_H-M    P1
_symmetry_Int_Tables_number       1
_space_group_crystal_system       triclinic
_cell_length_a                    18.956358
_cell_length_b                    10.904236
_cell_length_c                    18.866779
_cell_angle_alpha                 90.04386
_cell_angle_beta                  90.012557
_cell_angle_gamma                 90.150096
_cell_volume                      3899.83541193

loop_
_atom_site_label
_atom_site_type_symbol
_atom_site_description
_atom_site_fract_x
_atom_site_fract_y
_atom_site_fract_z
_atom_type_partial_charge
O1    O     O_R   0.787540 0.042690 0.170470 -0.524068
O2    O     O_R   0.212460 0.042690 0.829530 -0.529553
O3    O     O_R   0.287540 0.542690 0.170470 -0.528588
O4    O     O_R   0.712460 0.542690 0.829530 -0.536244
O5    O     O_R   0.765660 0.292160 0.175050 -0.484680
O6    O     O_R   0.234340 0.292160 0.824950 -0.491026
O7    O     O_R   0.265660 0.792160 0.175050 -0.486480
O8    O     O_R   0.734340 0.792160 0.824950 -0.480424
C1    C     C_R   0.729700 0.375590 0.145314 0.564732
C2    C     C_R   0.270396 0.376137 0.854688 0.559787
C3    C     C_R   0.230020 0.876144 0.145621 0.563089
C4    C     C_R   0.788319 0.829963 0.861542 0.563063
O9    O     O_R   0.670190 0.408980 0.168550 -0.524818
O10   O     O_R   0.329810 0.408980 0.831450 -0.525061
O11   O     O_R   0.170190 0.908980 0.168550 -0.525431
O12   O     O_R   0.829810 0.908980 0.831450 -0.506737
O13   O     O_R   0.556580 0.251450 0.175160 -0.519211
O14   O     O_R   0.443420 0.251450 0.824840 -0.518937
O15   O     O_R   0.056580 0.751450 0.175160 -0.521216
O16   O     O_R   0.943420 0.751450 0.824840 -0.539477
C5    C     C_R   0.529821 0.155370 0.147216 0.560886
C6    C     C_R   0.469458 0.155070 0.853415 0.559934
C7    C     C_R   0.030945 0.655630 0.146346 0.566953
C8    C     C_R   0.970331 0.654758 0.852621 0.546072
O17   O     O_R   0.545920 0.049510 0.170320 -0.442329
O18   O     O_R   0.454080 0.049510 0.829680 -0.435543
O19   O     O_R   0.045920 0.549510 0.170320 -0.437130
O20   O     O_R   0.954080 0.549510 0.829680 -0.436067
O21   O     O_R   0.681390 0.957840 0.176710 -0.496526
O22   O     O_R   0.318610 0.957840 0.823290 -0.487243
O23   O     O_R   0.181390 0.457840 0.176710 -0.494351
O24   O     O_R   0.818610 0.457840 0.823290 -0.488920
C9    C     C_R   0.742088 0.967093 0.147993 0.542184
C10   C     C_R   0.259220 0.972525 0.853784 0.542274
C11   C     C_R   0.241270 0.470389 0.146929 0.542941
C12   C     C_R   0.758756 0.471098 0.853248 0.537033
O25   O     O_R   0.787500 0.044280 0.330990 -0.529979
O26   O     O_R   0.212500 0.044280 0.669010 -0.527450
O27   O     O_R   0.287500 0.544280 0.330990 -0.527737
O28   O     O_R   0.712500 0.544280 0.669010 -0.528643
O29   O     O_R   0.765610 0.293630 0.323860 -0.501619
O30   O     O_R   0.234390 0.293630 0.676140 -0.503386
O31   O     O_R   0.265610 0.793630 0.323860 -0.503161
O32   O     O_R   0.734390 0.793630 0.676140 -0.497126
C13   C     C_R   0.729989 0.379184 0.352250 0.551267
C14   C     C_R   0.269914 0.379316 0.647813 0.550191
C15   C     C_R   0.230102 0.879299 0.352168 0.550404
C16   C     C_R   0.769949 0.879195 0.647782 0.561246
O33   O     O_R   0.670140 0.410570 0.329080 -0.527964
O34   O     O_R   0.329860 0.410570 0.670920 -0.523979
O35   O     O_R   0.170140 0.910570 0.329080 -0.524296
O36   O     O_R   0.829860 0.910570 0.670920 -0.522147
O37   O     O_R   0.556540 0.252920 0.323970 -0.510555
O38   O     O_R   0.443460 0.252920 0.676030 -0.505908
O39   O     O_R   0.056540 0.752920 0.323970 -0.505374
O40   O     O_R   0.943460 0.752920 0.676030 -0.509714
C17   C     C_R   0.531785 0.157662 0.353266 0.548188
C18   C     C_R   0.464445 0.156536 0.644400 0.548707
C19   C     C_R   0.035585 0.656470 0.355615 0.549377
C20   C     C_R   0.968225 0.657760 0.646741 0.548077
O41   O     O_R   0.545870 0.051100 0.330840 -0.517478
O42   O     O_R   0.454130 0.051100 0.669160 -0.522260
O43   O     O_R   0.045870 0.551100 0.330840 -0.522055
O44   O     O_R   0.954130 0.551100 0.669160 -0.516798
O45   O     O_R   0.681340 0.959300 0.325510 -0.505641
O46   O     O_R   0.318660 0.959300 0.674490 -0.511074
O47   O     O_R   0.181340 0.459300 0.325510 -0.511125
O48   O     O_R   0.818660 0.459300 0.674490 -0.502751
C21   C     C_R   0.740599 0.974777 0.355936 0.544474
C22   C     C_R   0.259360 0.974807 0.644075 0.543834
C23   C     C_R   0.240639 0.474625 0.355901 0.544267
C24   C     C_R   0.759278 0.474436 0.644208 0.547045
Cr1   Cr    Cr6+3 0.772000 0.169640 0.250110 1.044957
Cr2   Cr    Cr6+3 0.228000 0.169640 0.749890 1.036553
Cr3   Cr    Cr6+3 0.272000 0.669640 0.250110 1.040922
Cr4   Cr    Cr6+3 0.728000 0.669640 0.749890 1.038287
Cr5   Cr    Cr6+3 0.614960 0.323350 0.249260 1.016186
Cr6   Cr    Cr6+3 0.385040 0.323350 0.750740 1.019319
Cr7   Cr    Cr6+3 0.114960 0.823350 0.249260 1.016544
Cr8   Cr    Cr6+3 0.885040 0.823350 0.750740 1.013998
Cr9   Cr    Cr6+3 0.616670 0.010620 0.250840 1.066321
Cr10  Cr    Cr6+3 0.383330 0.010620 0.749160 1.069931
Cr11  Cr    Cr6+3 0.116670 0.510620 0.250840 1.065025
Cr12  Cr    Cr6+3 0.883330 0.510620 0.749160 1.068100
O49   O     O_3   0.667880 0.167870 0.250070 -0.257551
O50   O     O_3   0.332120 0.167870 0.749930 -0.259691
O51   O     O_3   0.167880 0.667870 0.250070 -0.259628
O52   O     O_3   0.832120 0.667870 0.749930 -0.279050
C25   C     C_R   0.499312 0.161051 0.926184 -0.049686
C26   C     C_R   0.497242 0.163171 0.075782 -0.050952
C27   C     C_R   0.003307 0.659256 0.923876 -0.048180
C28   C     C_R   0.001935 0.664511 0.073362 -0.050656
C29   C     C_R   0.503271 0.274365 0.963006 -0.018062
C30   C     C_R   0.497207 0.275699 0.037925 -0.016544
C31   C     C_R   0.012237 0.772192 0.959401 -0.032397
C32   C     C_R   0.006815 0.776350 0.034335 -0.022018
C33   C     C_R   0.490025 0.051760 0.038278 0.181878
C34   C     C_R   0.500577 0.049903 0.965126 0.184767
C35   C     C_R   0.993005 0.552648 0.036478 0.180205
C36   C     C_R   0.003248 0.548812 0.963337 0.186373
C37   C     C_R   0.514436 0.386696 0.927185 -0.072964
C38   C     C_R   0.490383 0.389979 0.072761 -0.073776
C39   C     C_R   0.027345 0.881217 0.921781 -0.086198
C40   C     C_R   0.005358 0.892938 0.067494 -0.085306
C41   C     C_R   0.029753 0.993929 0.956459 -0.117416
C42   C     C_R   0.017106 0.000041 0.028875 -0.128107
C43   C     C_R   0.511570 0.498034 0.963382 -0.123266
C44   C     C_R   0.497727 0.499749 0.035677 -0.126718
H1    H     H_    0.527456 0.389510 0.871425 0.137255
H2    H     H_    0.477317 0.395740 0.128438 0.136578
H3    H     H_    0.038587 0.879858 0.865573 0.139213
H4    H     H_    0.991870 0.903856 0.122729 0.139127
H5    H     H_    0.040369 0.076965 0.926865 0.158679
H6    H     H_    0.016372 0.088115 0.055325 0.170461
H7    H     H_    0.519467 0.583303 0.935091 0.162645
H8    H     H_    0.493171 0.586384 0.063287 0.168069
C45   C     C_R   0.702160 0.850800 0.041484 -0.129841
C46   C     C_R   0.295463 0.853259 0.959883 -0.113062
C47   C     C_R   0.198247 0.363832 0.038747 -0.128928
C48   C     C_R   0.796219 0.353411 0.959552 -0.108482
H9    H     H_    0.650779 0.836030 0.064847 0.183507
H10   H     H_    0.329576 0.795544 0.928268 0.161072
H11   H     H_    0.155873 0.320257 0.067836 0.168697
H12   H     H_    0.832965 0.299761 0.928581 0.177113
C49   C     C_R   0.712397 0.822236 0.970216 -0.109966
C50   C     C_R   0.293437 0.838615 0.033070 -0.075324
C51   C     C_R   0.200907 0.352198 0.965372 -0.100385
C52   C     C_R   0.793961 0.339362 0.032813 -0.075142
H13   H     H_    0.668840 0.784451 0.940262 0.179328
H14   H     H_    0.324291 0.766184 0.056878 0.162468
H15   H     H_    0.162499 0.294767 0.938997 0.173509
H16   H     H_    0.826958 0.270354 0.057280 0.176821
C53   C     C_R   0.777180 0.848968 0.937482 0.019799
C54   C     C_R   0.248670 0.912719 0.074294 0.049183
C55   C     C_R   0.254524 0.411346 0.927047 0.035568
C56   C     C_R   0.746804 0.410194 0.073257 0.043619
C57   C     C_R   0.832906 0.895223 0.978058 -0.131803
C58   C     C_R   0.208792 0.004622 0.042423 -0.129686
C59   C     C_R   0.304443 0.483505 0.962490 -0.134017
C60   C     C_R   0.702958 0.495318 0.040154 -0.129168
H17   H     H_    0.883496 0.914456 0.954168 0.157268
H18   H     H_    0.173918 0.062855 0.073006 0.135422
H19   H     H_    0.346740 0.530213 0.934748 0.150758
H20   H     H_    0.665604 0.550277 0.069798 0.146105
C61   C     C_R   0.822823 0.923553 0.048797 -0.127243
C62   C     C_R   0.209354 0.016610 0.970044 -0.125004
C63   C     C_R   0.303915 0.489926 0.034907 -0.133936
C64   C     C_R   0.702767 0.504505 0.967769 -0.132694
H21   H     H_    0.865695 0.966283 0.077561 0.141225
H22   H     H_    0.176481 0.086892 0.947143 0.134915
H23   H     H_    0.344561 0.544792 0.059959 0.143413
H24   H     H_    0.666383 0.568967 0.944275 0.140080
C65   C     C_R   0.756555 0.906574 0.080321 0.016255
C66   C     C_R   0.252274 0.941072 0.928069 0.022332
C67   C     C_R   0.250062 0.432766 0.073773 0.020378
C68   C     C_R   0.750223 0.435851 0.926814 0.017568
C69   C     C_R   0.474882 0.062825 0.455493 -0.132306
C70   C     C_R   0.466324 0.059008 0.527801 -0.123994
C71   C     C_R   0.033546 0.559131 0.472180 -0.124406
C72   C     C_R   0.025008 0.563047 0.544488 -0.132866
H25   H     H_    0.464281 0.980492 0.425029 0.131368
H26   H     H_    0.446625 0.974603 0.550725 0.136030
H27   H     H_    0.053118 0.474774 0.449233 0.135848
H28   H     H_    0.035501 0.480816 0.574923 0.131120
C73   C     C_R   0.482064 0.162256 0.569624 0.036275
C74   C     C_R   0.501806 0.168478 0.423694 0.030986
C75   C     C_R   0.998227 0.668624 0.576319 0.030299
C76   C     C_R   0.017956 0.662228 0.430388 0.035787
C77   C     C_R   0.503707 0.271628 0.537501 -0.135576
C78   C     C_R   0.514137 0.274548 0.464499 -0.130385
C79   C     C_R   0.986045 0.774560 0.535547 -0.130419
C80   C     C_R   0.996473 0.771556 0.462545 -0.135642
H29   H     H_    0.513776 0.353177 0.568770 0.122016
H30   H     H_    0.535391 0.357191 0.440781 0.133225
H31   H     H_    0.964910 0.857143 0.559290 0.133939
H32   H     H_    0.986531 0.853006 0.431300 0.122427
C81   C     C_R   0.797383 0.008925 0.470348 -0.132783
C82   C     C_R   0.202737 0.008809 0.529656 -0.125201
C83   C     C_R   0.297879 0.507806 0.470177 -0.125582
C84   C     C_R   0.700481 0.503808 0.530537 -0.134361
H33   H     H_    0.835250 0.070454 0.446116 0.129467
H34   H     H_    0.164890 0.069997 0.553929 0.129853
H35   H     H_    0.336114 0.568475 0.445836 0.129368
H36   H     H_    0.661328 0.562100 0.555182 0.128750
C85   C     C_R   0.798065 0.999608 0.542836 -0.138825
C86   C     C_R   0.202210 0.999779 0.457148 -0.130960
C87   C     C_R   0.298484 0.498929 0.542684 -0.131072
C88   C     C_R   0.699868 0.495645 0.458058 -0.138510
H37   H     H_    0.837967 0.050386 0.571820 0.127849
H38   H     H_    0.162455 0.050487 0.428184 0.128755
H39   H     H_    0.338658 0.549239 0.571551 0.128806
H40   H     H_    0.658812 0.544096 0.429619 0.127349
C89   C     C_R   0.751882 0.918633 0.576743 0.032333
C90   C     C_R   0.248296 0.919065 0.423185 0.034033
C91   C     C_R   0.251882 0.418897 0.576764 0.033880
C92   C     C_R   0.747616 0.418550 0.423473 0.034339
C93   C     C_R   0.700325 0.855378 0.537477 -0.130203
C94   C     C_R   0.299697 0.856010 0.462431 -0.139443
C95   C     C_R   0.199986 0.356338 0.537615 -0.139680
C96   C     C_R   0.800512 0.358371 0.462182 -0.130800
H41   H     H_    0.664125 0.792247 0.562859 0.124769
H42   H     H_    0.336005 0.793485 0.436965 0.120466
H43   H     H_    0.163281 0.294369 0.563173 0.119920
H44   H     H_    0.837964 0.298417 0.436270 0.123594
C97   C     C_R   0.697927 0.868319 0.464193 -0.133761
C98   C     C_R   0.301776 0.868327 0.535767 -0.145807
C99   C     C_R   0.197829 0.368563 0.464271 -0.145632
C100  C     C_R   0.802948 0.370654 0.535522 -0.133854
H45   H     H_    0.657762 0.819962 0.434275 0.121057
H46   H     H_    0.341666 0.819774 0.565691 0.113575
H47   H     H_    0.157516 0.320479 0.434428 0.113312
H48   H     H_    0.844367 0.325145 0.564976 0.122399
C101  C     C_R   0.747640 0.943230 0.430234 0.035922
C102  C     C_R   0.252245 0.943146 0.569756 0.037379
C103  C     C_R   0.247789 0.442770 0.430173 0.037519
C104  C     C_R   0.751913 0.441745 0.570079 0.035414
N1    N     N_R   0.473171 0.939772 0.075075 0.114354
O53   O     O_R   0.513756 0.844219 0.069554 -0.345200
O54   O     O_R   0.422386 0.938720 0.121473 -0.356080
N2    N     N_R   0.512630 0.934484 0.930204 0.115263
O55   O     O_R   0.466066 0.846859 0.933849 -0.335845
O56   O     O_R   0.566227 0.922531 0.887704 -0.351106
N3    N     N_R   0.974895 0.441877 0.073796 0.116706
O57   O     O_R   0.016356 0.347056 0.071400 -0.340779
O58   O     O_R   0.922640 0.442309 0.118511 -0.355492
N4    N     N_R   0.013339 0.432315 0.928766 0.113022
O59   O     O_R   0.967641 0.344155 0.936535 -0.330678
O60   O     O_R   0.063289 0.420127 0.882005 -0.364223

loop_
_geom_bond_atom_site_label_1
_geom_bond_atom_site_label_2
_geom_bond_distance
_ccdc_geom_bond_type
C18   O42   1.256164 A    
C95   H43   1.082337 S    
C79   C80   1.391853 A    
O4    C12   1.258494 A    
O47   Cr11  1.950570 S    
C29   C30   1.418250 A    
O39   C19   1.272489 A    
C16   C89   1.449130 S    
O20   Cr12  2.069182 S    
C77   C78   1.391844 A    
C15   C90   1.449254 S    
C93   C97   1.390680 A    
C31   C32   1.418211 A    
C23   C103  1.450338 S    
C48   C68   1.398060 A    
C53   C57   1.397362 A    
C92   C96   1.404733 A    
Cr6   O50   1.967736 S    
C60   C64   1.369416 A    
C40   C42   1.394428 A    
C33   C34   1.394743 A    
C81   C85   1.371511 A    
C14   C91   1.449637 S    
O46   C22   1.273729 A    
O7    C3    1.267763 A    
C59   C63   1.368055 A    
C69   C70   1.374521 A    
C42   H6    1.082081 S    
C72   H28   1.083950 S    
C57   C61   1.383088 A    
C11   C67   1.449372 S    
O25   C21   1.258379 A    
C52   C56   1.407445 A    
C46   H10   1.082467 S    
C48   C52   1.391437 A    
C81   H33   1.082824 S    
O47   C23   1.272357 A    
C83   C87   1.371520 A    
C50   H14   1.081895 S    
C37   H1    1.081061 S    
O21   C9    1.275684 A    
C28   C32   1.427855 A    
O23   Cr11  1.948254 S    
C71   C76   1.405640 A    
C39   H3    1.081809 S    
O30   C14   1.268743 A    
C72   C75   1.394947 A    
O32   Cr4   1.944424 S    
C18   C73   1.451198 S    
C1    O9    1.264692 A    
O44   Cr12  2.067126 S    
C88   C92   1.398272 A    
C45   H9    1.080911 S    
C84   C88   1.370307 A    
C62   H22   1.079454 S    
C3    O11   1.266399 A    
O11   Cr7   2.069895 S    
N3    O57   1.301163 A    
O33   Cr5   2.063599 S    
C94   H42   1.082343 S    
C84   H36   1.083171 S    
C43   C44   1.389168 A    
C93   H41   1.082712 S    
O6    Cr2   1.949603 S    
C7    O19   1.275401 A    
C27   C36   1.416336 A    
C96   H44   1.082827 S    
O3    Cr3   2.063940 S    
C49   C53   1.404707 A    
Cr4   O52   1.973881 S    
C26   C33   1.411745 A    
C83   H35   1.082579 S    
O2    Cr2   2.064446 S    
C56   C60   1.395410 A    
C61   C65   1.401912 A    
C98   C102  1.400667 A    
C13   C92   1.449048 S    
O42   Cr10  2.067126 S    
C97   C101  1.401018 A    
C96   C100  1.390798 A    
C36   N4    1.440743 S    
C99   H47   1.083135 S    
O27   Cr3   2.070870 S    
O18   Cr10  2.069182 S    
C59   H19   1.083832 S    
O8    C4    1.300232 A    
O34   Cr6   2.067186 S    
Cr7   O51   1.972279 S    
N2    O55   1.300979 A    
C31   C39   1.413762 A    
C20   O44   1.265762 A    
C26   C30   1.420249 A    
C91   C95   1.405021 A    
C5    C26   1.484952 S    
C10   C66   1.449077 S    
C73   C77   1.398791 A    
O24   Cr12  1.946987 S    
C35   N3    1.439356 S    
C64   H24   1.081268 S    
O30   Cr2   1.944424 S    
C20   C75   1.450149 S    
O22   C10   1.274825 A    
O1    C9    1.263840 A    
O48   Cr12  1.948106 S    
C4    O12   1.296426 A    
C84   C104  1.403212 A    
C21   C101  1.449824 S    
C2    C55   1.449711 S    
C95   C99   1.390877 A    
C2    O10   1.259889 A    
C3    C54   1.447516 S    
C29   C37   1.414861 A    
C40   H4    1.079634 S    
O16   Cr8   1.949211 S    
C82   C102  1.403504 A    
O7    Cr3   1.951517 S    
C17   C74   1.450139 S    
C49   H13   1.080992 S    
N1    O53   1.300934 A    
Cr10  O50   1.972672 S    
C25   C34   1.418012 A    
O29   Cr1   1.943385 S    
O13   C5    1.276380 A    
O28   Cr4   2.068310 S    
O43   Cr11  2.068135 S    
O48   C24   1.273414 A    
O12   Cr8   2.071315 S    
C22   C102  1.449950 S    
C86   H38   1.083844 S    
O15   C7    1.272689 A    
O5    C1    1.269216 A    
C81   C101  1.403706 A    
C94   C98   1.390553 A    
O46   Cr10  1.948106 S    
O39   Cr7   1.949586 S    
O3    C11   1.258488 A    
C98   H46   1.083151 S    
O45   Cr9   1.950570 S    
C71   C72   1.374475 A    
C62   C66   1.403693 A    
C97   H45   1.083325 S    
C100  H48   1.083421 S    
Cr11  O51   1.968265 S    
C43   H7    1.082537 S    
C99   C103  1.400906 A    
C13   O33   1.263880 A    
C57   H17   1.079864 S    
C39   C41   1.392531 A    
Cr2   O50   1.973881 S    
O15   Cr7   1.946016 S    
O35   Cr7   2.063599 S    
C50   C54   1.407457 A    
C82   H34   1.082503 S    
C85   H37   1.083930 S    
Cr3   O51   1.973780 S    
O26   C22   1.259929 A    
C24   C104  1.449658 S    
O21   Cr9   1.948254 S    
C74   C78   1.407914 A    
N4    O60   1.301320 A    
C4    C53   1.462955 S    
C32   C40   1.416805 A    
O8    Cr4   1.949603 S    
C58   H18   1.083966 S    
O37   Cr5   1.949586 S    
C8    O20   1.263593 A    
C71   H27   1.082790 S    
C19   O43   1.255808 A    
C38   H2    1.081112 S    
C34   N2    1.438949 S    
C8    C27   1.483181 S    
O24   C12   1.276219 A    
C63   C67   1.402151 A    
C12   C68   1.449436 S    
O31   Cr3   1.943385 S    
O14   Cr6   1.949211 S    
O38   C18   1.272909 A    
C76   C80   1.398807 A    
C41   H5    1.082571 S    
O45   C21   1.272196 A    
C5    O17   1.272069 A    
C52   H16   1.083243 S    
C47   C67   1.400549 A    
O22   Cr10  1.946987 S    
O28   C24   1.260351 A    
C87   C91   1.397308 A    
O14   C6    1.281497 A    
C87   H39   1.083838 S    
C86   C90   1.397077 A    
O5    Cr1   1.951517 S    
C60   H20   1.084082 S    
C85   C89   1.397270 A    
C69   H25   1.083953 S    
O17   Cr9   2.071097 S    
O37   C17   1.266126 A    
C69   C74   1.394902 A    
C54   C58   1.393541 A    
C15   O35   1.264941 A    
N3    O58   1.301284 A    
C28   C35   1.413614 A    
C17   O41   1.265476 A    
C78   H30   1.083259 S    
C47   H11   1.082032 S    
N1    O54   1.301360 A    
C46   C50   1.390644 A    
C41   C42   1.388758 A    
C14   O34   1.262942 A    
O25   Cr1   2.070870 S    
O40   Cr8   1.951022 S    
C35   C36   1.394188 A    
C75   C79   1.407874 A    
N2    O56   1.301182 A    
C88   H40   1.084037 S    
C55   C59   1.398828 A    
O1    Cr1   2.063940 S    
C61   H21   1.081434 S    
C44   H8    1.082101 S    
O19   Cr11  2.071097 S    
C9    C65   1.463084 S    
Cr1   O49   1.973780 S    
Cr8   O52   1.967736 S    
O32   C16   1.268375 A    
O29   C13   1.271164 A    
O9    Cr5   2.069895 S    
C45   C65   1.402042 A    
O13   Cr5   1.946016 S    
C77   H29   1.083266 S    
O2    C10   1.258723 A    
C90   C94   1.405139 A    
Cr12  O52   1.972672 S    
O31   C15   1.270286 A    
C38   C44   1.393579 A    
C58   C62   1.371942 A    
C89   C93   1.405404 A    
C63   H23   1.082594 S    
O23   C11   1.273767 A    
C6    C25   1.486203 S    
O26   Cr2   2.068310 S    
C46   C66   1.397200 A    
C33   N1    1.440343 S    
O10   Cr6   2.071315 S    
C25   C29   1.418851 A    
C51   C55   1.403358 A    
C51   H15   1.080217 S    
O4    Cr4   2.064446 S    
O6    C2    1.271303 A    
C70   H26   1.082799 S    
Cr5   O49   1.972279 S    
C82   C86   1.371505 A    
C1    C56   1.447783 S    
C48   H12   1.081979 S    
C16   O36   1.262912 A    
O40   C20   1.266594 A    
C30   C38   1.414629 A    
C27   C31   1.411384 A    
C100  C104  1.401898 A    
N4    O59   1.300742 A    
C6    O18   1.267995 A    
C83   C103  1.403394 A    
C37   C43   1.393688 A    
O27   C23   1.258600 A    
C7    C28   1.485931 S    
O41   Cr9   2.068135 S    
C64   C68   1.403467 A    
O36   Cr8   2.067186 S    
C45   C49   1.393690 A    
O16   C8    1.284589 A    
Cr9   O49   1.968265 S    
C19   C76   1.451185 S    
C80   H32   1.083257 S    
C70   C73   1.405678 A    
O38   Cr6   1.951022 S    
C79   H31   1.083259 S    
C47   C51   1.390999 A    
