data_mof_unit_25953.cif
_audit_creation_date              2012-10-26T18:40:17-0400
_audit_creation_method            fapswitch 2.2
_symmetry_space_group_name_H-M    P1
_symmetry_Int_Tables_number       1
_space_group_crystal_system       triclinic
_cell_length_a                    8.719694
_cell_length_b                    15.109553
_cell_length_c                    13.904937
_cell_angle_alpha                 89.912909
_cell_angle_beta                  97.585138
_cell_angle_gamma                 90.590582
_cell_volume                      1815.85818365

loop_
_atom_site_label
_atom_site_type_symbol
_atom_type_description
_atom_site_fract_x
_atom_site_fract_y
_atom_site_fract_z
_atom_type_partial_charge
C1    C     C_R   0.504288 0.329945 0.500269 0.562302
C2    C     C_R   0.572465 0.567250 0.898816 0.212647
C3    C     C_R   0.497541 0.497134 0.053808 0.041711
C4    C     C_R   0.497645 0.498484 0.944656 0.048424
C5    C     C_R   0.203936 0.499211 0.475328 0.545261
C6    C     C_R   0.796126 0.499849 0.524725 0.521984
C7    C     C_2   0.038384 0.497331 0.461768 -0.167430
C8    C     C_2   0.961820 0.500242 0.538497 -0.166965
C9    C     C_R   0.468169 0.092868 0.575173 0.239223
C10   C     C_R   0.457070 0.906602 0.421567 0.243781
C11   C     C_R   0.462646 0.184885 0.574693 -0.187121
C12   C     C_R   0.504312 0.670037 0.500357 0.556026
C13   C     C_R   0.451308 0.814530 0.421262 -0.186940
C14   C     C_R   0.519487 0.233558 0.501183 -0.090759
C15   C     C_R   0.519269 0.766499 0.501443 -0.084791
C16   C     C_R   0.592848 0.189859 0.430161 0.266007
C17   C     C_R   0.603839 0.810842 0.580999 0.265753
C18   C     C_R   0.603182 0.097457 0.431513 0.286038
C19   C     C_R   0.613545 0.903395 0.581357 0.286677
C20   C     C_R   0.538314 0.048676 0.503432 0.014972
C21   C     C_R   0.537928 0.951553 0.501815 0.015318
C22   C     C_3   0.252795 0.030862 0.624290 -0.121659
C23   C     C_R   0.636336 0.506300 0.117200 0.296303
C24   C     C_3   0.234423 0.968858 0.349980 -0.114415
C25   C     C_3   0.799045 0.266638 0.386804 -0.077357
C26   C     C_3   0.820179 0.736987 0.643568 -0.101370
C27   C     C_3   0.812213 0.021408 0.391540 -0.108900
C28   C     C_3   0.828624 0.982956 0.645439 -0.106456
C29   C     C_3   0.860250 0.431867 0.111730 -0.098692
C30   C     C_3   0.457075 0.291963 0.943871 -0.112096
C31   C     C_3   0.155207 0.566719 0.026163 -0.105434
C32   C     C_3   0.569480 0.715220 0.930145 -0.107924
C33   C     C_R   0.422199 0.431183 0.885204 0.227684
C34   C     C_R   0.631643 0.519271 0.217376 0.361303
C35   C     C_R   0.416916 0.436158 0.782432 0.378939
C36   C     C_R   0.365579 0.483647 0.198383 -0.000034
C37   C     C_R   0.577821 0.563838 0.797611 -0.015534
C38   C     C_R   0.359455 0.488194 0.096235 0.217960
Cu1   Cu    Cu3+1 0.500000 0.499990 0.596430 1.006881
Cu2   Cu    Cu3+1 0.500000 0.500010 0.403570 0.965633
H1    H     H_    0.979495 0.493233 0.388091 0.169402
H2    H     H_    0.226158 0.022368 0.403640 0.098585
H3    H     H_    0.171178 0.908372 0.369572 0.090617
H4    H     H_    0.175734 0.992527 0.279123 0.152601
H5    H     H_    0.807754 0.304043 0.456255 0.101807
H6    H     H_    0.834632 0.312441 0.331164 0.139913
H7    H     H_    0.881405 0.210782 0.394042 0.106553
H8    H     H_    0.815387 0.697022 0.576031 0.103405
H9    H     H_    0.869960 0.694483 0.704751 0.135894
H10   H     H_    0.899657 0.794459 0.640421 0.114488
H11   H     H_    0.800163 0.952671 0.417810 0.107916
H12   H     H_    0.021087 0.503542 0.612309 0.147462
H13   H     H_    0.879227 0.062560 0.449227 0.049952
H14   H     H_    0.881343 0.018467 0.330177 0.138481
H15   H     H_    0.888519 0.943695 0.594082 0.049751
H16   H     H_    0.907200 0.986465 0.714907 0.144732
H17   H     H_    0.811408 0.051752 0.618570 0.108935
H18   H     H_    0.786334 0.371057 0.110120 0.085335
H19   H     H_    0.923404 0.442096 0.185708 0.153597
H20   H     H_    0.946655 0.419503 0.061850 0.189177
H21   H     H_    0.560115 0.312275 0.995289 0.116210
H22   H     H_    0.493347 0.267461 0.874924 0.127650
H23   H     H_    0.409496 0.218033 0.630726 0.182881
H24   H     H_    0.400083 0.236063 0.977479 0.165577
H25   H     H_    0.717433 0.603938 0.310962 0.349571
H26   H     H_    0.265744 0.339568 0.759985 0.333410
H27   H     H_    0.232787 0.612388 0.991642 0.100957
H28   H     H_    0.129653 0.594407 0.096412 0.140786
H29   H     H_    0.044345 0.562042 0.977016 0.189218
H30   H     H_    0.443381 0.709252 0.935279 0.098522
H31   H     H_    0.588529 0.738700 0.856816 0.164253
H32   H     H_    0.617801 0.766443 0.983015 0.162630
H33   H     H_    0.389532 0.780684 0.358954 0.160749
H34   H     H_    0.259508 0.470778 0.228340 0.154177
H35   H     H_    0.642669 0.613503 0.763758 0.175206
H36   H     H_    0.232271 0.979118 0.567288 0.097800
H37   H     H_    0.188422 0.092210 0.600856 0.090578
H38   H     H_    0.205229 0.005223 0.689152 0.141149
N1    N     N_R   0.500000 0.500020 0.258690 -0.287411
N2    N     N_R   0.500000 0.499980 0.741310 -0.255474
O1    O     O_R   0.500010 0.371450 0.581430 -0.453480
O2    O     O_3   0.390398 0.951995 0.340444 -0.505138
O3    O     O_3   0.646957 0.236441 0.355447 -0.507556
O4    O     O_3   0.672107 0.764489 0.661035 -0.541554
O5    O     O_3   0.665522 0.056152 0.356799 -0.481029
O6    O     O_3   0.686576 0.945186 0.663918 -0.485621
O7    O     O_3   0.775991 0.508285 0.080167 -0.520702
O8    O     O_3   0.350534 0.361598 0.926905 -0.545429
O9    O     O_3   0.758124 0.559043 0.269362 -0.688205
O10   O     O_3   0.328714 0.377470 0.721886 -0.667656
O11   O     O_3   0.218322 0.481297 0.038631 -0.547380
O12   O     O_R   0.499990 0.628550 0.418570 -0.527773
O13   O     O_3   0.647032 0.635064 0.953882 -0.534210
O14   O     O_R   0.500010 0.371460 0.418560 -0.448650
O15   O     O_R   0.499990 0.628540 0.581440 -0.467853
O16   O     O_R   0.274840 0.499990 0.562640 -0.456339
O17   O     O_R   0.725160 0.500010 0.437360 -0.486258
O18   O     O_R   0.274840 0.500000 0.399770 -0.522179
O19   O     O_R   0.725160 0.500000 0.600230 -0.508578
O20   O     O_3   0.412616 0.046760 0.649591 -0.508403

loop_
_geom_bond_atom_site_label_1
_geom_bond_atom_site_label_2
_ccdc_geom_bond_type
C30   H24   S    
C24   H2    S    
C3    C23   A    
C22   H36   S    
C19   O6    S    
C28   H16   S    
C27   H14   S    
C7    C8    D    
C32   H32   S    
C28   H17   S    
C31   H27   S    
C19   C21   A    
C33   O8    S    
C11   H23   S    
C26   H10   S    
Cu2   O18   S    
C11   C14   A    
C5    O18   A    
C1    O1    A    
C35   N2    A    
C27   O5    S    
C24   O2    S    
C33   C35   A    
C29   H19   S    
C3    C38   A    
C1    O14   A    
C12   C15   S    
C12   O15   A    
C25   H7    S    
C26   H8    S    
C32   O13   S    
C37   H35   S    
C10   C13   A    
C23   O7    S    
C28   H15   S    
C27   H11   S    
C32   H31   S    
C10   C21   A    
C31   H28   S    
C37   N2    A    
C18   O5    S    
C22   O20   S    
C6    O17   A    
C22   H38   S    
H26   O10   S    
C26   H9    S    
Cu2   O17   S    
C5    C7    S    
C6    C8    S    
C38   O11   S    
C10   O2    S    
C16   O3    S    
Cu2   O12   S    
C2    C4    A    
C34   N1    A    
C9    C20   A    
Cu1   O19   S    
C29   H20   S    
C23   C34   A    
Cu2   N1    S    
C20   C21   S    
C9    C11   A    
Cu1   O15   S    
C36   H34   S    
C13   H33   S    
C9    O20   S    
C31   O11   S    
C30   H22   S    
C28   O6    S    
C24   H4    S    
C14   C16   A    
C30   O8    S    
C3    C4    S    
C25   H5    S    
Cu1   Cu2   S    
C5    O16   A    
C15   C17   A    
C8    H12   S    
C4    C33   A    
C26   O4    S    
C12   O12   A    
C2    O13   S    
C22   H37   S    
Cu2   O14   S    
C36   N1    A    
C32   H30   S    
C27   H13   S    
H25   O9    S    
C17   O4    S    
C6    O19   A    
C13   C15   A    
C34   O9    S    
Cu1   N2    S    
C2    C37   A    
C36   C38   A    
C17   C19   A    
Cu1   O1    S    
C18   C20   A    
C7    H1    S    
Cu1   O16   S    
C29   O7    S    
C35   O10   S    
C31   H29   S    
C29   H18   S    
C16   C18   A    
C30   H21   S    
C25   O3    S    
C24   H3    S    
C1    C14   S    
C25   H6    S    
