data_mof_unit_30158.cif
_audit_creation_date              2012-12-10T20:20:42-0500
_audit_creation_method            fapswitch 2.2
_symmetry_space_group_name_H-M    P1
_symmetry_Int_Tables_number       1
_space_group_crystal_system       triclinic
_cell_length_a                    18.854736
_cell_length_b                    18.454132
_cell_length_c                    10.671727
_cell_angle_alpha                 90.04893
_cell_angle_beta                  89.861265
_cell_angle_gamma                 90.360109
_cell_volume                      3713.11826151

loop_
_atom_site_label
_atom_site_type_symbol
_atom_type_description
_atom_site_fract_x
_atom_site_fract_y
_atom_site_fract_z
_atom_type_partial_charge
C1    C     C_R   0.364727 0.499762 0.501333 0.849289
C2    C     C_R   0.037024 0.560376 0.585784 -0.221321
C3    C     C_R   0.073164 0.502730 0.639840 0.049708
C4    C     C_R   0.926184 0.505195 0.643342 0.052124
C5    C     C_R   0.036646 0.448528 0.709403 0.078157
C6    C     C_R   0.961043 0.450621 0.713178 0.086003
C7    C     C_R   0.538820 0.726246 0.586915 0.017306
C8    C     C_R   0.461541 0.725645 0.412577 0.019758
C9    C     C_R   0.539769 0.802268 0.588308 -0.284064
C10   C     C_R   0.461108 0.801646 0.410432 -0.285548
C11   C     C_R   0.500552 0.841391 0.499193 0.123972
C12   C     C_R   0.635325 0.500240 0.501217 0.850008
C13   C     C_R   0.439204 0.961722 0.467779 -0.185852
C14   C     C_R   0.562352 0.962473 0.529580 -0.184255
C15   C     C_R   0.497816 0.499971 0.259656 0.878927
C16   C     C_R   0.497687 0.500018 0.740343 0.886677
C17   C     C_R   0.439304 0.037781 0.467451 -0.185480
C18   C     C_R   0.562405 0.038558 0.529471 -0.187158
C19   C     C_R   0.500872 0.077411 0.498421 0.124410
C20   C     C_R   0.500723 0.922783 0.498837 0.124137
C21   C     C_R   0.538198 0.198285 0.590277 -0.285423
C22   C     C_R   0.463010 0.197841 0.407775 -0.282453
C23   C     C_R   0.805694 0.556008 0.649416 -0.211899
C24   C     C_R   0.536914 0.274271 0.589407 0.021700
C25   C     C_R   0.463424 0.273832 0.410063 0.006232
C26   C     C_R   0.500788 0.158704 0.498710 0.123013
C27   C     C_R   0.483725 0.565496 0.064112 0.122118
C28   C     C_R   0.483639 0.565535 0.936275 0.138829
C29   C     C_R   0.486141 0.500002 0.128529 -0.104003
C30   C     C_R   0.485785 0.500083 0.871517 -0.105101
C31   C     C_R   0.474855 0.434538 0.064653 -0.227833
C32   C     C_R   0.474342 0.434606 0.935245 -0.232745
C33   C     C_3   0.531928 0.629985 0.928947 -0.497491
C34   C     C_R   0.195252 0.549581 0.657358 -0.185463
C35   C     C_3   0.532021 0.629963 0.070994 -0.472899
C36   C     C_R   0.757659 0.446122 0.486274 0.092753
C37   C     C_R   0.241269 0.447693 0.477793 0.102997
C38   C     C_R   0.827568 0.446653 0.529722 -0.199809
C39   C     C_R   0.170814 0.447926 0.519544 -0.217229
C40   C     C_R   0.851055 0.500682 0.612165 0.105475
C41   C     C_R   0.148348 0.498088 0.609506 0.092467
C42   C     C_3   0.735912 0.388068 0.393400 -0.421941
C43   C     C_3   0.721054 0.316046 0.460476 -0.312289
C44   C     C_3   0.689200 0.260071 0.371215 -0.863662
C45   C     C_R   0.736219 0.556146 0.607977 -0.216933
C46   C     C_3   0.262637 0.393166 0.378311 -0.439320
C47   C     C_3   0.279041 0.430170 0.252686 -0.326265
C48   C     C_3   0.300820 0.374816 0.153773 -0.888842
C49   C     C_3   0.078570 0.390251 0.777522 -0.439465
C50   C     C_3   0.084880 0.407542 0.917696 -0.324770
C51   C     C_3   0.126366 0.349112 0.986282 -0.906734
C52   C     C_3   0.916700 0.396329 0.788408 -0.444233
C53   C     C_3   0.878364 0.433358 0.898269 -0.325974
C54   C     C_3   0.839105 0.378191 0.979787 -0.902538
C55   C     C_R   0.265068 0.550377 0.617094 -0.224771
C56   C     C_R   0.711225 0.501298 0.527691 -0.065514
C57   C     C_R   0.288926 0.499680 0.528464 -0.053128
C58   C     C_R   0.964166 0.561410 0.586919 -0.226709
H1    H     H_    0.471705 0.383167 0.113406 0.166256
H2    H     H_    0.611162 0.067003 0.551782 0.126114
H3    H     H_    0.567393 0.170826 0.663195 0.132279
H4    H     H_    0.434139 0.170051 0.334321 0.132856
H5    H     H_    0.565568 0.304360 0.660292 0.116925
H6    H     H_    0.434627 0.303584 0.339628 0.115597
H7    H     H_    0.584473 0.617036 0.887214 0.196193
H8    H     H_    0.505292 0.677929 0.112334 0.200605
H9    H     H_    0.505132 0.677963 0.888166 0.203775
H10   H     H_    0.584627 0.617009 0.111959 0.204209
H11   H     H_    0.864433 0.405898 0.496919 0.126163
H12   H     H_    0.470508 0.383294 0.886249 0.171754
H13   H     H_    0.132644 0.410020 0.480479 0.129477
H14   H     H_    0.824285 0.598992 0.710527 0.136597
H15   H     H_    0.177503 0.589426 0.724955 0.137912
H16   H     H_    0.701380 0.598468 0.641549 0.151900
H17   H     H_    0.301063 0.589917 0.657633 0.160066
H18   H     H_    0.937132 0.603633 0.535452 0.153921
H19   H     H_    0.065376 0.602124 0.534248 0.153423
H20   H     H_    0.679917 0.208388 0.422085 0.244606
H21   H     H_    0.637629 0.279434 0.334317 0.271830
H22   H     H_    0.725982 0.249847 0.291773 0.253777
H23   H     H_    0.569125 0.696535 0.655550 0.116025
H24   H     H_    0.771282 0.294497 0.499573 0.202111
H25   H     H_    0.683574 0.324627 0.539470 0.233558
H26   H     H_    0.688924 0.405043 0.338516 0.209315
H27   H     H_    0.779155 0.380391 0.323622 0.186439
H28   H     H_    0.258507 0.333396 0.141190 0.259261
H29   H     H_    0.350342 0.347308 0.182353 0.251731
H30   H     H_    0.310191 0.402611 0.062920 0.260586
H31   H     H_    0.231125 0.459206 0.219537 0.220996
H32   H     H_    0.322747 0.470288 0.263336 0.211380
H33   H     H_    0.308533 0.360936 0.410536 0.223149
H34   H     H_    0.431265 0.695468 0.343906 0.121501
H35   H     H_    0.218980 0.353334 0.362872 0.191117
H36   H     H_    0.098941 0.295903 0.977591 0.259845
H37   H     H_    0.180755 0.344855 0.946839 0.267503
H38   H     H_    0.130247 0.363334 0.087177 0.252276
H39   H     H_    0.112649 0.460421 0.929805 0.222201
H40   H     H_    0.031699 0.411730 0.961383 0.226171
H41   H     H_    0.054833 0.335904 0.761399 0.185634
H42   H     H_    0.133090 0.385367 0.739620 0.213803
H43   H     H_    0.799146 0.348231 0.923219 0.263778
H44   H     H_    0.877062 0.339118 0.020994 0.258620
H45   H     H_    0.570230 0.830051 0.659728 0.131728
H46   H     H_    0.811369 0.406638 0.057275 0.246526
H47   H     H_    0.917238 0.463241 0.957241 0.211546
H48   H     H_    0.839256 0.472989 0.862913 0.230903
H49   H     H_    0.877233 0.369640 0.726419 0.196893
H50   H     H_    0.948658 0.351694 0.826945 0.209269
H51   H     H_    0.430903 0.828933 0.338633 0.131657
H52   H     H_    0.390342 0.933422 0.445743 0.128659
H53   H     H_    0.611138 0.934743 0.551838 0.128358
H54   H     H_    0.390570 0.065592 0.445068 0.128667
N1    N     N_R   0.500000 0.689440 0.500000 -0.087651
N2    N     N_R   0.500000 0.310560 0.500000 -0.086973
O1    O     O_R   0.398180 0.560840 0.499970 -0.620805
O2    O     O_R   0.601820 0.560840 0.500030 -0.616253
O3    O     O_R   0.398180 0.439210 0.499910 -0.614508
O4    O     O_R   0.601820 0.439210 0.500090 -0.610446
O5    O     O_R   0.499990 0.560820 0.316770 -0.620973
O6    O     O_R   0.500010 0.560820 0.683230 -0.623648
O7    O     O_R   0.499990 0.439200 0.316710 -0.628219
O8    O     O_R   0.500010 0.439200 0.683290 -0.627788
Zn1   Zn    Zn3+2 0.500000 0.581210 0.500000 0.932543
Zn2   Zn    Zn3+2 0.500000 0.418790 0.500000 0.930333

loop_
_geom_bond_atom_site_label_1
_geom_bond_atom_site_label_2
_ccdc_geom_bond_type
C38   C40   A    
C21   C26   A    
C24   N2    A    
C23   C45   A    
O2    Zn1   S    
C27   C29   A    
C43   H25   S    
C14   C18   A    
C54   H43   S    
C36   C42   S    
C33   H7    S    
C39   C41   A    
C53   C54   S    
C54   H46   S    
O3    Zn2   S    
C16   O6    A    
C5    C6    A    
C8    C10   A    
C49   H41   S    
C16   C30   S    
C23   C40   A    
C10   H51   S    
C18   C19   A    
C31   H1    S    
C19   C26   S    
C16   O8    A    
O7    Zn2   S    
C17   C19   A    
C53   H48   S    
C47   C48   S    
C45   C56   A    
C22   C25   A    
C48   H30   S    
C8    H34   S    
C21   H3    S    
O6    Zn1   S    
C51   H38   S    
C55   H17   S    
C38   H11   S    
C34   C55   A    
C47   H31   S    
C5    C49   S    
C34   C41   A    
C15   C29   S    
C14   H53   S    
C11   C20   S    
C50   H40   S    
O1    Zn1   S    
C58   H18   S    
C14   C20   A    
C44   H22   S    
C42   H26   S    
C52   H49   S    
C4    C6    A    
C1    O3    A    
C46   H33   S    
C51   H36   S    
C35   H8    S    
C27   C35   S    
C45   H16   S    
C25   H6    S    
C43   C44   S    
C4    C40   S    
C13   H52   S    
C36   C56   A    
C1    C57   S    
C22   H4    S    
C31   C32   A    
N1    Zn1   S    
C9    H45   S    
C50   C51   S    
C48   H29   S    
C42   H27   S    
O4    Zn2   S    
C9    C11   A    
C12   C56   S    
C8    N1    A    
C12   O4    A    
C18   H2    S    
C7    H23   S    
C28   C33   S    
C24   H5    S    
C55   C57   A    
C47   H32   S    
C48   H28   S    
C42   C43   S    
O8    Zn2   S    
C17   H54   S    
C52   C53   S    
C33   H9    S    
C7    C9    A    
C46   C47   S    
C3    C41   S    
C50   H39   S    
C15   O7    A    
C13   C20   A    
C23   H14   S    
C54   H44   S    
C44   H21   S    
C3    C5    A    
C32   H12   S    
C2    C58   A    
O5    Zn1   S    
C13   C17   A    
C7    N1    A    
C36   C38   A    
C2    C3    A    
N2    Zn2   S    
C28   C30   A    
C29   C31   A    
C2    H19   S    
C25   N2    A    
C49   H42   S    
C30   C32   A    
C46   H35   S    
C35   H10   S    
C44   H20   S    
C33   C35   S    
C15   O5    A    
C10   C11   A    
C34   H15   S    
C53   H47   S    
C52   H50   S    
C37   C39   A    
C49   C50   S    
C22   C26   A    
C21   C24   A    
C4    C58   A    
C27   C28   A    
C43   H24   S    
C39   H13   S    
C1    O1    A    
C6    C52   S    
C37   C46   S    
C37   C57   A    
C51   H37   S    
C12   O2    A    
