data_mof_unit_55590.cif
_audit_creation_date              2012-12-10T19:01:18-0500
_audit_creation_method            fapswitch 2.2
_symmetry_space_group_name_H-M    P1
_symmetry_Int_Tables_number       1
_space_group_crystal_system       triclinic
_cell_length_a                    9.546323
_cell_length_b                    10.860907
_cell_length_c                    15.537469
_cell_angle_alpha                 89.857522
_cell_angle_beta                  74.227894
_cell_angle_gamma                 90.003154
_cell_volume                      1550.29474358

loop_
_atom_site_label
_atom_site_type_symbol
_atom_type_description
_atom_site_fract_x
_atom_site_fract_y
_atom_site_fract_z
_atom_type_partial_charge
C1    C     C_R   0.999953 0.262707 0.499753 0.806659
C2    C     C_R   0.673965 0.489908 0.907986 0.091314
C3    C     C_R   0.775175 0.520961 0.956498 0.166813
C4    C     C_R   0.524639 0.470423 0.954294 0.066978
C5    C     C_R   0.476930 0.493237 0.047928 0.066617
C6    C     C_R   0.582108 0.522898 0.093627 -0.220251
C7    C     C_R   0.728146 0.535552 0.048719 -0.239919
C8    C     C_R   0.422134 0.426510 0.910610 -0.221536
C9    C     C_R   0.277070 0.408919 0.956552 -0.242057
C10   C     C_R   0.227785 0.435984 0.047212 0.165772
C11   C     C_R   0.326242 0.481275 0.093391 0.095181
C12   C     C_R   0.918013 0.500142 0.672024 0.797566
C13   C     C_R   0.080824 0.416701 0.092643 -0.217735
C14   C     C_R   0.030552 0.440561 0.183917 -0.199972
C15   C     C_R   0.270158 0.512314 0.183944 -0.249597
C16   C     C_R   0.119574 0.061981 0.502843 0.136133
C17   C     C_R   0.998906 0.130092 0.498328 -0.105681
C18   C     C_R   0.874158 0.064596 0.492235 -0.219058
C19   C     C_R   0.874275 0.935418 0.492038 -0.217709
C20   C     C_R   0.999132 0.869906 0.497963 -0.107080
C21   C     C_R   0.119775 0.938017 0.502537 0.132660
C22   C     C_3   0.270497 0.929155 0.512238 -0.470936
C23   C     C_R   0.000058 0.737289 0.499517 0.807942
C24   C     C_3   0.270178 0.070956 0.512668 -0.477366
C25   C     C_R   0.591937 0.593225 0.459456 0.260007
C26   C     C_R   0.553295 0.415281 0.547709 -0.083596
C27   C     C_R   0.404364 0.415400 0.547824 -0.086263
C28   C     C_R   0.444669 0.592758 0.458972 0.265554
C29   C     C_3   0.484053 0.624300 0.361984 -0.522070
C30   C     C_3   0.642091 0.627966 0.363242 -0.506965
C31   C     C_R   0.081698 0.498779 0.327964 0.798349
C32   C     C_R   0.872321 0.502344 0.770132 -0.050039
C33   C     C_R   0.126063 0.486835 0.230206 -0.048021
C34   C     C_R   0.922874 0.538202 0.912118 -0.214216
C35   C     C_R   0.971479 0.527833 0.819520 -0.199312
C36   C     C_R   0.725404 0.483076 0.814379 -0.250716
Cu1   Cu    Cu3+1 0.140670 0.499980 0.500000 0.940729
Cu2   Cu    Cu3+1 0.859330 0.500020 0.500000 0.938151
H1    H     H_    0.804665 0.558337 0.086593 0.150354
H2    H     H_    0.005618 0.380117 0.057995 0.142475
H3    H     H_    0.776654 0.112377 0.487999 0.165747
H4    H     H_    0.776848 0.887645 0.487657 0.164489
H5    H     H_    0.273197 0.887688 0.577248 0.200316
H6    H     H_    0.347878 0.889006 0.452188 0.193424
H7    H     H_    0.272478 0.111033 0.578021 0.189796
H8    H     H_    0.347320 0.112664 0.452912 0.204148
H9    H     H_    0.592548 0.345249 0.584969 0.136232
H10   H     H_    0.331975 0.345678 0.585308 0.134904
H11   H     H_    0.461494 0.546586 0.321751 0.210659
H12   H     H_    0.335877 0.557702 0.220219 0.137059
H13   H     H_    0.440885 0.715224 0.348606 0.190539
H14   H     H_    0.709145 0.555514 0.320938 0.214908
H15   H     H_    0.689760 0.722043 0.353577 0.192708
H16   H     H_    0.918274 0.420171 0.218484 0.149042
H17   H     H_    0.202854 0.373536 0.920685 0.147257
H18   H     H_    0.085578 0.543197 0.786512 0.156582
H19   H     H_    0.652369 0.466694 0.773770 0.149783
H20   H     H_    0.556251 0.533442 0.164954 0.143506
H21   H     H_    0.450932 0.400387 0.841228 0.138509
N1    N     N_R   0.648210 0.500930 0.499430 -0.184494
N2    N     N_R   0.352300 0.500890 0.499430 -0.184023
O1    O     O_R   0.118810 0.319640 0.500000 -0.580922
O2    O     O_R   0.881230 0.319680 0.499990 -0.590708
O3    O     O_R   0.055580 0.499970 0.629840 -0.586725
O4    O     O_R   0.818000 0.500010 0.629830 -0.585176
O5    O     O_R   0.118770 0.680320 0.500010 -0.579885
O6    O     O_R   0.881190 0.680360 0.500000 -0.584486
O7    O     O_R   0.182000 0.499990 0.370170 -0.581216
O8    O     O_R   0.944420 0.500030 0.370160 -0.586474
H22   H     H_    0.000502 0.561755 0.948964 0.145344

loop_
_geom_bond_atom_site_label_1
_geom_bond_atom_site_label_2
_ccdc_geom_bond_type
C27   H10   S    
C2    C4    A    
C19   H4    S    
C16   C21   A    
C9    H17   S    
C25   N1    A    
C9    C10   A    
C34   H22   S    
Cu1   N2    S    
C22   H5    S    
C20   C23   S    
C7    H1    S    
C4    C8    A    
C24   H8    S    
Cu1   O5    S    
C14   C33   A    
C31   C33   S    
Cu1   O1    S    
Cu2   O8    S    
C16   C24   S    
C29   H11   S    
C13   C14   A    
C28   N2    A    
C25   C28   A    
C26   C27   A    
C29   C30   S    
C11   C15   A    
C26   H9    S    
Cu2   N1    S    
C24   H7    S    
C1    O2    A    
C23   O5    A    
C30   H14   S    
C28   C29   S    
C14   H16   S    
Cu1   Cu2   S    
C5    C11   A    
C6    C7    A    
C3    C7    A    
C8    H21   S    
C29   H13   S    
C5    C6    A    
C12   O3    A    
C30   H15   S    
Cu2   O2    S    
C15   H12   S    
C16   C17   A    
C10   C11   A    
C1    C17   S    
C2    C36   A    
Cu2   O6    S    
Cu1   O7    S    
C32   C36   A    
C31   O8    A    
Cu1   O3    S    
C18   C19   A    
C20   C21   A    
C36   H19   S    
C1    O1    A    
C17   C18   A    
C34   C35   A    
C12   O4    A    
C18   H3    S    
C23   O6    A    
C25   C30   S    
C6    H20   S    
C22   H6    S    
C4    C5    A    
C13   H2    S    
C2    C3    A    
C27   N2    A    
C3    C34   A    
C35   H18   S    
C21   C22   S    
Cu2   O4    S    
C26   N1    A    
C31   O7    A    
C15   C33   A    
C12   C32   S    
C32   C35   A    
C19   C20   A    
C22   C24   S    
C8    C9    A    
C10   C13   A    
