data_mof_unit_9067.cif
_audit_creation_date              2012-12-11T16:41:45-0500
_audit_creation_method            fapswitch 2.2
_symmetry_space_group_name_H-M    P1
_symmetry_Int_Tables_number       1
_space_group_crystal_system       triclinic
_cell_length_a                    8.196385
_cell_length_b                    17.35718
_cell_length_c                    18.777496
_cell_angle_alpha                 98.42251
_cell_angle_beta                  90.767494
_cell_angle_gamma                 96.224013
_cell_volume                      2625.84949381

loop_
_atom_site_label
_atom_site_type_symbol
_atom_type_description
_atom_site_fract_x
_atom_site_fract_y
_atom_site_fract_z
_atom_type_partial_charge
Ba1   Ba    Ba6+2 0.849550 0.533890 0.465080 1.714455
Ba2   Ba    Ba6+2 0.340280 0.466170 0.534930 1.681284
C1    C     C_3   0.670816 0.818789 0.297020 0.342928
C2    C     C_R   0.926001 0.404564 0.094052 0.441591
C3    C     C_R   0.771892 0.428128 0.953654 -0.064671
C4    C     C_3   0.127721 0.693152 0.268921 0.341106
C5    C     C_R   0.935446 0.457399 0.975837 0.039729
C6    C     C_R   0.713890 0.427039 0.883220 -0.119813
C7    C     C_R   0.814321 0.457746 0.831991 -0.022603
C8    C     C_R   0.971832 0.495828 0.854639 0.003940
C9    C     C_R   0.031224 0.496883 0.926884 0.018444
C10   C     C_R   0.761620 0.453352 0.759171 -0.004316
C11   C     C_R   0.869044 0.482690 0.709656 -0.309357
C12   C     C_3   0.644020 0.736298 0.316463 0.434315
C13   C     C_R   0.019236 0.525879 0.731856 0.026183
C14   C     C_R   0.068771 0.534620 0.805540 -0.053961
C15   C     C_R   0.156645 0.496451 0.069331 -0.034230
C16   C     C_3   0.134966 0.719257 0.195104 -0.345428
C17   C     C_R   0.219643 0.499459 0.141749 -0.000346
C18   C     C_R   0.122558 0.461702 0.191767 -0.110643
C19   C     C_R   0.980683 0.412706 0.165807 -0.040810
C20   C     C_R   0.210304 0.582755 0.832149 -0.029966
C21   C     C_R   0.266597 0.585352 0.902414 -0.082711
C22   C     C_R   0.185122 0.538616 0.949740 0.016180
C23   C     C_3   0.415086 0.230518 0.316096 0.271218
C24   C     C_R   0.249567 0.535906 0.019942 0.021206
C25   C     C_R   0.409489 0.568699 0.040563 -0.110687
C26   C     C_R   0.379206 0.539408 0.163580 -0.063929
C27   C     C_R   0.474106 0.572191 0.109837 -0.031351
C28   C     C_3   0.219468 0.708476 0.622399 0.314132
C29   C     C_R   0.433034 0.543678 0.237280 -0.011334
C30   C     C_R   0.326472 0.512021 0.286440 -0.207156
C31   C     C_R   0.173354 0.470715 0.265546 0.045862
C32   C     C_R   0.406243 0.718735 0.470793 -0.367335
C33   C     C_R   0.552313 0.746584 0.509652 0.015657
C34   C     C_3   0.491657 0.154547 0.289411 -0.248719
C35   C     C_R   0.606850 0.827434 0.520033 0.360880
C36   C     C_R   0.515480 0.879092 0.488717 -0.079340
C37   C     C_R   0.365599 0.850465 0.452115 -0.179705
C38   C     C_R   0.309691 0.770483 0.444717 0.017528
C39   C     C_R   0.590991 0.163780 0.483815 -0.134886
C40   C     C_3   0.229340 0.797251 0.640136 -0.380005
C41   C     C_R   0.644950 0.243537 0.490722 0.003976
C42   C     C_R   0.884631 0.224098 0.561064 -0.037042
C43   C     C_R   0.833482 0.142399 0.552371 -0.080939
C44   C     C_R   0.683715 0.112894 0.514027 -0.042788
C45   C     C_3   0.073931 0.310727 0.734617 0.394419
C46   C     C_1   0.622930 0.030475 0.504066 0.035908
C47   C     C_1   0.572687 0.961648 0.496200 0.067013
C48   C     C_R   0.785953 0.273780 0.532503 -0.275977
C49   C     C_3   0.983008 0.295662 0.385969 0.342509
C50   C     C_3   0.958229 0.206317 0.373254 -0.357903
C51   C     C_3   0.717137 0.642092 0.682055 0.355982
C52   C     C_3   0.734294 0.668390 0.763286 0.288667
C53   C     C_3   0.566357 0.759521 0.815246 0.184623
C54   C     C_2   0.328787 0.257044 0.253935 0.861598
C55   C     C_2   0.602398 0.162013 0.226726 0.893701
C56   C     C_3   0.087077 0.289324 0.810025 -0.350353
C57   C     C_3   0.586864 0.900750 0.221306 0.224566
C58   C     C_2   0.642920 0.611394 0.118645 0.897250
C59   C     C_3   0.869979 0.278993 0.039539 0.126956
C60   C     C_2   0.936006 0.088093 0.581205 0.860977
C61   C     C_3   0.717308 0.887685 0.628640 0.236119
C62   C     C_3   0.549467 0.263864 0.690499 0.358417
C63   C     C_3   0.519049 0.182649 0.712226 -0.347644
C64   C     C_R   0.002593 0.453053 0.046242 -0.017196
H1    H     H_    0.710872 0.736052 0.368157 0.003151
H2    H     H_    0.837459 0.628145 0.661451 -0.080707
H3    H     H_    0.626335 0.589155 0.671001 0.054026
H4    H     H_    0.803077 0.832610 0.285893 0.061946
H5    H     H_    0.827856 0.720782 0.774745 -0.007288
H6    H     H_    0.782865 0.621777 0.788933 -0.020931
H7    H     H_    0.510808 0.721387 0.323520 -0.106538
H8    H     H_    0.637915 0.860338 0.344223 -0.066978
H9    H     H_    0.320746 0.216865 0.355630 -0.054699
H10   H     H_    0.391501 0.106139 0.273671 0.063954
H11   H     H_    0.562931 0.137507 0.333838 0.002432
H12   H     H_    0.315111 0.818533 0.686885 0.100475
H13   H     H_    0.174116 0.671947 0.154811 0.069333
H14   H     H_    0.146628 0.368374 0.733742 0.071455
H15   H     H_    0.943006 0.315301 0.722369 -0.077270
H16   H     H_    0.217461 0.286140 0.824925 0.144536
H17   H     H_    0.037570 0.334171 0.849558 0.059125
H18   H     H_    0.015457 0.231653 0.812204 0.126321
H19   H     H_    0.683360 0.277334 0.684291 -0.062259
H20   H     H_    0.484994 0.262949 0.637982 0.091688
H21   H     H_    0.565248 0.138915 0.670360 0.069712
H22   H     H_    0.385551 0.166567 0.718035 0.156914
H23   H     H_    0.273951 0.824940 0.593532 0.064102
H24   H     H_    0.040736 0.639005 0.265568 0.083001
H25   H     H_    0.584314 0.181598 0.764233 0.112124
H26   H     H_    0.830314 0.476692 0.653649 0.074037
H27   H     H_    0.588763 0.402071 0.869726 0.109389
H28   H     H_    0.913119 0.376476 0.199974 0.143694
H29   H     H_    0.279085 0.619883 0.799327 0.146604
H30   H     H_    0.366115 0.517032 0.342255 0.067817
H31   H     H_    0.682753 0.408313 0.990453 0.156677
H32   H     H_    0.373184 0.626629 0.918353 0.091588
H33   H     H_    0.252137 0.679997 0.283667 -0.052381
H34   H     H_    0.105800 0.814951 0.653455 0.135244
H35   H     H_    0.491967 0.590328 0.001859 0.074357
H36   H     H_    0.478079 0.141055 0.453673 0.072909
H37   H     H_    0.291473 0.890244 0.430665 0.114089
H38   H     H_    0.362281 0.656989 0.464751 0.085782
H39   H     H_    0.825941 0.335921 0.538039 0.060498
H40   H     H_    0.012077 0.732998 0.178562 0.156713
H41   H     H_    0.224552 0.772332 0.196736 0.154472
H42   H     H_    0.342851 0.691661 0.609740 0.005716
H43   H     H_    0.134085 0.688913 0.575259 0.062756
H44   H     H_    0.587721 0.794600 0.770548 0.042497
H45   H     H_    0.871425 0.318736 0.408259 -0.000565
H46   H     H_    0.653663 0.782469 0.861231 0.033130
H47   H     H_    0.440287 0.766076 0.834183 0.054721
H48   H     H_    0.324956 0.336322 0.185679 0.295751
H49   H     H_    0.800485 0.219289 0.187405 0.323626
H50   H     H_    0.716120 0.921189 0.210139 0.042832
H51   H     H_    0.540501 0.941013 0.266262 0.016811
H52   H     H_    0.510959 0.902892 0.172431 0.091425
H53   H     H_    0.884375 0.599931 0.114695 0.297099
H54   H     H_    0.769709 0.230909 0.024075 0.103962
H55   H     H_    0.955371 0.258618 0.077619 0.054412
H56   H     H_    0.085531 0.314433 0.425471 0.060578
H57   H     H_    0.934453 0.290093 0.989626 0.025820
H58   H     H_    0.057296 0.061026 0.666667 0.302552
H59   H     H_    0.830772 0.893503 0.662758 0.059250
H60   H     H_    0.621451 0.850467 0.653428 -0.011491
H61   H     H_    0.679383 0.947289 0.629583 0.023046
H62   H     H_    0.829677 0.185421 0.356347 0.120222
H63   H     H_    0.986587 0.183034 0.423301 0.055438
H64   H     H_    0.039239 0.182067 0.330995 0.160996
O1    O     O_2   0.878040 0.448040 0.325130 -0.429516
O2    O     O_2   0.224950 0.230858 0.552642 -0.489807
O3    O     O_3   0.135844 0.252762 0.685511 -0.555346
O4    O     O_3   0.126800 0.453980 0.414370 -0.506162
O5    O     O_3   0.569440 0.593820 0.536390 -0.493053
O6    O     O_2   0.359400 0.311980 0.465480 -0.478484
O7    O     O_3   0.538598 0.290577 0.345313 -0.590980
O8    O     O_2   0.423245 0.464245 0.758031 -0.479251
O9    O     O_3   0.489333 0.318726 0.743422 -0.605230
O10   O     O_3   0.651020 0.589120 0.368830 -0.491031
O11   O     O_2   0.776089 0.538706 0.246104 -0.447937
O12   O     O_3   0.666462 0.703459 0.649907 -0.649247
O13   O     O_3   0.016584 0.323535 0.320912 -0.596031
O14   O     O_3   0.704939 0.683385 0.262075 -0.587160
O15   O     O_2   0.830300 0.688050 0.534560 -0.441154
O16   O     O_3   0.068750 0.630380 0.404830 -0.502855
O17   O     O_2   0.971339 0.770774 0.450175 -0.442455
O18   O     O_3   0.578222 0.679434 0.791852 -0.641675
O19   O     O_2   0.210647 0.215979 0.223068 -0.632409
O20   O     O_R   0.387767 0.327125 0.229958 -0.731725
O21   O     O_2   0.575146 0.116910 0.170403 -0.613454
O22   O     O_R   0.735169 0.220534 0.232914 -0.702232
O23   O     O_3   0.073521 0.752946 0.318690 -0.601465
O24   O     O_3   0.571470 0.822983 0.236014 -0.622177
O25   O     O_2   0.666773 0.682608 0.121657 -0.574564
O26   O     O_R   0.774516 0.566556 0.112064 -0.754767
O27   O     O_3   0.800400 0.345897 0.071949 -0.646938
O28   O     O_2   0.971695 0.029982 0.542068 -0.596215
O29   O     O_R   0.988797 0.102363 0.653420 -0.752420
O30   O     O_3   0.752671 0.854711 0.558022 -0.598418
O31   O     O_2   0.311660 0.551990 0.674910 -0.451368
O32   O     O_3   0.062910 0.546080 0.585630 -0.497181
O33   O     O_3   0.538690 0.410940 0.631180 -0.487370
O34   O     O_3   0.164265 0.676293 0.682799 -0.645607
O35   O     O_3   0.620260 0.406250 0.463620 -0.439331
O36   O     O_3   0.120960 0.369680 0.595180 -0.492994
P1    P     P_3+3 0.048060 0.426210 0.336320 1.024822
P2    P     P_3+3 0.655920 0.678120 0.556130 1.022702
P3    P     P_3+3 0.105660 0.731740 0.405711 0.969170
P4    P     P_3+3 0.141640 0.573850 0.663690 0.980120
P5    P     P_3+3 0.090233 0.268656 0.597895 0.977353
P6    P     P_3+3 0.639277 0.587608 0.276445 1.000335
P7    P     P_3+3 0.540435 0.308137 0.440129 0.981549
P8    P     P_3+3 0.553006 0.412824 0.724191 0.946086

loop_
_geom_bond_atom_site_label_1
_geom_bond_atom_site_label_2
_ccdc_geom_bond_type
C55   O22   S    
H53   O26   S    
C53   H46   S    
C25   C27   A    
C20   H29   S    
C43   C60   S    
Ba1   O15   S    
C17   C18   A    
C23   C54   S    
C28   O34   S    
C51   H3    S    
Ba2   O32   S    
C58   O26   S    
C50   H62   S    
C36   C47   S    
C51   C52   S    
C5    C9    A    
C15   C64   A    
Ba2   O4    S    
O4    P1    S    
C32   C38   A    
C15   C24   A    
C61   O30   S    
C35   O30   S    
C10   P8    S    
C26   C27   A    
C33   C35   A    
C22   C24   A    
C32   C33   A    
C59   O27   S    
C34   H11   S    
C56   H16   S    
C36   C37   A    
C19   H28   S    
Ba1   P1    S    
C12   H1    S    
O35   P7    S    
C13   C14   A    
H58   O29   S    
C55   O21   D    
C9    C22   A    
C39   H36   S    
C59   H55   S    
C51   O12   S    
C51   H2    S    
C1    H8    S    
C16   H41   S    
C34   H10   S    
O34   P4    S    
C52   H5    S    
C29   C30   A    
C6    C7    A    
H49   O22   S    
O8    P8    D    
C48   H39   S    
C49   H45   S    
C39   C44   A    
C60   O28   D    
C16   H13   S    
O2    P5    D    
C7    C8    A    
Ba2   O36   S    
C45   H15   S    
O1    P1    D    
O36   P5    S    
O10   P6    S    
C45   O3    S    
C59   H54   S    
C39   C41   A    
Ba1   O16   S    
C31   P1    S    
C45   H14   S    
C56   H18   S    
Ba2   O31   S    
C62   H20   S    
C38   P3    S    
C57   O24   S    
C63   H21   S    
C12   O14   S    
C4    C16   S    
C44   C46   S    
C28   H43   S    
C49   C50   S    
C4    O23   S    
C12   H7    S    
C1    H4    S    
C34   C55   S    
C37   C38   A    
C3    C5    A    
C57   H50   S    
C53   H47   S    
Ba1   P2    S    
C43   C44   A    
C25   H35   S    
O11   P6    D    
C32   H38   S    
C13   P4    S    
C23   H9    S    
C23   O7    S    
C16   H40   S    
O7    P7    S    
C35   C36   A    
C40   H34   S    
C2    O27   S    
O32   P4    S    
C27   C58   S    
Ba1   O35   S    
C21   C22   A    
C33   P2    S    
C24   C25   A    
C10   C11   A    
C17   C26   A    
Ba1   O10   S    
Ba2   O35   S    
O13   P1    S    
C61   H59   S    
C1    C12   S    
Ba2   P4    S    
C18   C31   A    
C46   C47   T    
C30   H30   S    
C3    H31   S    
Ba1   O32   S    
C40   H12   S    
C57   H52   S    
C11   C13   A    
C11   H26   S    
O31   P4    D    
C50   H63   S    
C54   O20   S    
Ba1   O4    S    
C62   H19   S    
C42   C43   A    
C63   H22   S    
C52   O18   S    
C42   C48   A    
C63   H25   S    
O6    P7    D    
C14   C20   A    
C28   H42   S    
C60   O29   S    
C4    H24   S    
C26   C29   A    
C6    H27   S    
Ba1   O1    S    
Ba2   O33   S    
C3    C6    A    
C41   C48   A    
C37   H37   S    
C49   O13   S    
O14   P6    S    
Ba2   O5    S    
C59   H57   S    
O5    P2    S    
C40   H23   S    
C50   H64   S    
C4    H33   S    
O3    P5    S    
C42   P5    S    
C53   H44   S    
C8    C14   A    
C56   H17   S    
C62   C63   S    
C45   C56   S    
C2    C64   A    
C2    C19   A    
C41   P7    S    
C53   O18   S    
Ba1   Ba2   S    
C15   C17   A    
C1    O24   S    
C30   C31   A    
C7    C10   A    
Ba2   O6    S    
C58   O25   D    
C61   H60   S    
C8    C9    A    
C23   C34   S    
O12   P2    S    
C21   H32   S    
C52   H6    S    
C18   C19   A    
C57   H51   S    
C29   P6    S    
O16   P3    S    
O23   P3    S    
C49   H56   S    
H48   O20   S    
C20   C21   A    
C28   C40   S    
O9    P8    S    
C54   O19   D    
Ba1   O5    S    
O33   P8    S    
O15   P2    D    
C61   H61   S    
O17   P3    D    
C5    C64   A    
C62   O9    S    
