data_mof_unit_22630.cif
_audit_creation_date              2013-03-05T15:46:31-0500
_audit_creation_method            fapswitch 2.2
_symmetry_space_group_name_H-M    P1
_symmetry_Int_Tables_number       1
_space_group_crystal_system       triclinic
_cell_length_a                    6.939615
_cell_length_b                    16.630199
_cell_length_c                    17.206217
_cell_angle_alpha                 100.289163
_cell_angle_beta                  90.275872
_cell_angle_gamma                 90.250519
_cell_volume                      1953.73798313

loop_
_atom_site_label
_atom_site_type_symbol
_atom_site_description
_atom_site_fract_x
_atom_site_fract_y
_atom_site_fract_z
_atom_type_partial_charge
O1    O     O_R   0.506180 0.438940 0.579430 -0.596911
O2    O     O_R   0.170520 0.406230 0.413590 -0.586513
O3    O     O_R   0.005180 0.561060 0.420570 -0.589784
C1    C     C_R   0.340245 0.378977 0.389489 0.956500
O4    O     O_R   0.176140 0.429310 0.578370 -0.598854
O5    O     O_R   0.010830 0.584300 0.586530 -0.593033
C2    C     C_R   0.343777 0.415280 0.606545 0.937076
O6    O     O_R   0.500520 0.415700 0.413470 -0.587825
O7    O     O_3   0.340830 0.550820 0.502480 -0.272935
V1    V     V_3+5 0.064040 0.490570 0.499540 1.160839
O8    O     O_R   0.681400 0.593770 0.586410 -0.593306
C3    C     C_R   0.849869 0.615020 0.616338 0.964914
O9    O     O_R   0.675790 0.570690 0.421630 -0.604906
C4    C     C_R   0.842507 0.586442 0.394883 0.942368
V2    V     V_3+5 0.564650 0.509430 0.500460 1.154376
O10   O     O_3   0.837730 0.449180 0.497520 -0.269825
C5    C     C_R   0.928791 0.860685 0.166326 -0.113128
C6    C     C_R   0.837584 0.639541 0.333719 -0.127235
C7    C     C_R   0.645474 0.698560 0.238338 -0.210833
C8    C     C_R   0.665720 0.643540 0.290294 -0.146027
C9    C     C_R   0.991191 0.691583 0.322831 -0.285936
C10   C     C_R   0.970546 0.748191 0.271181 0.240444
C11   C     C_R   0.795939 0.752005 0.228808 0.235232
C12   C     C_R   0.775252 0.808607 0.177174 -0.240219
C13   C     C_R   0.100557 0.856839 0.209846 -0.112467
C14   C     C_R   0.120967 0.801692 0.261680 -0.220641
H1    H     H_    0.643020 0.810098 0.143652 0.139899
H2    H     H_    0.221948 0.895998 0.202915 0.121376
H3    H     H_    0.510935 0.699899 0.206347 0.147991
H4    H     H_    0.255488 0.800376 0.293681 0.117548
H5    H     H_    0.544052 0.604611 0.297387 0.131538
H6    H     H_    0.123507 0.690007 0.356280 0.136684
C15   C     C_R   0.878199 0.911129 0.724566 -0.190611
C16   C     C_R   0.857768 0.927031 0.648173 -0.080593
C17   C     C_R   0.839966 0.862938 0.584625 -0.118545
C18   C     C_R   0.841470 0.782441 0.597013 -0.158317
C19   C     C_R   0.860100 0.764175 0.674085 0.111822
C20   C     C_R   0.879491 0.830009 0.739063 0.108360
C21   C     C_R   0.857896 0.682017 0.686661 -0.284707
C22   C     C_R   0.871908 0.665531 0.765636 0.079759
C23   C     C_R   0.909219 0.732145 0.829210 0.041391
C24   C     C_R   0.903920 0.814147 0.816581 -0.251749
C25   C     C_R   0.846960 0.585647 0.785185 0.189776
C26   C     C_R   0.892362 0.572429 0.861501 -0.252566
C27   C     C_R   0.947168 0.636495 0.921414 0.376051
C28   C     C_R   0.948776 0.715914 0.905565 -0.306926
H7    H     H_    0.894783 0.963026 0.771960 0.110660
H8    H     H_    0.856647 0.989370 0.638105 0.182482
H9    H     H_    0.824878 0.875612 0.525330 0.125645
H10   H     H_    0.826718 0.734956 0.545404 0.095341
H11   H     H_    0.879907 0.511458 0.875044 0.179912
H12   H     H_    0.982827 0.765154 0.953795 0.160453
H13   H     H_    0.482776 0.504477 0.166274 0.162126
C29   C     C_R   0.308737 0.196799 0.399956 0.234267
C30   C     C_R   0.300856 0.112661 0.401167 -0.043820
C31   C     C_R   0.330851 0.055755 0.333757 -0.194828
C32   C     C_R   0.368571 0.081051 0.263202 -0.176839
C33   C     C_R   0.374212 0.165021 0.257309 0.097468
C34   C     C_R   0.344026 0.225646 0.326870 0.060746
C35   C     C_R   0.411843 0.187279 0.182685 -0.281093
C36   C     C_R   0.423206 0.271878 0.176553 -0.053464
C37   C     C_R   0.399364 0.332687 0.245880 0.110335
C38   C     C_R   0.354909 0.310681 0.320092 -0.259093
C39   C     C_R   0.458331 0.299361 0.103596 0.333838
C40   C     C_R   0.486387 0.382282 0.101741 -0.107934
C41   C     C_R   0.467006 0.440290 0.169207 -0.154523
C42   C     C_R   0.419006 0.416475 0.239710 -0.172896
H14   H     H_    0.273606 0.090179 0.455481 0.139881
H15   H     H_    0.326802 0.991187 0.336385 0.131020
H16   H     H_    0.394853 0.032968 0.213255 0.110996
H17   H     H_    0.513349 0.402361 0.046222 0.172921
H18   H     H_    0.397538 0.465489 0.289233 0.125852
C43   C     C_R   0.424537 0.134153 0.829126 -0.173440
C44   C     C_R   0.342807 0.361595 0.667398 -0.149308
C45   C     C_R   0.162385 0.307096 0.767995 -0.068983
C46   C     C_R   0.181890 0.362782 0.716828 -0.138087
C47   C     C_R   0.487853 0.303680 0.671554 -0.212581
C48   C     C_R   0.466823 0.244405 0.721136 0.021081
C49   C     C_R   0.302190 0.247196 0.770337 0.170154
C50   C     C_R   0.279647 0.190881 0.822014 -0.091113
C51   C     C_R   0.585614 0.130552 0.779232 -0.270599
C52   C     C_R   0.605777 0.182794 0.723793 0.336771
H19   H     H_    0.153184 0.193733 0.859070 0.175053
H20   H     H_    0.696097 0.085570 0.782655 0.158092
H21   H     H_    0.035905 0.310283 0.805130 0.128754
H22   H     H_    0.069235 0.406929 0.715620 0.132132
H23   H     H_    0.613315 0.304331 0.634695 0.186196
O11   O     O_R   0.265840 0.084300 0.086750 -0.572645
O12   O     O_R   0.589750 0.070740 0.921690 -0.579794
O13   O     O_R   0.755020 0.915730 0.913400 -0.598539
C53   C     C_R   0.422391 0.083505 0.892639 1.070901
O14   O     O_R   0.595830 0.093740 0.086480 -0.587416
O15   O     O_R   0.761150 0.938890 0.079360 -0.603745
C54   C     C_R   0.426370 0.120002 0.111990 1.020443
O16   O     O_R   0.259710 0.061140 0.920790 -0.585496
O17   O     O_3   0.425260 0.949200 0.997610 -0.291015
V3    V     V_3+5 0.702060 0.009430 0.000450 1.211867
O18   O     O_R   0.090530 0.929220 0.078150 -0.602176
C55   C     C_R   0.923876 0.913594 0.105041 0.936427
O19   O     O_R   0.084440 0.906220 0.913360 -0.598394
C56   C     C_R   0.915322 0.883491 0.884908 0.930806
V4    V     V_3+5 0.201450 0.990520 0.999290 1.204812
O20   O     O_3   0.928380 0.050800 0.002390 -0.244214
C57   C     C_3   0.749234 0.515378 0.731479 -0.941825
H24   H     H_    0.717481 0.463379 0.762053 0.236217
H25   H     H_    0.608401 0.536134 0.711889 0.255157
H26   H     H_    0.840716 0.490709 0.680427 0.245545
C58   C     C_3   0.283723 0.250924 0.478901 -0.935307
H27   H     H_    0.151090 0.287569 0.478807 0.263730
H28   H     H_    0.266572 0.215926 0.527776 0.263802
H29   H     H_    0.415228 0.288658 0.492975 0.225689
N1    N     N_R   0.442044 0.246725 0.029117 0.193223
O21   O     O_R   0.579660 0.246587 0.978000 -0.425434
O22   O     O_R   0.269790 0.223957 0.004193 -0.445390
N2    N     N_R   0.765693 0.171033 0.670182 0.218489
O23   O     O_R   0.931213 0.147632 0.693804 -0.456147
O24   O     O_R   0.736619 0.167138 0.594824 -0.426936
N3    N     N_R   0.993865 0.621316 0.999245 0.240836
O25   O     O_R   0.979127 0.548094 0.015628 -0.398135
O26   O     O_R   0.055812 0.680182 0.054015 -0.418463

loop_
_geom_bond_atom_site_label_1
_geom_bond_atom_site_label_2
_geom_bond_distance
_ccdc_geom_bond_type
C27   N3    1.442016 S    
C30   C31   1.377004 A    
O17   V4    1.699407 S    
C6    C9    1.404340 A    
C23   C24   1.419334 A    
C4    C6    1.490106 S    
O2    C1    1.306477 A    
C7    C8    1.395795 A    
C12   H1    1.084235 S    
C1    O6    1.296121 A    
C57   H25   1.108719 S    
C30   H14   1.083882 S    
C47   C48   1.421681 A    
C58   H27   1.106259 S    
C13   H2    1.082522 S    
C1    C38   1.497949 S    
C19   C20   1.423632 A    
C44   C46   1.405034 A    
C37   C42   1.422250 A    
C18   C19   1.417797 A    
C52   N2    1.438058 S    
C16   C17   1.388569 A    
O5    C3    1.299488 A    
C7    H3    1.083886 S    
C39   N1    1.420659 S    
C33   C35   1.423387 A    
N2    O23   1.300746 A    
C28   H12   1.081070 S    
C31   C32   1.379788 A    
C42   H18   1.080207 S    
C25   C57   1.510210 S    
C57   H24   1.111338 S    
N3    O25   1.301732 A    
O8    V2    2.012035 S    
C45   H21   1.084054 S    
C22   C25   1.437425 A    
C17   C18   1.392716 A    
N2    O24   1.301351 A    
C44   C47   1.406517 A    
C17   H9    1.082719 S    
C23   C28   1.413550 A    
O1    V2    1.988788 S    
C32   H16   1.080982 S    
O12   C53   1.295478 A    
O7    V1    2.158740 S    
O15   C55   1.308889 A    
O13   V3    1.995789 S    
O16   V4    1.983652 S    
C41   C42   1.383373 A    
O9    C4    1.290154 A    
C36   C37   1.430157 A    
C50   H19   1.083476 S    
C43   C51   1.407678 A    
N1    O21   1.301151 A    
C31   H15   1.083009 S    
O14   V3    1.994641 S    
C51   C52   1.407336 A    
C2    C44   1.492435 S    
C29   C34   1.445319 A    
C9    H6    1.084229 S    
O11   C54   1.295994 A    
C5    C12   1.404209 A    
C43   C53   1.494245 S    
C21   C22   1.436375 A    
O4    C2    1.296215 A    
C48   C49   1.421225 A    
C13   C14   1.395955 A    
C40   H17   1.083585 S    
O12   V3    1.993455 S    
C35   C36   1.431377 A    
C36   C39   1.432159 A    
C7    C11   1.397413 A    
C45   C46   1.393674 A    
O13   C56   1.296866 A    
C37   C38   1.424549 A    
C48   C52   1.416575 A    
C11   C12   1.412320 A    
O17   V3    2.158761 S    
O14   C54   1.306654 A    
C15   C16   1.393011 A    
H13   C41   1.082700 S    
C5    C55   1.489520 S    
V3    O20   1.709676 S    
O3    C4    1.309168 A    
N1    O22   1.299729 A    
C26   H11   1.083381 S    
C22   C23   1.432717 A    
C14   H4    1.083824 S    
O6    V2    2.005527 S    
O9    V2    1.992311 S    
C25   C26   1.404123 A    
C15   H7    1.081624 S    
C16   H8    1.081227 S    
O2    V1    1.994729 S    
C24   C56   1.494084 S    
O15   V3    1.988867 S    
C51   H20   1.082231 S    
C18   H10   1.081911 S    
C26   C27   1.393855 A    
O19   V4    2.012167 S    
C29   C30   1.403928 A    
O1    C2    1.307444 A    
O5    V1    1.995811 S    
O11   V4    2.011361 S    
O8    C3    1.297097 A    
C20   C24   1.414644 A    
C34   C38   1.441243 A    
C15   C20   1.415110 A    
C58   H29   1.106264 S    
C29   C58   1.500770 S    
C5    C13   1.412383 A    
C39   C40   1.397847 A    
C3    C21   1.491898 S    
C33   C34   1.437383 A    
O4    V1    1.993287 S    
C19   C21   1.421013 A    
O3    V1    1.988760 S    
O18   V4    1.992538 S    
C32   C33   1.418444 A    
O19   C56   1.297840 A    
C43   C50   1.401543 A    
C58   H28   1.111457 S    
C6    C8    1.412452 A    
C40   C41   1.377985 A    
O7    V2    1.699655 S    
V4    O20   2.144131 S    
N3    O26   1.301583 A    
C53   O16   1.308976 A    
C49   C50   1.410556 A    
C27   C28   1.395511 A    
C47   H23   1.080776 S    
O18   C55   1.290196 A    
C10   C14   1.397676 A    
C46   H22   1.077461 S    
C10   C11   1.418630 A    
V1    O10   1.709666 S    
C9    C10   1.412581 A    
C45   C49   1.399156 A    
C57   H26   1.105379 S    
V2    O10   2.144112 S    
C8    H5    1.082287 S    
C35   C54   1.502514 S    
