data_mof_unit_30541.cif
_audit_creation_date              2012-12-11T15:57:31-0500
_audit_creation_method            fapswitch 2.2
_symmetry_space_group_name_H-M    P1
_symmetry_Int_Tables_number       1
_space_group_crystal_system       triclinic
_cell_length_a                    10.72104
_cell_length_b                    10.777538
_cell_length_c                    17.023551
_cell_angle_alpha                 99.406638
_cell_angle_beta                  99.501174
_cell_angle_gamma                 61.414038
_cell_volume                      1695.41832121

loop_
_atom_site_label
_atom_site_type_symbol
_atom_type_description
_atom_site_fract_x
_atom_site_fract_y
_atom_site_fract_z
_atom_type_partial_charge
C1    C     C_R   0.354001 0.777271 0.402661 0.578160
C2    C     C_2   0.265264 0.258581 0.794641 -0.070852
C3    C     C_2   0.361172 0.157662 0.746847 0.226542
C4    C     C_R   0.369850 0.346837 0.357105 0.556461
C5    C     C_2   0.365049 0.185577 0.664901 -0.159986
C6    C     C_1   0.817160 0.342117 0.708733 -0.041055
C7    C     C_1   0.844285 0.313730 0.776418 -0.044113
C8    C     C_1   0.339273 0.809522 0.709169 -0.000312
C9    C     C_1   0.313533 0.837249 0.777269 0.000526
C10   C     C_R   0.897916 0.305484 0.088078 0.592559
C11   C     C_R   0.319024 0.299544 0.119683 0.564697
C12   C     C_2   0.837779 0.320512 0.161452 0.205995
C13   C     C_R   0.292007 0.895630 0.085429 0.613323
C14   C     C_R   0.886001 0.296938 0.858592 0.529378
C15   C     C_R   0.272827 0.246909 0.879541 0.589467
C16   C     C_R   0.778374 0.376377 0.405996 0.555444
C17   C     C_R   0.278895 0.884317 0.856799 0.534323
C18   C     C_R   0.358341 0.769310 0.627234 0.546099
C19   C     C_R   0.366010 0.345595 0.580247 0.551188
C20   C     C_R   0.772828 0.381178 0.629698 0.544661
C21   C     C_1   0.343375 0.336935 0.273754 0.029571
C22   C     C_1   0.331877 0.326891 0.202895 0.035982
C23   C     C_2   0.895147 0.206933 0.204954 0.387527
C24   C     C_2   0.860000 0.326778 0.337669 -0.082149
C25   C     C_3   0.600255 0.456060 0.175832 -0.043153
C26   C     C_3   0.534523 0.484708 0.089788 -0.338682
C27   C     C_3   0.682342 0.759467 0.302765 -0.003504
C28   C     C_3   0.750967 0.856226 0.307763 -0.264920
C29   C     C_3   0.595908 0.978154 0.757700 0.003983
C30   C     C_3   0.698265 0.868196 0.814203 -0.333283
C31   C     C_2   0.859355 0.220146 0.285357 0.424758
C32   C     C_2   0.325261 0.860451 0.336788 0.400891
C33   C     C_2   0.337914 0.839690 0.162484 0.388180
C34   C     C_2   0.402112 0.896626 0.221168 0.352998
C35   C     C_2   0.432881 0.855392 0.302874 0.271032
C36   C     C_2   0.310940 0.317518 0.643767 -0.143989
Cr1   Cr    Cr6+3 0.608020 0.610770 0.522990 1.039802
Cr2   Cr    Cr6+3 0.289390 0.599570 0.488050 1.052970
Cr3   Cr    Cr6+3 0.602610 0.289690 0.489020 1.079416
Cr4   Cr    Cr6+3 0.053780 0.052210 0.965970 1.071394
Cr5   Cr    Cr6+3 0.060060 0.372530 0.992430 1.050778
Cr6   Cr    Cr6+3 0.372600 0.061970 0.991430 1.072711
F1    F     F_    0.990007 0.075220 0.175848 -0.542415
F2    F     F_    0.819032 0.126831 0.303298 -0.590472
F3    F     F_    0.438681 0.995241 0.207398 -0.655709
F4    F     F_    0.296168 0.745309 0.177165 -0.647987
F5    F     F_    0.188703 0.921790 0.301273 -0.554894
H1    H     H_    0.431861 0.096977 0.625106 0.147653
H2    H     H_    0.659783 0.725308 0.239109 0.164048
H3    H     H_    0.762162 0.661146 0.329926 0.172818
H4    H     H_    0.783918 0.881125 0.371212 0.171217
H5    H     H_    0.846783 0.802480 0.274216 0.158746
H6    H     H_    0.674805 0.956855 0.281755 0.256601
H7    H     H_    0.625512 0.065900 0.765514 0.138050
H8    H     H_    0.609271 0.925652 0.695611 0.137574
H9    H     H_    0.673430 0.777752 0.806990 0.164910
H10   H     H_    0.809763 0.827912 0.800568 0.104416
H11   H     H_    0.688397 0.916719 0.877134 0.168342
H12   H     H_    0.177689 0.353959 0.772063 0.055144
H13   H     H_    0.241608 0.410607 0.679757 0.101519
H14   H     H_    0.901782 0.393276 0.322713 0.062773
H15   H     H_    0.529882 0.543188 0.217208 0.195090
H16   H     H_    0.602990 0.357499 0.190331 0.133795
H17   H     H_    0.595132 0.392230 0.047564 0.135879
H18   H     H_    0.422537 0.502675 0.083263 0.165643
H19   H     H_    0.535996 0.580031 0.074157 0.160173
O1    O     O_R   0.749250 0.499990 0.439200 -0.519377
O2    O     O_R   0.411120 0.181190 0.091480 -0.458960
O3    O     O_R   0.364220 0.944920 0.062310 -0.493335
O4    O     O_R   0.477870 0.725740 0.440280 -0.489183
O5    O     O_R   0.158740 0.906940 0.874970 -0.523326
O6    O     O_R   0.930920 0.176940 0.885610 -0.506707
O7    O     O_R   0.910730 0.394510 0.895320 -0.523633
O8    O     O_R   0.185840 0.361180 0.920280 -0.513099
O9    O     O_R   0.399210 0.173040 0.915160 -0.474465
O10   O     O_R   0.353170 0.937370 0.898860 -0.493720
O11   O     O_3   0.162150 0.162240 0.983280 -0.305374
O12   O     O_R   0.299400 0.468710 0.556310 -0.498961
O13   O     O_R   0.260770 0.742210 0.412610 -0.461049
O14   O     O_R   0.297990 0.466320 0.394220 -0.507938
O15   O     O_R   0.487720 0.253870 0.385870 -0.470927
O16   O     O_R   0.721940 0.304340 0.422320 -0.431879
O17   O     O_R   0.750770 0.502570 0.614050 -0.513101
O18   O     O_R   0.479280 0.728140 0.602370 -0.502725
O19   O     O_R   0.262290 0.744790 0.587460 -0.516543
O20   O     O_3   0.735417 0.453185 0.188998 -0.648383
O21   O     O_3   0.563504 0.825458 0.348302 -0.573978
O22   O     O_3   0.454802 0.026808 0.775547 -0.539309
O23   O     O_R   0.489240 0.256450 0.560730 -0.511664
O24   O     O_R   0.723350 0.306730 0.584410 -0.498415
O25   O     O_3   0.500010 0.500010 0.500020 -0.278503
O26   O     O_R   0.170650 0.915100 0.051290 -0.424336
O27   O     O_R   0.941960 0.184500 0.049060 -0.467266
O28   O     O_R   0.922640 0.402670 0.071640 -0.491009
O29   O     O_R   0.196880 0.368740 0.083740 -0.490565

loop_
_geom_bond_atom_site_label_1
_geom_bond_atom_site_label_2
_ccdc_geom_bond_type
C15   O9    A    
C5    C36   D    
C24   H14   S    
Cr4   O5    S    
C29   H8    S    
Cr4   O27   S    
C12   C23   D    
Cr6   O9    S    
C13   O3    A    
C4    O14   A    
C19   C36   S    
Cr5   O11   S    
C28   H4    S    
C29   H7    S    
C10   O28   A    
C30   H10   S    
C30   H11   S    
C23   F1    S    
C34   C35   S    
C25   H16   S    
C26   H17   S    
C29   O22   S    
Cr5   O8    S    
C35   O21   S    
C7    C14   S    
C4    O15   A    
C8    C9    T    
C17   O10   A    
C18   O18   A    
Cr1   O18   S    
Cr3   O24   S    
C27   H3    S    
C16   C24   S    
Cr1   O4    S    
Cr6   O2    S    
C33   F4    S    
Cr3   O25   S    
C5    H1    S    
C18   O19   A    
C31   F2    S    
Cr1   O25   S    
Cr2   O19   S    
C26   H19   S    
C32   C35   D    
Cr3   O15   S    
C34   F3    S    
C2    H12   S    
Cr2   O12   S    
C10   O27   A    
C3    C5    S    
C25   C26   S    
C20   O24   A    
Cr2   O25   S    
Cr6   O3    S    
C8    C18   S    
C23   C31   S    
C19   O12   A    
C14   O7    A    
C13   C33   S    
C29   C30   S    
C19   O23   A    
Cr5   O28   S    
C16   O16   A    
C33   C34   D    
C16   O1    A    
Cr4   O26   S    
C27   O21   S    
C2    C15   S    
C10   C12   S    
C9    C17   S    
C17   O5    A    
C13   O26   A    
C1    O13   A    
C32   F5    S    
C11   O2    A    
C11   O29   A    
Cr4   O6    S    
C3    O22   S    
C26   H18   S    
C14   O6    A    
Cr3   O16   S    
C36   H13   S    
C28   H6    S    
C30   H9    S    
C6    C7    T    
C6    C20   S    
C11   C22   S    
Cr6   O10   S    
C1    O4    A    
C12   O20   S    
C2    C3    D    
C24   C31   D    
C4    C21   S    
C28   H5    S    
Cr5   O29   S    
Cr2   O14   S    
Cr1   O1    S    
C25   O20   S    
C25   H15   S    
C1    C32   S    
Cr5   O7    S    
C15   O8    A    
Cr6   O11   S    
Cr2   O13   S    
C20   O17   A    
C27   C28   S    
Cr4   O11   S    
Cr1   O17   S    
C21   C22   T    
Cr3   O23   S    
C27   H2    S    
