data_mof_unit_67277.cif
_audit_creation_date              2013-03-05T16:01:58-0500
_audit_creation_method            fapswitch 2.2
_symmetry_space_group_name_H-M    P1
_symmetry_Int_Tables_number       1
_space_group_crystal_system       triclinic
_cell_length_a                    8.530353
_cell_length_b                    14.882305
_cell_length_c                    15.08137
_cell_angle_alpha                 97.079516
_cell_angle_beta                  97.394449
_cell_angle_gamma                 93.10455
_cell_volume                      1879.42664462

loop_
_atom_site_label
_atom_site_type_symbol
_atom_site_description
_atom_site_fract_x
_atom_site_fract_y
_atom_site_fract_z
_atom_type_partial_charge
P1    P     P_3+3 0.018620 0.416870 0.295980 0.477444
O1    O     O_2   0.841250 0.444240 0.280450 -0.283228
O2    O     O_3   0.112870 0.447390 0.393710 -0.419037
O3    O     O_3   0.597960 0.615760 0.327700 -0.385373
O4    O     O_2   0.677986 0.546742 0.171612 -0.320240
O5    O     O_3   0.971111 0.300325 0.269212 -0.607446
O6    O     O_3   0.591661 0.713955 0.179966 -0.517072
C1    C     C_3   0.594756 0.876716 0.232165 -0.765798
P2    P     P_3+3 0.635650 0.716500 0.560900 0.435692
P3    P     P_3+3 0.049915 0.782334 0.376585 0.469295
O7    O     O_2   0.802240 0.729720 0.532850 -0.366281
O8    O     O_3   0.017190 0.664840 0.371090 -0.300767
O9    O     O_2   0.948454 0.820309 0.447405 -0.418336
O10   O     O_3   0.687010 0.745660 0.678335 -0.567595
O11   O     O_3   0.959497 0.827669 0.281209 -0.563567
C2    C     C_3   0.015794 0.802000 0.197704 0.282842
C3    C     C_3   0.968294 0.875812 0.136832 -0.781472
C4    C     C_3   0.217427 0.766354 0.700438 0.291994
H1    H     H_    0.161289 0.757991 0.629161 0.095888
C5    C     C_3   0.190992 0.861507 0.748599 -0.871949
H2    H     H_    0.067301 0.878546 0.736537 0.196480
Ba1   Ba    Ba6+2 0.833410 0.543320 0.453520 1.615140
C6    C     C_3   0.098542 0.249913 0.292888 0.226584
C7    C     C_3   0.106405 0.171066 0.216861 -0.564104
H3    H     H_    0.223312 0.142303 0.225007 0.167086
C8    C     C_3   0.776898 0.683943 0.722176 0.302267
C9    C     C_3   0.861561 0.733449 0.813702 -0.659441
H4    H     H_    0.928176 0.685161 0.852112 0.182874
P4    P     P_3+3 0.171070 0.583210 0.704020 0.518117
O12   O     O_2   0.348460 0.555790 0.719610 -0.363279
O13   O     O_3   0.076820 0.552690 0.606290 -0.329273
O14   O     O_3   0.591740 0.384320 0.672310 -0.400794
O15   O     O_3   0.159466 0.698811 0.747388 -0.607248
P5    P     P_3+3 0.147065 0.217180 0.623456 0.486765
O16   O     O_3   0.629090 0.386360 0.459240 -0.347136
O17   O     O_3   0.172500 0.335240 0.628910 -0.391419
O18   O     O_2   0.268566 0.177181 0.564978 -0.331225
O19   O     O_3   0.218067 0.184740 0.728301 -0.523965
Ba2   Ba    Ba6+2 0.356410 0.456750 0.546480 1.634688
P6    P     P_3+3 0.552023 0.605513 0.210275 0.523191
C10   C     C_3   0.587558 0.779125 0.256003 0.497990
H5    H     H_    0.479511 0.767684 0.288011 0.015883
O20   O     O_3   0.560600 0.613720 0.540760 -0.428787
C11   C     C_3   0.581844 0.274779 0.260560 0.339894
C12   C     C_3   0.574012 0.207067 0.172438 -0.606396
H6    H     H_    0.447031 0.187654 0.147443 0.141548
P7    P     P_3+3 0.554483 0.268493 0.432154 0.466895
O21   O     O_2   0.387470 0.270310 0.467210 -0.345428
O22   O     O_3   0.487963 0.236441 0.316982 -0.627425
H7    H     H_    0.997306 0.944194 0.176484 0.249986
C13   C     C_3   0.138644 0.224815 0.797616 0.151297
C14   C     C_3   0.119220 0.156346 0.865752 -0.489117
H8    H     H_    0.076775 0.192107 0.925625 0.212703
P8    P     P_3+3 0.640476 0.380911 0.786673 0.550705
C15   C     C_3   0.627806 0.210680 0.730181 0.465423
H9    H     H_    0.757552 0.220074 0.729938 0.011283
O23   O     O_2   0.520029 0.439293 0.831349 -0.323766
O24   O     O_3   0.579974 0.269692 0.800234 -0.452532
H10   H     H_    0.564885 0.221428 0.663554 0.123671
C16   C     C_3   0.587217 0.113290 0.743160 -0.830265
H11   H     H_    0.619361 0.102901 0.814635 0.300970
C17   C     C_R   0.348291 0.551830 0.166608 0.248848
H12   H     H_    0.469770 0.622030 0.029728 0.203109
C18   C     C_R   0.113920 0.470934 0.205811 0.299717
C19   C     C_R   0.928492 0.477872 0.768862 -0.441769
C20   C     C_R   0.851433 0.428354 0.826566 0.266645
C21   C     C_R   0.931999 0.421398 0.913299 -0.241394
C22   C     C_R   0.065784 0.482783 0.949867 0.010477
C23   C     C_R   0.144760 0.529136 0.887376 -0.057250
C24   C     C_R   0.128830 0.495540 0.045670 0.041991
C25   C     C_R   0.279964 0.543237 0.074150 0.038104
C26   C     C_R   0.356647 0.583878 0.010459 -0.060413
C27   C     C_R   0.287913 0.580117 0.920800 -0.074386
C28   C     C_R   0.044714 0.464777 0.114602 -0.253578
C29   C     C_R   0.262909 0.516225 0.229561 -0.419653
C30   C     C_R   0.079773 0.521690 0.793100 0.193652
H13   H     H_    0.923041 0.438795 0.099099 0.208541
H14   H     H_    0.866598 0.487044 0.704709 0.173733
C31   C     C_R   0.708012 0.943124 0.547685 -0.099613
C32   C     C_R   0.514889 0.801357 0.503972 0.111772
C33   C     C_R   0.362255 0.767325 0.461329 -0.467367
C34   C     C_R   0.255129 0.823772 0.423794 0.179951
C35   C     C_R   0.301805 0.912721 0.421203 -0.316589
C36   C     C_R   0.455861 0.950033 0.456349 0.031099
C37   C     C_R   0.561933 0.897202 0.504436 0.013216
C38   C     C_R   0.644268 0.086583 0.486645 0.028457
C39   C     C_R   0.754405 0.033738 0.532827 -0.077391
C40   C     C_R   0.683586 0.183091 0.487267 0.138846
C41   C     C_R   0.832140 0.220151 0.533767 -0.442852
C42   C     C_R   0.944894 0.166157 0.572882 0.198733
C43   C     C_R   0.910742 0.072335 0.564307 -0.164427
C44   C     C_R   0.501982 0.039547 0.442267 -0.042107
H15   H     H_    0.213249 0.951514 0.389213 0.197080
H16   H     H_    0.689695 0.773691 0.308041 0.141417
C45   C     C_2   0.243894 0.869877 0.848948 0.815089
H17   H     H_    0.183131 0.828975 0.890120 0.028992
O25   O     O_2   0.360035 0.919156 0.883840 -0.562894
H18   H     H_    0.259852 0.914424 0.720997 0.236868
C46   C     C_2   0.066562 0.216220 0.378273 0.750499
H19   H     H_    0.108238 0.258085 0.440953 -0.022590
O26   O     O_2   0.988347 0.145067 0.378344 -0.583318
H20   H     H_    0.214169 0.290652 0.304313 0.055435
H21   H     H_    0.014807 0.115397 0.217890 0.252080
C47   C     C_2   0.085492 0.201478 0.125813 0.735618
H22   H     H_    0.168201 0.253005 0.109624 -0.046257
O27   O     O_2   0.976394 0.167364 0.069294 -0.555056
H23   H     H_    0.867322 0.658223 0.681013 0.083757
C48   C     C_2   0.672356 0.605523 0.738088 0.551587
H24   H     H_    0.623720 0.555296 0.682183 0.090406
O28   O     O_2   0.644297 0.596038 0.813853 -0.532407
H25   H     H_    0.718178 0.903351 0.233646 0.245656
H26   H     H_    0.946098 0.785279 0.800505 0.172527
C49   C     C_2   0.755283 0.783480 0.871668 0.819052
H27   H     H_    0.705306 0.844848 0.852266 0.115715
O29   O     O_2   0.725952 0.756402 0.941269 -0.569411
H28   H     H_    0.548818 0.920633 0.285997 0.116409
C50   C     C_2   0.511923 0.361121 0.240769 0.599512
H29   H     H_    0.435871 0.364640 0.177957 -0.073919
O30   O     O_2   0.534598 0.427198 0.297937 -0.539075
H30   H     H_    0.705805 0.288375 0.292902 0.150390
C51   C     C_2   0.643141 0.246053 0.097517 0.641824
H31   H     H_    0.624342 0.207985 0.030489 0.135708
O31   O     O_2   0.719629 0.319117 0.110410 -0.579014
C52   C     C_2   0.652498 0.120656 0.186269 0.578400
H32   H     H_    0.646772 0.067155 0.129856 0.037607
O32   O     O_2   0.722560 0.109118 0.259237 -0.580310
C53   C     C_2   0.500935 0.888222 0.143317 0.770719
H33   H     H_    0.407672 0.934981 0.141506 -0.006419
O33   O     O_2   0.530853 0.847802 0.072737 -0.497316
C54   C     C_2   0.232604 0.311010 0.841369 0.583349
H34   H     H_    0.243718 0.366219 0.801840 0.076361
O34   O     O_2   0.296183 0.320359 0.919641 -0.597939
H35   H     H_    0.018585 0.243725 0.772098 -0.000391
C55   C     C_2   0.272719 0.117219 0.896016 0.784678
H36   H     H_    0.335958 0.080707 0.847046 0.051832
O35   O     O_2   0.326008 0.125129 0.975842 -0.605376
C56   C     C_2   0.998837 0.079880 0.826768 0.560260
H37   H     H_    0.001083 0.045625 0.759557 0.070777
O36   O     O_2   0.899211 0.054561 0.871293 -0.512182
H38   H     H_    0.653631 0.068870 0.700079 0.235790
H39   H     H_    0.459488 0.094516 0.721574 0.276135
C57   C     C_2   0.935548 0.711399 0.154464 0.650293
H40   H     H_    0.855325 0.705295 0.091814 0.062720
O37   O     O_2   0.960478 0.643392 0.189696 -0.543296
H41   H     H_    0.315675 0.520092 0.298306 0.170970
C58   C     C_2   0.909556 0.336956 0.954337 0.548619
H42   H     H_    0.000908 0.320151 0.004565 0.035131
O38   O     O_2   0.796502 0.282448 0.930590 -0.529887
H43   H     H_    0.350726 0.617374 0.877815 0.226364
C59   C     C_2   0.312384 0.671440 0.455613 0.709547
H44   H     H_    0.355818 0.623381 0.407565 0.004431
O39   O     O_2   0.228968 0.645384 0.508067 -0.550234
C60   C     C_2   0.044746 0.013524 0.563580 0.546479
H45   H     H_    0.049785 0.966079 0.504819 0.080897
O40   O     O_2   0.150571 0.018613 0.626642 -0.616802
C61   C     C_2   0.192891 0.800047 0.206717 0.402299
H46   H     H_    0.265574 0.856258 0.246117 -0.013024
O41   O     O_2   0.254542 0.739546 0.164645 -0.635792
C62   C     C_2   0.878786 0.315489 0.531738 0.696752
H47   H     H_    0.905360 0.339652 0.470145 -0.006307
O42   O     O_2   0.876777 0.369537 0.598154 -0.608055
C63   C     C_2   0.796917 0.908021 0.624379 0.558968
H48   H     H_    0.901709 0.872684 0.615026 0.056040
O43   O     O_2   0.756110 0.921343 0.699187 -0.606383
C64   C     C_2   0.413903 0.073233 0.366143 0.556536
H49   H     H_    0.457664 0.069329 0.301955 0.037443
O44   O     O_2   0.284598 0.099774 0.373551 -0.594298
C65   C     C_2   0.045913 0.871276 0.052599 0.644638
H50   H     H_    0.041046 0.807533 0.008598 -0.009518
O45   O     O_2   0.114445 0.939038 0.033586 -0.548597
H51   H     H_    0.838995 0.869218 0.114697 0.232517
C66   C     C_2   0.389127 0.767494 0.709204 0.637033
H52   H     H_    0.448591 0.810894 0.670014 -0.006633
O46   O     O_2   0.460092 0.736619 0.772463 -0.559439

loop_
_geom_bond_atom_site_label_1
_geom_bond_atom_site_label_2
_geom_bond_distance
_ccdc_geom_bond_type
C11   O22   1.391595 S    
C6    C46   1.489584 S    
C15   H9    1.108574 S    
C64   H49   1.077660 S    
C15   H10   1.110600 S    
P5    O18   1.542427 D    
C14   C55   1.502064 S    
C10   H5    1.108723 S    
C54   O34   1.222095 D    
C45   H17   1.080081 S    
O16   P7    1.812300 S    
C31   C39   1.436975 A    
C33   C34   1.388690 A    
P7    O22   1.754795 S    
P4    C30   1.935185 S    
C12   H6    1.110423 S    
C29   H41   1.069192 S    
C1    C10   1.538559 S    
Ba1   O16   2.854670 S    
C56   O36   1.220533 D    
C8    C9    1.550742 S    
C63   H48   1.077325 S    
C19   C30   1.397455 A    
C35   C36   1.409047 A    
C61   H46   1.078779 S    
C43   C60   1.477190 S    
C39   C43   1.421516 A    
P3    O11   1.768938 S    
C50   O30   1.214604 D    
C62   H47   1.082259 S    
O16   Ba2   2.991810 S    
C32   C33   1.413554 A    
C38   C40   1.455716 A    
P2    Ba1   3.500902 S    
C6    H20   1.111696 S    
C11   H30   1.103062 S    
C33   C59   1.455744 S    
C35   H15   1.076476 S    
P4    O15   1.776268 S    
P6    C17   1.875527 S    
C48   H24   1.078309 S    
C23   C30   1.446641 A    
P1    O1    1.584009 D    
O14   Ba2   2.924213 S    
C3    C65   1.502325 S    
C22   C23   1.446134 A    
C44   C64   1.447239 S    
O3    P6    1.749669 S    
C48   O28   1.220393 D    
C2    C3    1.553925 S    
C28   H13   1.073883 S    
C24   C28   1.441853 A    
C6    C7    1.546851 S    
C62   O42   1.207424 D    
C23   C27   1.402805 A    
C24   C25   1.426062 A    
C60   O40   1.216158 D    
P4    O12   1.584467 D    
C58   O38   1.212893 D    
C40   C41   1.414931 A    
C65   O45   1.221278 D    
C20   C21   1.415530 A    
O2    Ba2   2.881176 S    
P1    Ba1   3.445092 S    
C64   O44   1.205472 D    
C15   C16   1.513906 S    
O14   P8    1.729012 S    
C47   H22   1.085043 S    
C13   C54   1.505730 S    
C66   O46   1.215445 D    
C41   C62   1.457774 S    
C63   O43   1.219334 D    
C12   C52   1.506313 S    
P2    O20   1.603485 S    
Ba1   O13   2.880481 S    
C58   H42   1.076786 S    
C21   C22   1.428988 A    
C7    H3    1.104767 S    
C1    H25   1.101193 S    
C8    C48   1.492080 S    
C38   C39   1.425798 A    
C4    H1    1.108337 S    
Ba2   O20   2.854157 S    
O19   C13   1.407087 S    
C12   C51   1.502365 S    
P3    C34   1.845450 S    
O10   C8    1.401502 S    
P1    O5    1.744910 S    
C16   H11   1.109343 S    
P1    O2    1.586032 S    
P2    C32   1.890406 S    
C8    H23   1.106145 S    
C2    C57   1.510055 S    
P2    O10   1.762733 S    
C53   O33   1.220136 D    
C2    C61   1.501474 S    
C32   C37   1.459619 A    
C16   H39   1.106576 S    
O3    Ba1   2.924832 S    
C1    C53   1.503560 S    
P7    O21   1.582553 D    
O6    P6    1.757940 S    
P4    Ba2   3.445805 S    
C21   C58   1.481603 S    
C45   O25   1.219944 D    
C14   C56   1.499439 S    
C14   H8    1.102851 S    
C36   C37   1.418284 A    
P2    O7    1.543399 D    
C51   H31   1.084350 S    
C55   H36   1.080318 S    
P3    O8    1.745786 S    
C16   H38   1.099805 S    
C9    C49   1.502404 S    
C65   H50   1.084181 S    
C46   O26   1.220826 D    
C5    C45   1.510363 S    
C9    H26   1.081277 S    
C19   C20   1.409034 A    
O8    Ba1   2.832408 S    
C59   O39   1.213717 D    
C17   C29   1.404571 A    
C15   O24   1.405356 S    
C31   C63   1.466965 S    
C53   H33   1.084894 S    
P1    C18   1.908114 S    
C31   C37   1.426174 A    
C66   H52   1.076827 S    
C52   O32   1.219057 D    
C49   H27   1.085096 S    
P8    O24   1.750980 S    
O12   Ba2   2.846471 S    
P5    C42   1.873332 S    
C19   H14   1.068803 S    
C27   H43   1.077315 S    
P5    O19   1.753126 S    
Ba1   Ba2   4.639796 S    
O17   Ba2   2.832949 S    
C11   C12   1.557537 S    
C26   C27   1.396078 A    
P3    O9    1.533416 D    
C3    H7    1.113169 S    
C4    C5    1.551441 S    
C55   O35   1.219941 D    
C3    H51   1.105912 S    
C47   O27   1.219989 D    
P8    C20   1.891514 S    
C4    C66   1.452548 S    
C10   H16   1.108526 S    
C56   H37   1.079999 S    
O7    Ba1   2.922533 S    
C46   H19   1.073543 S    
C7    H21   1.110549 S    
P7    C40   1.922368 S    
C61   O41   1.219110 D    
C54   H34   1.079968 S    
C60   H45   1.069853 S    
C13   C14   1.550908 S    
P4    O13   1.586032 S    
C38   C44   1.412280 A    
O1    Ba1   2.845777 S    
C13   H35   1.110250 S    
C42   C43   1.397476 A    
C11   C50   1.492559 S    
O5    C6    1.387977 S    
H12   C26   1.079736 S    
C18   C29   1.388666 A    
O13   Ba2   3.024176 S    
C17   C25   1.428010 A    
C57   O37   1.216010 D    
O6    C10   1.413072 S    
C4    O15   1.402832 S    
C51   O31   1.218305 D    
C1    H28   1.103934 S    
C25   C26   1.406561 A    
C5    H18   1.110033 S    
C5    H2    1.096195 S    
P5    O17   1.749115 S    
C22   C24   1.460878 A    
C34   C35   1.368237 A    
O4    P6    1.548196 D    
C9    H4    1.112214 S    
C57   H40   1.083967 S    
C18   C28   1.415323 A    
C59   H44   1.069564 S    
Ba2   O21   2.922610 S    
O2    Ba1   3.023159 S    
C36   C44   1.417417 A    
C7    C47   1.490320 S    
C41   C42   1.404746 A    
C50   H29   1.085682 S    
Ba1   O20   2.992807 S    
O11   C2    1.421097 S    
C52   H32   1.085484 S    
C49   O29   1.219741 D    
P8    O23   1.547623 D    
