data_mof_unit_31285.cif
_audit_creation_date              2012-12-10T16:44:38-0500
_audit_creation_method            fapswitch 2.2
_symmetry_space_group_name_H-M    P1
_symmetry_Int_Tables_number       1
_space_group_crystal_system       triclinic
_cell_length_a                    15.026869
_cell_length_b                    8.693762
_cell_length_c                    7.535564
_cell_angle_alpha                 103.263328
_cell_angle_beta                  93.685885
_cell_angle_gamma                 92.380075
_cell_volume                      954.598701174

loop_
_atom_site_label
_atom_site_type_symbol
_atom_type_description
_atom_site_fract_x
_atom_site_fract_y
_atom_site_fract_z
_atom_type_partial_charge
C1    C     C_R   0.497236 0.200031 0.453251 0.900083
C2    C     C_R   0.502766 0.799969 0.546748 0.900058
C3    C     C_R   0.037248 0.212507 0.414776 -0.162726
C4    C     C_R   0.962750 0.787509 0.585173 -0.162724
C5    C     C_2   0.496154 0.031689 0.427612 -0.292665
C6    C     C_2   0.503849 0.968311 0.572387 -0.292664
C7    C     C_R   0.329810 0.499884 0.502720 0.843025
C8    C     C_R   0.670190 0.500121 0.497280 0.843024
C9    C     C_R   0.816873 0.644169 0.543366 -0.092185
C10   C     C_R   0.183126 0.355844 0.456613 -0.092175
C11   C     C_R   0.766335 0.498841 0.492675 -0.125866
C12   C     C_R   0.233665 0.501170 0.507324 -0.125886
C13   C     C_R   0.807091 0.352678 0.454086 0.074989
C14   C     C_R   0.192910 0.647335 0.545921 0.074959
C15   C     C_R   0.901151 0.353388 0.454107 0.098448
C16   C     C_R   0.098849 0.646627 0.545870 0.098475
C17   C     C_R   0.952765 0.499483 0.499274 0.038775
C18   C     C_R   0.047234 0.500532 0.500696 0.038771
C19   C     C_R   0.910456 0.644593 0.543933 0.040320
C20   C     C_R   0.089543 0.355422 0.456035 0.040325
C21   C     C_R   0.945206 0.211470 0.411431 -0.205704
C22   C     C_R   0.054793 0.788546 0.588517 -0.205678
Cu1   Cu    Cu3+1 0.510010 0.517380 0.684380 1.015254
Cu2   Cu    Cu3+1 0.489990 0.482620 0.315620 1.015238
H1    H     H_    0.909990 0.096622 0.373598 0.157487
H2    H     H_    0.090007 0.903396 0.626320 0.157464
H3    H     H_    0.066637 0.098819 0.385723 0.168974
H4    H     H_    0.933360 0.901196 0.614212 0.168960
H5    H     H_    0.489087 0.959610 0.288428 0.186603
H6    H     H_    0.510915 0.040390 0.711571 0.186606
N1    N     N_2   0.474890 0.456420 0.038520 -0.248161
N2    N     N_2   0.525110 0.543580 0.961480 -0.248152
O1    O     O_R   0.506510 0.286130 0.619770 -0.576357
O2    O     O_R   0.493490 0.713870 0.380230 -0.576361
O3    O     O_R   0.489600 0.256770 0.308360 -0.593417
O4    O     O_R   0.510400 0.743230 0.691640 -0.593394
O5    O     O_R   0.378710 0.514640 0.655720 -0.581767
O6    O     O_R   0.621290 0.485360 0.344280 -0.581787
O7    O     O_R   0.361800 0.485290 0.344300 -0.595395
O8    O     O_R   0.638200 0.514710 0.655700 -0.595410
C23   C     C_2   0.771106 0.794280 0.603766 0.796069
O9    O     O_2   0.711643 0.829351 0.504469 -0.618095
O10   O     O_R   0.794849 0.893044 0.776104 -0.763990
H7    H     H_    0.758835 0.990767 0.801242 0.331699
C24   C     C_2   0.228891 0.205733 0.396208 0.796069
O11   O     O_2   0.288354 0.170658 0.495504 -0.618082
O12   O     O_R   0.205147 0.106974 0.223869 -0.764008
H8    H     H_    0.241159 0.009249 0.198724 0.331701
C25   C     C_3   0.749898 0.197952 0.422464 -0.396921
C26   C     C_3   0.727836 0.126702 0.219070 -0.738271
H9    H     H_    0.691930 0.211337 0.154906 0.280314
H10   H     H_    0.789543 0.096145 0.148715 0.260018
H11   H     H_    0.683822 0.018006 0.201229 0.284859
H12   H     H_    0.782804 0.111894 0.488990 0.220643
H13   H     H_    0.686532 0.214693 0.489926 0.199036
C27   C     C_3   0.250107 0.802063 0.577604 -0.396874
C28   C     C_3   0.272118 0.873311 0.781011 -0.738332
H14   H     H_    0.210403 0.904008 0.851256 0.260018
H15   H     H_    0.307920 0.788617 0.845250 0.280341
H16   H     H_    0.316206 0.981920 0.798908 0.284822
H17   H     H_    0.313493 0.785326 0.510222 0.199018
H18   H     H_    0.217225 0.888122 0.511045 0.220658
C29   C     C_2   0.384195 0.436106 0.972313 1.152619
O13   O     O_2   0.336605 0.548642 0.001828 -0.627186
O14   O     O_R   0.347723 0.285119 0.887144 -0.763699
H19   H     H_    0.281059 0.284113 0.855451 0.333238
C30   C     C_2   0.615806 0.563876 0.027676 1.152640
O15   O     O_2   0.663387 0.451328 0.998170 -0.627176
O16   O     O_R   0.652290 0.714854 0.112818 -0.763717
H20   H     H_    0.718953 0.715846 0.144508 0.333225

loop_
_geom_bond_atom_site_label_1
_geom_bond_atom_site_label_2
_ccdc_geom_bond_type
Cu1   O8    S    
Cu2   O6    S    
O10   H7    S    
C29   O14   S    
C15   C17   A    
Cu1   O4    S    
C23   O10   S    
C23   O9    D    
C9    C23   S    
O12   H8    S    
C13   C15   A    
C8    C11   S    
Cu1   Cu2   S    
Cu1   N2    S    
C2    O2    A    
C10   C24   S    
C3    H3    S    
C17   C18   A    
C7    O5    A    
Cu2   N1    S    
C1    O1    A    
C3    C20   A    
Cu1   O5    S    
C24   O11   D    
C14   C27   S    
C13   C25   S    
C9    C11   A    
C28   H14   S    
C2    C6    S    
C15   C21   A    
C10   C12   A    
N2    C30   S    
C1    C5    S    
C30   O15   D    
C6    H6    S    
C12   C14   A    
C26   H9    S    
C27   H18   S    
O16   H20   S    
C8    O6    A    
C10   C20   A    
C5    C6    D    
C14   C16   A    
C7    C12   S    
C3    C21   A    
Cu2   O3    S    
C28   H15   S    
C30   O16   S    
C25   H12   S    
C26   H11   S    
C5    H5    S    
N1    C29   S    
C11   C13   A    
Cu2   O7    S    
C4    C22   A    
C27   C28   S    
C1    O3    A    
C18   C20   A    
C16   C18   A    
O14   H19   S    
C22   H2    S    
C24   O12   S    
C2    O4    A    
C26   H10   S    
C25   C26   S    
C7    O7    A    
C27   H17   S    
C28   H16   S    
C21   H1    S    
C8    O8    A    
C17   C19   A    
C25   H13   S    
C4    C19   A    
C4    H4    S    
C9    C19   A    
Cu2   O2    S    
N1    N2    D    
C16   C22   A    
C29   O13   D    
Cu1   O1    S    
