data_mof_unit_56715.cif
_audit_creation_date              2012-12-11T15:26:58-0500
_audit_creation_method            fapswitch 2.2
_symmetry_space_group_name_H-M    P1
_symmetry_Int_Tables_number       1
_space_group_crystal_system       triclinic
_cell_length_a                    8.391324
_cell_length_b                    15.072503
_cell_length_c                    19.153921
_cell_angle_alpha                 96.717894
_cell_angle_beta                  93.653841
_cell_angle_gamma                 98.056256
_cell_volume                      2374.25655346

loop_
_atom_site_label
_atom_site_type_symbol
_atom_type_description
_atom_site_fract_x
_atom_site_fract_y
_atom_site_fract_z
_atom_type_partial_charge
Ba1   Ba    Ba6+2 0.161750 0.544670 0.467760 1.662820
Ba2   Ba    Ba6+2 0.648430 0.455320 0.532180 1.613102
C1    C     C_3   0.341078 0.783017 0.220125 -0.374577
C2    C     C_3   0.377304 0.749928 0.290133 0.369863
C3    C     C_3   0.567044 0.731291 0.641504 0.327809
C4    C     C_3   0.587606 0.834023 0.660894 -0.185922
C5    C     C_3   0.910566 0.216096 0.685862 0.334084
C6    C     C_3   0.879691 0.119165 0.701718 -0.381313
C7    C     C_3   0.399638 0.254785 0.713891 0.362187
C8    C     C_3   0.365402 0.227110 0.786613 -0.206617
C9    C     C_R   0.646861 0.830087 0.463196 -0.004491
C10   C     C_R   0.891135 0.792371 0.519365 0.075871
C11   C     C_R   0.102360 0.220985 0.487946 -0.230363
C12   C     C_3   0.848224 0.761614 0.269287 0.313680
C13   C     C_R   0.187692 0.163810 0.523518 0.044832
C14   C     C_R   0.113944 0.075926 0.528660 -0.153144
C15   C     C_R   0.952363 0.044037 0.500784 0.015621
C16   C     C_R   0.860309 0.107769 0.473092 -0.017848
C17   C     C_R   0.879687 0.950681 0.499167 0.007595
C18   C     C_R   0.717505 0.922716 0.469158 -0.016153
C19   C     C_R   0.630048 0.987547 0.445362 -0.091226
C20   C     C_R   0.699609 0.077076 0.447137 -0.056203
C21   C     C_R   0.962597 0.883549 0.525637 -0.134707
C22   C     C_R   0.736278 0.766564 0.486732 -0.286452
C23   C     C_3   0.908170 0.859895 0.263439 -0.176990
C24   C     C_R   0.933525 0.199374 0.469625 -0.028621
C25   C     C_R   0.611343 0.533870 0.300806 -0.241339
C26   C     C_R   0.451557 0.499078 0.279829 0.132183
C27   C     C_R   0.394052 0.493547 0.208174 -0.129160
C28   C     C_R   0.499919 0.516027 0.156187 -0.023267
C29   C     C_R   0.663972 0.547901 0.179064 -0.106825
C30   C     C_R   0.717671 0.557723 0.251326 0.023505
C31   C     C_R   0.468083 0.578223 0.037728 0.060477
C32   C     C_R   0.429385 0.563979 0.964123 -0.079342
C33   C     C_R   0.343786 0.482747 0.929894 0.023796
C34   C     C_3   0.688480 0.238411 0.307478 0.471776
C35   C     C_R   0.307143 0.411836 0.969880 -0.079407
C36   C     C_R   0.361684 0.419249 0.042142 0.042917
C37   C     C_R   0.441402 0.504361 0.078350 0.038941
C38   C     C_R   0.132240 0.432807 0.826064 -0.139261
C39   C     C_R   0.078923 0.434724 0.755014 0.015091
C40   C     C_R   0.341191 0.513738 0.734987 0.043164
C41   C     C_R   0.395288 0.512839 0.805610 -0.129267
C42   C     C_R   0.290434 0.474226 0.852743 -0.002235
C43   C     C_R   0.182688 0.477630 0.711841 -0.245156
C44   C     C_3   0.726014 0.142179 0.290529 -0.410619
C45   C     C_3   0.032294 0.656492 0.686894 0.298674
C46   C     C_3   0.975694 0.668770 0.761500 -0.187881
C47   C     C_3   0.255444 0.249580 0.323989 0.325966
C48   C     C_3   0.265444 0.163509 0.272945 0.081084
H1    H     H_    0.272077 0.700803 0.299671 0.117446
H2    H     H_    0.815243 0.127347 0.330456 0.089139
H3    H     H_    0.614509 0.092588 0.288723 0.064266
H4    H     H_    0.776396 0.132025 0.238779 0.184528
H5    H     H_    0.161707 0.649375 0.689188 0.010038
H6    H     H_    0.959308 0.593722 0.659216 0.048630
H7    H     H_    0.979398 0.605835 0.786068 0.067950
H8    H     H_    0.847240 0.679230 0.756983 0.101286
H9    H     H_    0.127238 0.256847 0.330423 0.055198
H10   H     H_    0.322628 0.245080 0.374594 -0.066892
H11   H     H_    0.299876 0.724191 0.179560 0.092620
H12   H     H_    0.381492 0.171666 0.248480 0.114122
H13   H     H_    0.486737 0.716105 0.287311 -0.075030
H14   H     H_    0.450982 0.823848 0.205172 0.096426
H15   H     H_    0.686469 0.710098 0.633156 0.005889
H16   H     H_    0.487776 0.713848 0.591588 0.035641
H17   H     H_    0.626853 0.866071 0.614275 0.027536
H18   H     H_    0.469171 0.855042 0.672484 0.113760
H19   H     H_    0.244519 0.825995 0.224264 0.141086
H20   H     H_    0.820830 0.902517 0.285641 0.070596
H21   H     H_    0.864489 0.216628 0.630192 0.057149
H22   H     H_    0.042812 0.239175 0.692206 -0.046850
H23   H     H_    0.748823 0.093174 0.691762 0.123406
H24   H     H_    0.947565 0.076391 0.666992 0.077635
H25   H     H_    0.919240 0.115515 0.757625 0.113658
H26   H     H_    0.317470 0.303974 0.702822 -0.040879
H27   H     H_    0.526037 0.288306 0.715185 0.111710
H28   H     H_    0.373474 0.289989 0.824097 0.053439
H29   H     H_    0.808370 0.758144 0.323484 -0.036760
H30   H     H_    0.239710 0.191417 0.785052 0.106672
H31   H     H_    0.681589 0.696501 0.482465 0.065170
H32   H     H_    0.505928 0.969963 0.423993 0.113398
H33   H     H_    0.082204 0.899749 0.551909 0.088170
H34   H     H_    0.185129 0.034789 0.556157 0.081959
H35   H     H_    0.625222 0.121012 0.425099 0.082013
H36   H     H_    0.517248 0.543972 0.823989 0.074407
H37   H     H_    0.458162 0.619098 0.933459 0.065198
H38   H     H_    0.744133 0.736682 0.229855 -0.015197
H39   H     H_    0.269600 0.465188 0.192123 0.119478
H40   H     H_    0.240892 0.348570 0.943750 0.069704
H41   H     H_    0.049639 0.402070 0.860555 0.076988
H42   H     H_    0.749150 0.565957 0.141075 0.075011
H43   H     H_    0.135950 0.487290 0.660515 0.002255
H44   H     H_    0.656112 0.537457 0.355491 0.071491
H45   H     H_    0.023838 0.877295 0.296610 0.114666
H46   H     H_    0.575963 0.238935 0.333955 0.018228
O1    O     O_2   0.164990 0.721870 0.541490 -0.451134
O2    O     O_3   0.332054 0.321276 0.293290 -0.628184
O3    O     O_3   0.975796 0.712084 0.257078 -0.616395
O4    O     O_2   0.645300 0.278070 0.458480 -0.496647
O5    O     O_3   0.917280 0.391520 0.460790 -0.469585
O6    O     O_3   0.421200 0.332510 0.586090 -0.491560
O7    O     O_3   0.817159 0.295495 0.346532 -0.587202
O8    O     O_3   0.383620 0.545480 0.584560 -0.496696
O9    O     O_3   0.845920 0.377940 0.622610 -0.501169
O10   O     O_2   0.740603 0.429347 0.747951 -0.494127
O11   O     O_3   0.830078 0.270331 0.732405 -0.608441
O12   O     O_3   0.893010 0.608480 0.539150 -0.498560
O13   O     O_3   0.426680 0.454510 0.415380 -0.507918
O14   O     O_2   0.638220 0.542340 0.670930 -0.464960
O15   O     O_3   0.495940 0.689547 0.695836 -0.659023
O16   O     O_2   0.529884 0.175428 0.549880 -0.483015
O17   O     O_3   0.372108 0.178655 0.662504 -0.621434
O18   O     O_3   0.389100 0.667490 0.413860 -0.503280
O19   O     O_2   0.313984 0.826804 0.469569 -0.478075
O20   O     O_3   0.011286 0.732727 0.654007 -0.657527
O21   O     O_3   0.401868 0.824208 0.342890 -0.616802
O22   O     O_2   0.172070 0.457600 0.329050 -0.439892
O23   O     O_3   0.964370 0.622050 0.377340 -0.467911
O24   O     O_2   0.049135 0.551835 0.250827 -0.473709
P1    P     P_3+3 0.990670 0.707470 0.561860 0.974353
P2    P     P_3+3 0.340140 0.430100 0.338890 1.009513
P3    P     P_3+3 0.925264 0.606602 0.284644 0.977817
P4    P     P_3+3 0.819620 0.292520 0.438080 0.978360
P5    P     P_3+3 0.875212 0.381945 0.714956 0.925632
P6    P     P_3+3 0.438348 0.786070 0.424286 0.930005
P7    P     P_3+3 0.465052 0.572398 0.673075 0.928406
P8    P     P_3+3 0.380685 0.212677 0.578120 0.940506
C49   C     C_3   0.073630 0.749450 0.809625 -0.199474
C50   C     C_3   0.233279 0.727173 0.840576 -0.443905
H47   H     H_    0.311349 0.709389 0.798231 0.157701
H48   H     H_    0.297905 0.786935 0.875663 0.121522
H49   H     H_    0.210819 0.669961 0.872043 0.134944
H50   H     H_    0.001062 0.768390 0.854096 0.106791
H51   H     H_    0.097082 0.809165 0.780770 0.145291
I1    I     I_    0.094734 0.148729 0.182688 -0.538757
C51   C     C_3   0.263602 0.077812 0.308996 -0.258327
C52   C     C_3   0.107021 0.053447 0.341788 -0.420309
H52   H     H_    0.081206 0.112206 0.375494 0.117734
H53   H     H_    0.006509 0.034446 0.300364 0.159796
H54   H     H_    0.117256 0.998251 0.374596 0.143072
H55   H     H_    0.282663 0.020442 0.269949 0.144550
H56   H     H_    0.364526 0.088176 0.350944 0.089065
C53   C     C_3   0.714259 0.869856 0.723073 -0.200522
C54   C     C_3   0.657824 0.848858 0.794539 -0.374596
H57   H     H_    0.741766 0.889574 0.837361 0.102639
H58   H     H_    0.534638 0.865935 0.800853 0.132588
H59   H     H_    0.658257 0.776658 0.800562 0.150409
H60   H     H_    0.828969 0.843159 0.714215 0.129885
H61   H     H_    0.740207 0.944298 0.725243 0.103961
C55   C     C_3   0.485818 0.169510 0.815402 -0.181758
C56   C     C_3   0.449764 0.070091 0.784073 -0.371941
H62   H     H_    0.470587 0.061304 0.727299 0.170872
H63   H     H_    0.531778 0.031538 0.811796 0.106462
H64   H     H_    0.323145 0.041666 0.791002 0.124506
H65   H     H_    0.478713 0.172865 0.873370 0.103614
H66   H     H_    0.611262 0.197562 0.806528 0.155607
C57   C     C_3   0.183143 0.314633 0.486060 -0.182471
C58   C     C_3   0.142323 0.367013 0.553844 -0.141912
H67   H     H_    0.018497 0.348222 0.555439 0.114420
H68   H     H_    0.174111 0.344260 0.604780 0.012167
H69   H     H_    0.167221 0.438838 0.554465 0.150483
H70   H     H_    0.312407 0.318877 0.478135 0.143865
H71   H     H_    0.145196 0.341684 0.438059 0.089440
C59   C     C_3   0.530992 0.674557 0.070297 -0.218451
C60   C     C_3   0.420772 0.741103 0.047391 -0.424766
H72   H     H_    0.436690 0.753708 0.992204 0.126283
H73   H     H_    0.292041 0.714612 0.052080 0.139985
H74   H     H_    0.450891 0.807387 0.080458 0.125349
H75   H     H_    0.539592 0.681166 0.128564 0.102381
H76   H     H_    0.654156 0.694531 0.053849 0.106798
C61   C     C_3   0.332468 0.333465 0.076784 -0.198913
C62   C     C_3   0.418896 0.259233 0.041755 -0.366323
H77   H     H_    0.365852 0.235458 0.987102 0.110811
H78   H     H_    0.549488 0.284517 0.040694 0.160811
H79   H     H_    0.405845 0.200529 0.072078 0.176396
H80   H     H_    0.374066 0.343824 0.133167 0.169422
H81   H     H_    0.200616 0.308940 0.072985 0.147938
C63   C     C_3   0.939550 0.877438 0.187558 -0.208248
C64   C     C_3   0.790452 0.900261 0.148107 -0.404041
H82   H     H_    0.690493 0.843886 0.146451 0.120349
H83   H     H_    0.753987 0.962926 0.174727 0.156907
H84   H     H_    0.816542 0.910568 0.093284 0.143696
H85   H     H_    0.037989 0.935298 0.189277 0.147943
H86   H     H_    0.980057 0.818060 0.157583 0.138965
I2    I     I_    0.663401 0.294514 0.210723 -0.485065

loop_
_geom_bond_atom_site_label_1
_geom_bond_atom_site_label_2
_ccdc_geom_bond_type
C61   H80   S    
C59   H76   S    
C51   H55   S    
C29   H42   S    
Ba2   O13   S    
C59   C60   S    
C50   H48   S    
C17   C18   A    
C16   C24   A    
O12   P1    S    
C41   C42   A    
C43   H43   S    
C27   H39   S    
C54   H57   S    
C8    H28   S    
C48   C51   S    
C12   O3    S    
O17   P8    S    
C62   H77   S    
C61   C62   S    
C10   C21   A    
C31   C37   A    
C47   H10   S    
C21   H33   S    
C35   H40   S    
C34   O7    S    
C46   C49   S    
C55   H66   S    
O3    P3    S    
C26   C27   A    
C1    H19   S    
C35   C36   A    
C32   C33   A    
O6    P8    S    
C58   H67   S    
C5    H21   S    
C3    C4    S    
O18   P6    S    
C26   P2    S    
O13   P2    S    
Ba2   O6    S    
C1    H11   S    
C13   C14   A    
C44   H2    S    
C9    C22   A    
C14   H34   S    
Ba1   Ba2   S    
O22   P2    D    
C20   H35   S    
Ba1   P2    S    
C53   H61   S    
Ba1   O13   S    
C47   O2    S    
C49   H51   S    
C10   P1    S    
C45   C46   S    
C14   C15   A    
O1    P1    D    
C55   C56   S    
C58   H68   S    
C34   C44   S    
C7    H26   S    
C7    C8    S    
O24   P3    D    
C57   H71   S    
O14   P7    D    
Ba1   O22   S    
C4    H18   S    
C51   H56   S    
Ba2   O4    S    
C38   H41   S    
C19   C20   A    
C60   H73   S    
C30   P3    S    
C60   H72   S    
C24   P4    S    
O7    P4    S    
C54   H58   S    
C64   H83   S    
C31   C32   A    
C62   H78   S    
C45   O20   S    
C9    C18   A    
O5    P4    S    
O20   P1    S    
C2    H1    S    
C39   P5    S    
C46   H7    S    
C9    P6    S    
O11   P5    S    
C3    H15   S    
C5    C6    S    
Ba1   O1    S    
C5    H22   S    
C8    H30   S    
C3    H16   S    
C3    O15   S    
Ba2   O5    S    
C1    H14   S    
C6    H25   S    
C63   C64   S    
O4    P4    D    
C40   C43   A    
C17   C21   A    
C22   H31   S    
Ba1   O23   S    
C27   C28   A    
C8    C55   S    
C64   H84   S    
C34   H46   S    
C29   C30   A    
O10   P5    D    
C56   H64   S    
Ba2   O8    S    
C28   C29   A    
C44   H4    S    
C6    H24   S    
C15   C16   A    
C58   H69   S    
C7    H27   S    
C55   H65   S    
C56   H62   S    
C36   C61   S    
C33   C42   S    
O19   P6    D    
Ba1   O8    S    
C52   H53   S    
C40   P7    S    
C57   H70   S    
C2    H13   S    
C38   C39   A    
C56   H63   S    
C23   H45   S    
Ba2   P4    S    
C13   P8    S    
C11   C13   A    
O15   P7    S    
C57   C58   S    
C48   H12   S    
C5    O11   S    
C11   C24   A    
C50   H49   S    
C40   C41   A    
C4    C53   S    
C1    C2    S    
Ba1   O5    S    
C11   C57   S    
C54   H59   S    
C64   H82   S    
C45   H5    S    
C49   C50   S    
O21   P6    S    
C62   H79   S    
C61   H81   S    
C59   H75   S    
O2    P2    S    
Ba2   O14   S    
C53   H60   S    
C33   C35   A    
C25   C30   A    
C16   C20   A    
C41   H36   S    
C31   C59   S    
C53   C54   S    
C52   H54   S    
C23   C63   S    
C46   H8    S    
C63   H86   S    
O23   P3    S    
C51   C52   S    
C10   C22   A    
Ba2   O9    S    
C47   H9    S    
O9    P5    S    
C7    O17   S    
C50   H47   S    
C12   H38   S    
C4    H17   S    
C36   C37   A    
O8    P7    S    
C44   H3    S    
Ba2   O12   S    
C6    H23   S    
C15   C17   A    
C28   C37   S    
C34   I2    S    
C32   H37   S    
C12   C23   S    
C2    O21   S    
Ba1   P1    S    
O16   P8    D    
C12   H29   S    
C52   H52   S    
Ba1   O12   S    
C49   H50   S    
C63   H85   S    
C38   C42   A    
C19   H32   S    
C60   H74   S    
C18   C19   A    
C47   C48   S    
Ba1   O18   S    
C25   C26   A    
C39   C43   A    
C25   H44   S    
C48   I1    S    
C23   H20   S    
C45   H6    S    
