data_mof_unit_63313.cif
_audit_creation_date              2012-12-10T19:39:15-0500
_audit_creation_method            fapswitch 2.2
_symmetry_space_group_name_H-M    P1
_symmetry_Int_Tables_number       1
_space_group_crystal_system       triclinic
_cell_length_a                    21.610222
_cell_length_b                    21.639991
_cell_length_c                    55.801736
_cell_angle_alpha                 89.999261
_cell_angle_beta                  90.000363
_cell_angle_gamma                 89.643064
_cell_volume                      26094.8969939

loop_
_atom_site_label
_atom_site_type_symbol
_atom_type_description
_atom_site_fract_x
_atom_site_fract_y
_atom_site_fract_z
_atom_type_partial_charge
C1    C     C_R   0.500656 0.379602 0.499745 0.910049
C2    C     C_R   0.497460 0.217756 0.521303 0.053022
C3    C     C_R   0.389096 0.023625 0.300413 0.237461
C4    C     C_R   0.473401 0.890221 0.800638 0.237524
C5    C     C_R   0.110855 0.476105 0.800412 0.236149
C6    C     C_R   0.526589 0.109783 0.800637 0.237629
C7    C     C_R   0.889165 0.523914 0.800404 0.237743
C8    C     C_R   0.987004 0.444642 0.313715 -0.087310
C9    C     C_R   0.555679 0.987466 0.313478 -0.086392
C10   C     C_R   0.013002 0.555361 0.313715 -0.087311
C11   C     C_R   0.444317 0.012514 0.313477 -0.086393
C12   C     C_R   0.486577 0.944745 0.813701 -0.087164
C13   C     C_R   0.781587 0.463914 0.515630 0.081403
C14   C     C_R   0.055657 0.487347 0.813474 -0.086557
C15   C     C_R   0.513415 0.055259 0.813700 -0.087268
C16   C     C_R   0.944361 0.512686 0.813470 -0.086047
C17   C     C_R   0.000002 0.500001 0.301022 -0.113272
C18   C     C_R   0.499998 0.999990 0.300794 -0.113241
C19   C     C_R   0.499996 0.000002 0.801009 -0.113260
C20   C     C_R   0.000009 0.500004 0.800789 -0.113535
C21   C     C_R   0.548086 0.030446 0.586646 0.315093
C22   C     C_R   0.964340 0.544604 0.586442 0.316765
C23   C     C_R   0.451914 0.969552 0.586646 0.315194
C24   C     C_R   0.502534 0.782242 0.521303 0.052918
C25   C     C_R   0.035647 0.455339 0.586431 0.310529
C26   C     C_R   0.047976 0.530614 0.086647 0.315126
C27   C     C_R   0.464384 0.044662 0.086441 0.316173
C28   C     C_R   0.952025 0.469384 0.086647 0.315128
C29   C     C_R   0.535616 0.955333 0.086441 0.316174
C30   C     C_R   0.986700 0.446551 0.338940 0.551098
C31   C     C_R   0.553463 0.985827 0.338691 0.550478
C32   C     C_R   0.013306 0.553453 0.338940 0.551098
C33   C     C_R   0.446533 0.014156 0.338691 0.550480
C34   C     C_R   0.486229 0.946671 0.838925 0.551151
C35   C     C_R   0.718382 0.035316 0.015883 0.080615
C36   C     C_R   0.053430 0.485706 0.838687 0.550839
C37   C     C_R   0.513764 0.053334 0.838924 0.551147
C38   C     C_R   0.946584 0.514355 0.838683 0.550438
C39   C     C_R   0.498227 0.943569 0.737498 0.009560
C40   C     C_R   0.056538 0.500314 0.737314 0.003547
C41   C     C_R   0.501764 0.056434 0.737498 0.009488
C42   C     C_R   0.943468 0.499522 0.737317 0.012905
C43   C     C_R   0.998588 0.443555 0.237508 0.009564
C44   C     C_R   0.556532 0.000505 0.237319 0.009583
C45   C     C_R   0.001413 0.556446 0.237508 0.009564
C46   C     C_R   0.996918 0.717757 0.021262 0.053012
C47   C     C_R   0.443465 0.999473 0.237319 0.009584
C48   C     C_R   0.499995 0.000001 0.724798 0.097470
C49   C     C_R   0.000001 0.499898 0.724619 0.097589
C50   C     C_R   1.000000 0.500001 0.224807 0.097380
C51   C     C_R   0.499999 0.999989 0.224623 0.097745
C52   C     C_R   0.955963 0.534808 0.388962 -0.097593
C53   C     C_R   0.461423 0.959746 0.388836 -0.098689
C54   C     C_R   0.044042 0.465196 0.388963 -0.097588
C55   C     C_R   0.538574 0.040245 0.388835 -0.098688
C56   C     C_R   0.456404 0.035358 0.888948 -0.097682
C57   C     C_R   0.281619 0.964687 0.015883 0.080613
C58   C     C_R   0.961272 0.459925 0.888827 -0.098577
C59   C     C_R   0.543594 0.964647 0.888948 -0.097774
C60   C     C_R   0.038726 0.540129 0.888831 -0.098864
C61   C     C_R   0.496953 0.112006 0.724583 -0.253376
C62   C     C_R   0.888141 0.492177 0.724429 -0.253725
C63   C     C_R   0.503037 0.887996 0.724584 -0.254151
C64   C     C_R   0.111863 0.507606 0.724419 -0.263427
C65   C     C_R   0.996273 0.611989 0.224591 -0.253939
C66   C     C_R   0.388156 0.992045 0.224426 -0.254260
C67   C     C_R   0.003727 0.388012 0.224592 -0.253937
C68   C     C_R   0.003086 0.282241 0.021261 0.052999
C69   C     C_R   0.611841 0.007933 0.224427 -0.254256
C70   C     C_R   0.495129 0.113519 0.699643 0.368006
C71   C     C_R   0.886786 0.489611 0.699490 0.368196
C72   C     C_R   0.504861 0.886482 0.699645 0.368065
C73   C     C_R   0.113216 0.510069 0.699476 0.460257
C74   C     C_R   0.994469 0.613492 0.199651 0.367134
C75   C     C_R   0.386813 0.989521 0.199486 0.367223
C76   C     C_R   0.005529 0.386509 0.199652 0.367135
C77   C     C_R   0.613185 0.010458 0.199487 0.367221
C78   C     C_R   0.495308 0.056933 0.686656 -0.157875
C79   C     C_3   0.214055 0.604061 0.519731 -0.448651
C80   C     C_R   0.943381 0.492280 0.686503 -0.153904
C81   C     C_R   0.504685 0.943068 0.686657 -0.157896
C82   C     C_R   0.056601 0.507427 0.686495 -0.156312
C83   C     C_R   0.994987 0.556907 0.186663 -0.157878
C84   C     C_R   0.443407 0.992304 0.186502 -0.157890
C85   C     C_R   0.005011 0.443093 0.186664 -0.157880
C86   C     C_R   0.556591 0.007677 0.186502 -0.157891
C87   C     C_R   0.499996 0.000001 0.699356 -0.117038
C88   C     C_R   0.999995 0.499869 0.699191 -0.130090
C89   C     C_R   0.999999 0.500000 0.199364 -0.116869
C90   C     C_3   0.451756 0.214675 0.541254 -0.476295
C91   C     C_R   0.499999 0.999990 0.199194 -0.117095
C92   C     C_R   0.510169 0.945807 0.661504 0.605815
C93   C     C_R   0.053418 0.513106 0.661353 0.628301
C94   C     C_R   0.489827 0.054194 0.661503 0.606041
C95   C     C_R   0.946531 0.486613 0.661361 0.603899
C96   C     C_R   0.010462 0.445861 0.161510 0.605708
C97   C     C_R   0.553420 0.013331 0.161361 0.605444
C98   C     C_R   0.989535 0.554139 0.161509 0.605708
C99   C     C_R   0.446579 0.986653 0.161360 0.605446
C100  C     C_R   0.000001 0.500001 0.426648 -0.143629
C101  C     C_3   0.785946 0.395967 0.519752 -0.448888
C102  C     C_R   0.499999 0.999998 0.426564 -0.152851
C103  C     C_R   0.500000 0.000001 0.926639 -0.144282
C104  C     C_R   1.000000 0.500012 0.926560 -0.152927
C105  C     C_R   0.281757 0.535586 0.515567 0.046573
C106  C     C_R   0.498460 0.280990 0.520984 0.042816
C107  C     C_R   0.718243 0.464437 0.515576 0.048447
C108  C     C_R   0.501536 0.719007 0.520984 0.042246
C109  C     C_R   0.781713 0.034777 0.015831 0.048691
C110  C     C_R   0.998021 0.780979 0.020962 0.041424
C111  C     C_R   0.218288 0.965228 0.015833 0.048703
C112  C     C_R   0.620004 0.500658 0.499891 0.909815
C113  C     C_3   0.548236 0.785322 0.541254 -0.476656
C114  C     C_R   0.001982 0.219020 0.020962 0.041435
C115  C     C_R   0.314261 0.496439 0.500160 -0.148186
C116  C     C_R   0.503906 0.313162 0.499332 -0.173855
C117  C     C_R   0.685740 0.503566 0.500161 -0.148757
C118  C     C_R   0.496101 0.686839 0.499331 -0.173920
C119  C     C_R   0.814237 0.996326 0.000166 -0.149356
C120  C     C_R   0.004100 0.813177 0.999346 -0.173527
C121  C     C_R   0.185763 0.003677 0.000166 -0.149373
C122  C     C_R   0.995900 0.186823 0.999345 -0.173548
C123  C     C_R   0.282300 0.451368 0.486898 0.177124
C124  C     C_3   0.714021 0.103025 0.020547 -0.449001
C125  C     C_R   0.515395 0.279239 0.477884 0.222051
C126  C     C_R   0.717701 0.548626 0.486892 0.177118
C127  C     C_R   0.484628 0.720764 0.477881 0.222101
C128  C     C_R   0.782253 0.951783 0.986636 0.177829
C129  C     C_R   0.016286 0.779281 0.977952 0.221721
C130  C     C_R   0.217746 0.048216 0.986634 0.177830
C131  C     C_R   0.983709 0.220721 0.977951 0.221708
C132  C     C_R   0.217938 0.451650 0.487385 -0.211091
C133  C     C_R   0.513475 0.215139 0.478620 -0.217772
C134  C     C_R   0.782063 0.548341 0.487379 -0.211071
C135  C     C_3   0.950774 0.714712 0.041059 -0.476154
C136  C     C_R   0.486543 0.784864 0.478619 -0.217787
C137  C     C_R   0.717885 0.952127 0.987097 -0.211585
C138  C     C_R   0.014268 0.715174 0.978662 -0.217968
C139  C     C_R   0.282115 0.047871 0.987094 -0.211591
C140  C     C_R   0.985726 0.284828 0.978662 -0.217960
C141  C     C_R   0.186112 0.497603 0.500219 -0.119791
C142  C     C_R   0.500376 0.185048 0.500029 -0.090985
C143  C     C_R   0.813888 0.502401 0.500220 -0.120390
C144  C     C_R   0.499624 0.814952 0.500029 -0.090949
C145  C     C_R   0.686084 0.997576 0.000201 -0.119963
C146  C     C_3   0.285978 0.896979 0.020548 -0.449016
C147  C     C_R   0.000394 0.685064 0.999997 -0.091189
C148  C     C_R   0.313915 0.002424 0.000200 -0.119965
C149  C     C_R   0.999605 0.314936 0.999996 -0.091198
C150  C     C_3   0.049232 0.285284 0.041058 -0.476147
C151  C     C_3   0.284517 0.604100 0.519352 0.234422
C152  C     C_3   0.452613 0.285015 0.541185 0.282534
C153  C     C_3   0.715483 0.395926 0.519372 0.232878
C154  C     C_3   0.547384 0.714983 0.541184 0.283266
C155  C     C_3   0.784495 0.103071 0.020169 0.233693
C156  C     C_R   0.499346 0.620398 0.499744 0.910026
C157  C     C_3   0.951756 0.785061 0.041013 0.282280
C158  C     C_3   0.215505 0.896934 0.020172 0.233702
C159  C     C_3   0.048249 0.214936 0.041012 0.282277
C160  C     C_R   0.499999 0.999999 0.624032 0.033641
C161  C     C_R   0.999950 0.499900 0.623851 0.030754
C162  C     C_R   1.000000 0.500000 0.124036 0.033848
C163  C     C_R   0.500000 0.999995 0.123855 0.035562
C164  C     C_R   0.551222 0.022955 0.611662 0.142679
C165  C     C_R   0.971346 0.548557 0.611455 0.142197
C166  C     C_R   0.448777 0.977043 0.611661 0.142784
C167  C     C_R   0.379996 0.499343 0.499891 0.910276
C168  C     C_R   0.028590 0.451294 0.611438 0.142917
C169  C     C_R   0.051132 0.523156 0.111665 0.142671
C170  C     C_R   0.471410 0.048645 0.111452 0.143071
C171  C     C_R   0.948868 0.476843 0.111665 0.142671
C172  C     C_R   0.528590 0.951346 0.111451 0.143071
C173  C     C_R   0.000003 0.500002 0.376455 0.211920
C174  C     C_R   0.499998 0.999995 0.376292 0.208815
C175  C     C_R   0.499998 0.000003 0.876441 0.211712
C176  C     C_R   0.999999 0.500031 0.876286 0.208735
C177  C     C_R   0.955792 0.535356 0.413917 0.111400
C178  C     C_R   0.000739 0.879607 0.999747 0.909475
C179  C     C_R   0.460551 0.959829 0.413789 0.110241
C180  C     C_R   0.044213 0.464648 0.413918 0.111388
C181  C     C_R   0.539447 0.040166 0.413788 0.110247
C182  C     C_R   0.456243 0.035922 0.913902 0.111703
C183  C     C_R   0.960396 0.460000 0.913780 0.110343
C184  C     C_R   0.543756 0.964082 0.913902 0.111737
C185  C     C_R   0.039603 0.540034 0.913784 0.110427
C186  C     C_R   0.000000 0.500000 0.452864 0.898205
C187  C     C_R   0.500000 1.000000 0.452827 0.891155
C188  C     C_R   0.500000 0.000000 0.952861 0.897624
C189  C     C_R   0.120014 0.000687 0.999892 0.909649
C190  C     C_R   1.000000 0.500002 0.952825 0.890875
C191  C     C_R   0.120231 0.499679 0.499497 0.938913
C192  C     C_R   0.499842 0.119870 0.500370 0.926222
C193  C     C_R   0.879769 0.500321 0.499498 0.938846
C194  C     C_R   0.500158 0.880130 0.500371 0.926240
C195  C     C_R   0.620221 0.999677 0.999499 0.938389
C196  C     C_R   0.999843 0.619877 0.000333 0.926336
C197  C     C_R   0.379779 0.000323 0.999499 0.938374
C198  C     C_R   0.000157 0.380123 0.000333 0.926345
C199  C     C_R   0.999999 0.499999 0.547003 1.083972
C200  C     C_R   0.999261 0.120392 0.999747 0.909451
C201  C     C_R   0.500000 1.000000 0.547058 1.051888
C202  C     C_R   0.500000 1.000000 0.047004 1.083021
C203  C     C_R   0.000000 0.500000 0.047058 1.052801
C204  C     C_R   0.500000 0.999999 0.573684 -0.401070
C205  C     C_R   0.999999 0.499987 0.573564 -0.390759
C206  C     C_R   0.000001 0.499999 0.073686 -0.400898
C207  C     C_R   0.500000 0.999998 0.073567 -0.391628
C208  C     C_R   0.992260 0.444102 0.262845 0.038349
C209  C     C_R   0.556241 0.993791 0.262634 0.038234
C210  C     C_R   0.007742 0.555899 0.262844 0.038349
C211  C     C_R   0.879986 0.999314 0.999891 0.909652
C212  C     C_R   0.443755 0.006187 0.262633 0.038234
C213  C     C_R   0.491880 0.944159 0.762833 0.038487
C214  C     C_R   0.056236 0.493633 0.762629 0.042305
C215  C     C_R   0.508110 0.055844 0.762833 0.038449
C216  C     C_R   0.943778 0.506283 0.762629 0.037795
C217  C     C_R   0.000002 0.500001 0.275547 0.089336
C218  C     C_R   0.499998 0.999989 0.275331 0.089388
C219  C     C_R   0.499995 0.000002 0.775534 0.089411
C220  C     C_R   0.000008 0.499975 0.775327 0.088937
C221  C     C_R   0.977107 0.390532 0.275797 -0.237617
C222  C     C_R   0.218414 0.536109 0.515621 0.079691
C223  C     C_R   0.610429 0.979916 0.275563 -0.237641
C224  C     C_R   0.022897 0.609470 0.275795 -0.237617
C225  C     C_R   0.389567 0.020061 0.275562 -0.237640
C226  C     C_R   0.476355 0.890696 0.775783 -0.237640
C227  C     C_R   0.110394 0.479650 0.775560 -0.234631
C228  C     C_R   0.523635 0.109308 0.775782 -0.237338
C229  C     C_R   0.889623 0.520308 0.775555 -0.238043
C230  C     C_R   0.974187 0.390031 0.300653 0.237477
C231  C     C_R   0.610899 0.976354 0.300414 0.237463
C232  C     C_R   0.025818 0.609971 0.300651 0.237477
H1    H     H_    0.964636 0.348226 0.266877 0.178217
H2    H     H_    0.432000 0.928192 0.379071 0.183125
H3    H     H_    0.078407 0.438707 0.379179 0.180486
H4    H     H_    0.567997 0.071797 0.379069 0.183126
H5    H     H_    0.422375 0.062275 0.879163 0.180706
H6    H     H_    0.931733 0.428486 0.879059 0.183239
H7    H     H_    0.577623 0.937731 0.879163 0.180627
H8    H     H_    0.068267 0.571573 0.879067 0.183105
H9    H     H_    0.492685 0.155546 0.733774 0.198502
H10   H     H_    0.844838 0.486329 0.733664 0.198198
H11   H     H_    0.507304 0.844456 0.733777 0.198361
H12   H     H_    0.653326 0.968997 0.266610 0.178304
H13   H     H_    0.155158 0.513505 0.733654 0.198199
H14   H     H_    0.991730 0.655505 0.233780 0.198333
H15   H     H_    0.344860 0.986101 0.233656 0.198428
H16   H     H_    0.008270 0.344496 0.233782 0.198332
H17   H     H_    0.655138 0.013876 0.233657 0.198427
H18   H     H_    0.192999 0.417961 0.476890 0.204433
H19   H     H_    0.519908 0.188794 0.462320 0.179644
H20   H     H_    0.807003 0.582020 0.476879 0.204451
H21   H     H_    0.480122 0.811211 0.462318 0.179623
H22   H     H_    0.692921 0.918889 0.976399 0.204029
H23   H     H_    0.035367 0.651776 0.266875 0.178217
H24   H     H_    0.021246 0.688850 0.962391 0.179897
H25   H     H_    0.307078 0.081106 0.976395 0.204022
H26   H     H_    0.978743 0.311153 0.962391 0.179903
H27   H     H_    0.192260 0.628908 0.504443 0.223043
H28   H     H_    0.407076 0.194278 0.535490 0.220278
H29   H     H_    0.807743 0.371107 0.504469 0.222783
H30   H     H_    0.592916 0.805723 0.535492 0.220155
H31   H     H_    0.692218 0.128697 0.005466 0.222942
H32   H     H_    0.906188 0.694404 0.035141 0.220287
H33   H     H_    0.307779 0.871308 0.005468 0.222941
H34   H     H_    0.346670 0.030979 0.266608 0.178305
H35   H     H_    0.093818 0.305592 0.035138 0.220290
H36   H     H_    0.193713 0.615003 0.537531 0.229506
H37   H     H_    0.471923 0.193574 0.557657 0.251182
H38   H     H_    0.806288 0.385049 0.537554 0.230327
H39   H     H_    0.528068 0.806418 0.557658 0.251182
H40   H     H_    0.693688 0.112988 0.038433 0.230585
H41   H     H_    0.970557 0.693541 0.057519 0.250641
H42   H     H_    0.306315 0.887018 0.038435 0.230587
H43   H     H_    0.029452 0.306455 0.057518 0.250638
H44   H     H_    0.591066 0.173596 0.672730 0.355003
H45   H     H_    0.463616 0.848473 0.766861 0.178099
H46   H     H_    0.820305 0.581788 0.672301 0.355013
H47   H     H_    0.408927 0.826431 0.672728 0.354666
H48   H     H_    0.231804 0.463458 0.656286 0.412578
H49   H     H_    0.090077 0.674102 0.172750 0.354916
H50   H     H_    0.320238 0.081623 0.172300 0.355154
H51   H     H_    0.909919 0.325902 0.172752 0.354915
H52   H     H_    0.679756 0.918359 0.172301 0.355152
H53   H     H_    0.602160 0.144041 0.542538 0.394851
H54   H     H_    0.840697 0.579192 0.543621 0.391283
H55   H     H_    0.397840 0.855959 0.542538 0.394887
H56   H     H_    0.153267 0.468629 0.766608 0.180651
H57   H     H_    0.159399 0.420979 0.543632 0.391091
H58   H     H_    0.101548 0.644395 0.042533 0.394778
H59   H     H_    0.340814 0.079368 0.043599 0.391360
H60   H     H_    0.898461 0.355598 0.042534 0.394777
H61   H     H_    0.659189 0.920636 0.043600 0.391358
H62   H     H_    0.536373 0.151531 0.766859 0.178157
H63   H     H_    0.846751 0.531313 0.766598 0.178163
H64   H     H_    0.921600 0.561298 0.379178 0.180487
I1    I     I_    0.325856 0.627634 0.552937 -0.141593
I2    I     I_    0.700148 0.955268 0.314944 -0.116992
I3    I     I_    0.050347 0.697980 0.315152 -0.116806
I4    I     I_    0.299847 0.044709 0.314942 -0.116987
I5    I     I_    0.448325 0.802369 0.815139 -0.117529
I6    I     I_    0.200062 0.454862 0.814946 -0.114565
I7    I     I_    0.551665 0.197636 0.815136 -0.116449
I8    I     I_    0.799966 0.545222 0.814931 -0.117317
I9    I     I_    0.633435 0.041644 0.631889 -0.071329
I10   I     I_    0.943960 0.628727 0.631483 -0.076813
I11   I     I_    0.366563 0.958355 0.631888 -0.071302
I12   I     I_    0.491969 0.323447 0.573055 -0.064916
I13   I     I_    0.056012 0.371081 0.631434 -0.025608
I14   I     I_    0.133252 0.542198 0.131898 -0.071384
I15   I     I_    0.444037 0.128832 0.131473 -0.073032
I16   I     I_    0.866747 0.457800 0.131897 -0.071384
I17   I     I_    0.555962 0.871156 0.131472 -0.073035
I18   I     I_    0.885125 0.588241 0.430747 -0.259851
I19   I     I_    0.400106 0.895516 0.430338 -0.235087
I20   I     I_    0.114880 0.411764 0.430750 -0.259843
I21   I     I_    0.599891 0.104483 0.430335 -0.235109
I22   I     I_    0.386229 0.089759 0.930696 -0.258853
I23   I     I_    0.674138 0.372435 0.552960 -0.128474
I24   I     I_    0.899684 0.395905 0.930309 -0.235100
I25   I     I_    0.613771 0.910245 0.930696 -0.259043
I26   I     I_    0.100321 0.604112 0.930320 -0.235298
I27   I     I_    0.326762 0.383527 0.465238 -0.208622
I28   I     I_    0.533544 0.316092 0.443102 -0.170900
I29   I     I_    0.673239 0.616456 0.465226 -0.208839
I30   I     I_    0.466518 0.683916 0.443095 -0.170912
I31   I     I_    0.826642 0.884550 0.964668 -0.208112
I32   I     I_    0.035839 0.816254 0.943308 -0.171446
I33   I     I_    0.173357 0.115447 0.964664 -0.207946
I34   I     I_    0.508033 0.676541 0.573053 -0.061950
I35   I     I_    0.964156 0.183750 0.943307 -0.171164
I36   I     I_    0.321565 0.655705 0.489889 -0.270695
I37   I     I_    0.364483 0.325341 0.532372 -0.229676
I38   I     I_    0.678434 0.344294 0.489917 -0.271510
I39   I     I_    0.635517 0.674664 0.532369 -0.224962
I40   I     I_    0.821509 0.156233 0.991127 -0.272867
I41   I     I_    0.863905 0.825576 0.031913 -0.226235
I42   I     I_    0.178483 0.843774 0.991131 -0.272875
I43   I     I_    0.136098 0.174419 0.031911 -0.226242
I44   I     I_    0.825873 0.124780 0.053937 -0.124187
I45   I     I_    0.990577 0.823402 0.072999 -0.056848
I46   I     I_    0.174129 0.875232 0.053941 -0.124169
I47   I     I_    0.009430 0.176595 0.072998 -0.056855
I48   I     I_    0.949661 0.302022 0.315155 -0.116803
N1    N     N_R   0.499999 0.000000 0.649718 -0.338084
N2    N     N_R   0.999964 0.499873 0.649550 -0.340450
N3    N     N_R   0.999999 0.500000 0.149723 -0.338035
N4    N     N_R   0.499999 0.999993 0.149554 -0.338749
N5    N     N_R   0.000003 0.500002 0.350763 -0.350832
N6    N     N_R   0.499998 0.999992 0.350558 -0.349260
N7    N     N_R   0.499997 0.000003 0.850748 -0.350765
N8    N     N_R   0.000005 0.500034 0.850552 -0.349258
O1    O     O_R   0.500120 0.408340 0.520000 -0.602958
O2    O     O_R   0.591600 0.500100 0.479780 -0.590697
O3    O     O_3   0.125748 0.448262 0.549562 -0.580685
O4    O     O_2   0.122203 0.631094 0.089562 -0.213445
O5    O     O_2   0.156817 0.545017 0.064253 -0.238367
O6    O     O_3   0.068807 0.617198 0.048977 -0.589130
O7    O     O_2   0.356808 0.109990 0.089084 -0.207734
O8    O     O_2   0.437449 0.148578 0.062168 -0.240703
O9    O     O_3   0.374346 0.051972 0.049552 -0.579680
O10   O     O_2   0.877802 0.368902 0.089563 -0.213443
O11   O     O_2   0.843186 0.454976 0.064252 -0.238368
O12   O     O_3   0.931200 0.382798 0.048978 -0.589131
O13   O     O_R   0.499900 0.591600 0.479780 -0.589406
O14   O     O_2   0.643193 0.890007 0.089084 -0.207733
O15   O     O_2   0.562554 0.851421 0.062167 -0.240706
O16   O     O_3   0.625656 0.948029 0.049553 -0.579683
O17   O     O_R   0.408400 0.499900 0.479780 -0.590650
O18   O     O_R   0.000100 0.908400 0.979780 -0.589474
O19   O     O_R   0.091600 0.000100 0.979780 -0.590786
O20   O     O_R   0.999900 0.091600 0.979780 -0.589485
O21   O     O_R   0.908400 0.999900 0.979780 -0.590792
O22   O     O_2   0.526445 0.895693 0.648625 -0.426604
O23   O     O_2   0.102325 0.532468 0.648510 -0.439918
O24   O     O_2   0.473553 0.104307 0.648622 -0.426625
O25   O     O_R   0.591660 0.500120 0.520000 -0.595570
O26   O     O_2   0.897613 0.467237 0.648529 -0.423102
O27   O     O_2   0.026997 0.395833 0.148629 -0.426610
O28   O     O_2   0.602302 0.032779 0.148524 -0.423017
O29   O     O_2   0.973001 0.604167 0.148627 -0.426612
O30   O     O_2   0.397697 0.967207 0.148523 -0.423018
O31   O     O_R   0.000080 0.551700 0.464240 -0.601622
O32   O     O_R   0.448300 0.000080 0.464240 -0.598307
O33   O     O_R   0.999920 0.448300 0.464240 -0.601638
O34   O     O_R   0.551700 0.999920 0.464240 -0.598314
O35   O     O_R   0.500080 0.051700 0.964240 -0.601506
O36   O     O_R   0.499880 0.591660 0.520000 -0.602818
O37   O     O_R   0.948300 0.500080 0.964240 -0.598384
O38   O     O_R   0.499920 0.948300 0.964240 -0.601501
O39   O     O_R   0.051700 0.499920 0.964240 -0.598359
O40   O     O_R   0.091720 0.551710 0.499860 -0.628519
O41   O     O_R   0.448290 0.091720 0.499860 -0.626049
O42   O     O_R   0.908280 0.448290 0.499860 -0.628520
O43   O     O_R   0.551710 0.908280 0.499860 -0.626092
O44   O     O_R   0.591720 0.051710 0.999860 -0.628351
O45   O     O_R   0.948290 0.591720 0.999860 -0.626055
O46   O     O_R   0.408280 0.948290 0.999860 -0.628352
O47   O     O_R   0.408340 0.499880 0.520000 -0.596283
O48   O     O_R   0.051710 0.408280 0.999860 -0.626043
O49   O     O_R   0.091720 0.448270 0.499890 -0.595734
O50   O     O_R   0.551730 0.091720 0.499890 -0.587049
O51   O     O_R   0.908280 0.551730 0.499890 -0.595894
O52   O     O_R   0.448270 0.908280 0.499890 -0.587019
O53   O     O_R   0.591720 0.948270 0.999890 -0.595651
O54   O     O_R   0.051730 0.591720 0.999890 -0.587146
O55   O     O_R   0.408280 0.051730 0.999890 -0.595650
O56   O     O_R   0.948270 0.408280 0.999890 -0.587155
O57   O     O_R   0.000130 0.551710 0.535480 -0.566059
O58   O     O_R   0.000120 0.908340 0.020000 -0.603012
O59   O     O_R   0.448290 0.000130 0.535480 -0.561832
O60   O     O_R   0.999870 0.448290 0.535480 -0.565372
O61   O     O_R   0.551710 0.999870 0.535480 -0.561832
O62   O     O_R   0.500130 0.051710 0.035480 -0.565701
O63   O     O_R   0.948290 0.500130 0.035480 -0.561926
O64   O     O_R   0.499870 0.948290 0.035480 -0.565706
O65   O     O_R   0.051710 0.499870 0.035480 -0.561924
O66   O     O_2   0.972990 0.395934 0.351860 -0.496938
O67   O     O_2   0.603735 0.969670 0.351535 -0.498666
O68   O     O_2   0.027017 0.604070 0.351859 -0.496939
O69   O     O_R   0.091660 0.000120 0.020000 -0.595718
O70   O     O_2   0.396261 0.030314 0.351533 -0.498664
O71   O     O_2   0.472007 0.896195 0.851843 -0.496988
O72   O     O_2   0.103647 0.469379 0.851530 -0.498692
O73   O     O_2   0.527987 0.103811 0.851841 -0.496995
O74   O     O_2   0.896365 0.530694 0.851523 -0.498701
O75   O     O_2   0.436607 0.203222 0.675119 -0.152359
O76   O     O_2   0.513064 0.237038 0.704418 -0.255057
O77   O     O_3   0.553206 0.189533 0.664788 -0.425292
O78   O     O_2   0.800821 0.426266 0.675143 -0.150340
O79   O     O_2   0.762170 0.501470 0.704172 -0.255596
O80   O     O_R   0.999880 0.091660 0.020000 -0.603010
O81   O     O_3   0.807316 0.542958 0.664420 -0.424050
O82   O     O_2   0.563378 0.796773 0.675124 -0.152483
O83   O     O_2   0.486914 0.762966 0.704421 -0.255913
O84   O     O_3   0.446782 0.810473 0.664790 -0.425988
O85   O     O_2   0.199097 0.573297 0.675022 -0.203361
O86   O     O_2   0.237603 0.498060 0.704195 -0.257939
O87   O     O_3   0.192001 0.456091 0.664577 -0.472475
O88   O     O_2   0.935459 0.702867 0.175121 -0.152151
O89   O     O_2   0.011693 0.737116 0.204430 -0.254254
O90   O     O_3   0.052140 0.689844 0.164805 -0.424550
O91   O     O_R   0.908340 0.999880 0.020000 -0.595719
O92   O     O_2   0.300946 0.926075 0.175126 -0.150556
O93   O     O_2   0.262182 0.001205 0.204161 -0.254827
O94   O     O_3   0.307284 0.042785 0.164417 -0.423613
O95   O     O_2   0.064536 0.297131 0.175124 -0.152152
O96   O     O_2   0.988301 0.262886 0.204434 -0.254256
O97   O     O_3   0.947856 0.310158 0.164808 -0.424549
O98   O     O_2   0.699053 0.073906 0.175129 -0.150555
O99   O     O_2   0.737816 0.998771 0.204163 -0.254825
O100  O     O_3   0.692714 0.957198 0.164418 -0.423609
O101  O     O_2   0.622616 0.130689 0.589581 -0.213400
O102  O     O_R   0.500100 0.408400 0.479780 -0.589374
O103  O     O_2   0.657029 0.044498 0.564292 -0.238355
O104  O     O_3   0.569306 0.116961 0.548970 -0.589068
O105  O     O_2   0.856737 0.609888 0.589088 -0.207432
O106  O     O_2   0.937344 0.648494 0.562161 -0.241005
O107  O     O_3   0.874285 0.551845 0.549561 -0.579529
O108  O     O_2   0.377385 0.869308 0.589581 -0.214063
O109  O     O_2   0.342970 0.955501 0.564292 -0.238333
O110  O     O_3   0.430694 0.883039 0.548970 -0.589028
O111  O     O_2   0.143320 0.390180 0.589079 -0.218310
O112  O     O_2   0.062789 0.351519 0.562129 -0.240226
S1    S     S_3+6 0.498316 0.188174 0.686165 0.132366
S2    S     S_3+6 0.907276 0.591413 0.571985 0.096396
S3    S     S_3+6 0.398235 0.918740 0.572533 0.086557
S4    S     S_3+6 0.092779 0.408621 0.571971 0.091786
S5    S     S_3+6 0.101461 0.581599 0.072521 0.086778
S6    S     S_3+6 0.407348 0.091504 0.071982 0.096379
S7    S     S_3+6 0.898542 0.418397 0.072521 0.086782
S8    S     S_3+6 0.592654 0.908494 0.071982 0.096378
S9    S     S_3+6 0.812001 0.488787 0.685983 0.133189
S10   S     S_3+6 0.501669 0.811828 0.686167 0.131756
S11   S     S_3+6 0.187940 0.510839 0.685946 0.113075
S12   S     S_3+6 0.997241 0.688169 0.186174 0.133055
S13   S     S_3+6 0.312036 0.988603 0.185974 0.133706
S14   S     S_3+6 0.002755 0.311832 0.186177 0.133054
S15   S     S_3+6 0.687963 0.011376 0.185976 0.133708
S16   S     S_3+6 0.601765 0.081259 0.572533 0.086709
Zn1   Zn    Zn3+2 0.500000 0.500000 0.526750 1.113785
Zn2   Zn    Zn3+2 0.930950 0.500100 0.999850 1.109889
Zn3   Zn    Zn3+2 0.499900 0.930950 0.999850 1.102618
Zn4   Zn    Zn3+2 0.069050 0.499900 0.999850 1.109911
Zn5   Zn    Zn3+2 1.000000 0.000000 0.026750 1.116129
Zn6   Zn    Zn3+2 0.500000 0.500000 0.473040 1.112279
Zn7   Zn    Zn3+2 0.000000 0.000000 0.973040 1.112038
Zn8   Zn    Zn3+2 0.000100 0.569050 0.499850 1.102039
Zn9   Zn    Zn3+2 0.430950 0.000100 0.499850 1.109914
Zn10  Zn    Zn3+2 0.999900 0.430950 0.499850 1.102355
Zn11  Zn    Zn3+2 0.569050 0.999900 0.499850 1.109874
Zn12  Zn    Zn3+2 0.500100 0.069050 0.999850 1.102626

loop_
_geom_bond_atom_site_label_1
_geom_bond_atom_site_label_2
_ccdc_geom_bond_type
C25   S4    S    
C28   C206  A    
C41   C61   A    
C74   C83   A    
C90   H28   S    
C213  C219  A    
C161  N2    S    
O10   S7    D    
O40   Zn8   S    
C123  I27   S    
C140  H26   S    
C113  H39   S    
C188  O35   A    
C230  I48   S    
C35   C124  S    
C154  I34   S    
C85   C96   A    
C169  I14   S    
C196  O45   A    
C105  C222  A    
C171  I16   S    
C199  C205  S    
C228  H62   S    
C168  I13   S    
C35   C145  A    
C2    C90   S    
C175  N7    S    
H61   O16   S    
C68   C149  A    
C96   O27   S    
C134  C143  A    
C162  C171  A    
O85   S11   D    
C60   H8    S    
C84   C91   A    
C134  H20   S    
C4    C12   A    
C31   N6    A    
C117  C126  A    
O19   Zn7   S    
C35   C109  A    
C69   H17   S    
C173  N5    S    
C119  C128  A    
C112  O25   A    
H48   O87   S    
C102  C181  A    
C26   C206  A    
O106  S2    D    
C32   O68   S    
C155  I44   S    
O3    S4    S    
C61   H9    S    
C105  C151  S    
O4    S5    D    
C115  C123  A    
O39   Zn4   S    
C127  C136  A    
H55   O110  S    
C90   C152  S    
C180  I20   S    
C146  H42   S    
C98   N3    A    
C181  I21   S    
O21   Zn7   S    
C58   C183  A    
C165  I10   S    
C231  I2    S    
C131  I35   S    
O51   Zn8   S    
C100  C186  S    
C198  O48   A    
H44   O77   S    
C202  O64   A    
C16   C20   A    
C10   C232  A    
C48   C87   A    
C52   H64   S    
C163  C172  A    
C110  C157  S    
C232  I3    S    
C212  C225  A    
C46   C110  A    
O20   Zn7   S    
C60   C176  A    
O42   Zn10  S    
C159  I47   S    
O41   Zn9   S    
O105  S2    D    
C37   N7    A    
C79   C222  S    
C155  I40   S    
C208  C217  A    
C166  I11   S    
C43   C208  A    
C178  O18   A    
C187  O34   A    
C170  I15   S    
C8    C17   A    
C174  N6    S    
C79   H27   S    
C97   N4    A    
O8    S6    D    
C80   C88   A    
C214  C220  A    
O99   S15   D    
C57   C111  A    
C162  C169  A    
C45   C50   A    
C78   C94   A    
O55   Zn12  S    
C38   O74   S    
C3    C11   A    
H49   O90   S    
C104  C183  A    
C126  C134  A    
C40   C214  A    
O44   Zn12  S    
O109  S3    D    
O48   Zn4   S    
C176  N8    S    
C122  C200  S    
C53   H2    S    
C161  C165  A    
C78   C87   A    
C65   H14   S    
C11   C18   A    
C135  C157  S    
C123  C132  A    
C36   N8    A    
C69   C77   A    
C151  I1    S    
C110  C120  A    
C121  C130  A    
C211  O21   A    
H50   O94   S    
O17   Zn6   S    
C130  I33   S    
C133  C142  A    
C111  C158  S    
C215  C228  A    
C192  O41   A    
C14   C36   A    
O75   S1    D    
O93   S13   D    
C75   C84   A    
C144  C194  S    
C202  O62   A    
C40   C49   A    
C197  O55   A    
C152  I37   S    
C198  O56   A    
C12   C19   A    
C229  H63   S    
C44   C209  A    
C163  C170  A    
C52   C177  A    
C15   C37   A    
C81   C92   A    
O110  S3    S    
C1    O102  A    
C83   C98   A    
C221  C230  A    
C167  O17   A    
C64   C73   A    
O57   Zn8   S    
C118  C156  S    
C131  C140  A    
C42   C62   A    
C71   S9    S    
C151  I36   S    
O16   S8    S    
C197  O46   A    
C104  C190  S    
C135  H32   S    
O49   Zn10  S    
C195  O44   A    
O79   S9    D    
C23   S3    S    
C193  O42   A    
C53   C179  A    
C79   H36   S    
C25   C168  A    
C83   C89   A    
C139  C148  A    
C39   C213  A    
C120  C129  A    
O104  S16   S    
C127  I30   S    
C136  H21   S    
C11   C33   A    
C75   S13   S    
O94   S13   S    
C203  O63   A    
C70   S1    S    
C162  N3    S    
O90   S12   S    
C2    C106  A    
C65   C74   A    
C5    C227  A    
C135  H41   S    
C146  H33   S    
C21   S16   S    
C33   O70   S    
C142  C192  S    
C163  N4    S    
C216  C229  A    
C128  I31   S    
C147  C196  S    
O78   S9    D    
C80   C95   A    
C214  C227  A    
O95   S14   D    
C107  C153  S    
C178  O58   A    
C199  O60   A    
O97   S14   S    
C30   N5    A    
C160  C166  A    
C202  C207  S    
C45   C65   A    
O111  S4    D    
O53   Zn3   S    
C129  I32   S    
C118  C127  A    
C1    O1    A    
C153  I38   S    
C18   C218  A    
C122  C131  A    
C36   O72   S    
C132  C141  A    
C133  H19   S    
C124  H40   S    
C182  I22   S    
C125  I28   S    
C221  H1    S    
C105  C115  A    
C137  H22   S    
O81   S9    S    
C93   N2    A    
O102  Zn6   S    
C43   C50   A    
C157  I41   S    
C146  C158  S    
C195  O53   A    
C119  C211  S    
C102  C187  S    
C29   C207  A    
O64   Zn3   S    
C23   C204  A    
C116  C125  A    
C76   S14   S    
O38   Zn3   S    
O36   Zn1   S    
C82   C88   A    
C76   C85   A    
C126  I29   S    
C62   C71   A    
C113  H30   S    
C31   O67   S    
O12   S7    S    
C68   C150  S    
O91   Zn5   S    
C9    C18   A    
O88   S12   D    
C108  C154  S    
C43   C67   A    
C124  C155  S    
C21   C164  A    
C39   C48   A    
C29   S8    S    
C13   C101  S    
C140  C149  A    
C194  O43   A    
C100  C180  A    
C61   C70   A    
C60   C185  A    
C96   N3    A    
C200  O20   A    
C73   S11   S    
C77   S15   S    
C113  C154  S    
O101  S16   D    
C15   C19   A    
C211  O91   A    
H58   O6    S    
C210  C217  A    
C160  C164  A    
C95   O26   S    
C137  C145  A    
C86   C91   A    
C112  C117  S    
C25   C205  A    
C148  C197  S    
C193  O51   A    
O59   Zn9   S    
C34   O71   S    
O34   Zn11  S    
O32   Zn9   S    
C120  C178  S    
C51   C91   A    
C46   C135  S    
O2    Zn6   S    
O84   S10   S    
C94   N1    A    
C164  I9    S    
O5    S5    D    
C6    C228  A    
C190  O39   A    
C152  I12   S    
C24   C108  A    
C4    C226  A    
C55   H4    S    
C47   C66   A    
C72   C81   A    
C149  C198  S    
C82   C93   A    
C57   C146  S    
O69   Zn5   S    
C49   C88   A    
O47   Zn1   S    
H46   O81   S    
C138  H24   S    
C130  C139  A    
C223  C231  A    
C196  O54   A    
C66   H15   S    
C203  C206  S    
O77   S1    S    
O54   Zn4   S    
C132  H18   S    
C103  C184  A    
C14   C20   A    
C56   H5    S    
O46   Zn3   S    
C106  C152  S    
C150  H43   S    
C150  C159  S    
O18   Zn7   S    
C85   C89   A    
O61   Zn11  S    
C47   C51   A    
C124  H31   S    
O35   Zn12  S    
C106  C116  A    
C226  H45   S    
O14   S8    D    
C55   C174  A    
C104  C185  A    
C188  O38   A    
C158  I46   S    
C216  C220  A    
O13   Zn6   S    
C50   C89   A    
C46   C147  A    
C223  H12   S    
O112  S4    D    
C33   N6    A    
C44   C69   A    
O15   S8    D    
C27   C170  A    
C5    C14   A    
C81   C87   A    
C26   S5    S    
C7    C16   A    
C97   O28   S    
O58   Zn5   S    
O43   Zn11  S    
C209  C223  A    
C167  O47   A    
C90   H37   S    
C112  O2    A    
C12   C34   A    
C73   C82   A    
C99   N4    A    
C109  C119  A    
C7    C229  A    
C92   O22   S    
O50   Zn11  S    
O87   S11   S    
O9    S6    S    
C84   C99   A    
C94   O24   S    
C191  O49   A    
C103  C188  S    
C27   S6    S    
C2    C142  A    
C59   C175  A    
C160  N1    S    
O33   Zn10  S    
C8    C30   A    
C183  I24   S    
O96   S14   D    
C136  C144  A    
C16   C38   A    
C227  H56   S    
C121  C189  S    
C24   C144  A    
C41   C215  A    
O80   Zn5   S    
C139  H25   S    
C190  O37   A    
C13   C143  A    
C109  C155  S    
C3    I4    S    
C145  C195  S    
C42   C216  A    
C186  O33   A    
C63   C72   A    
C57   C148  A    
O103  S16   D    
C107  C117  A    
C224  H23   S    
O98   S15   D    
O1    Zn1   S    
O89   S12   D    
C101  H29   S    
C156  O13   A    
C70   C78   A    
C103  C182  A    
C194  O52   A    
C154  I39   S    
C141  C191  S    
C13   C107  A    
O25   Zn1   S    
H54   O107  S    
C212  C218  A    
C209  C218  A    
C54   C173  A    
C210  C224  A    
C215  C219  A    
C224  C232  A    
C92   N1    A    
C30   O66   S    
C10   C17   A    
C143  C193  S    
O52   Zn9   S    
O63   Zn2   S    
C86   C97   A    
O6    S5    S    
O62   Zn12  S    
C6    C15   A    
C22   C165  A    
C157  I45   S    
C129  C138  A    
C26   C169  A    
O60   Zn10  S    
C111  C121  A    
C156  O36   A    
C66   C75   A    
C1    C116  S    
C72   S10   S    
C5    I6    S    
C3    C225  A    
C141  C222  A    
O65   Zn4   S    
O92   S13   D    
C201  O59   A    
C24   C113  S    
C47   C212  A    
C191  O40   A    
C102  C179  A    
C20   C220  A    
C21   C204  A    
C8    C230  A    
C54   H3    S    
C38   N8    A    
C100  C177  A    
C22   S2    S    
C71   C80   A    
C53   C174  A    
C62   H10   S    
C64   H13   S    
C56   C175  A    
C184  I25   S    
C161  C168  A    
C108  C118  A    
C159  I43   S    
O76   S1    D    
C153  I23   S    
C74   S12   S    
C93   O23   S    
C192  O50   A    
C208  C221  A    
C22   C205  A    
H57   O3    S    
C199  O57   A    
C189  O19   A    
C59   H7    S    
C128  C137  A    
H59   O9    S    
C10   C32   A    
C23   C166  A    
C67   H16   S    
C28   C171  A    
C101  C153  S    
C138  C147  A    
C203  O65   A    
H53   O104  S    
C63   H11   S    
C55   C181  A    
O11   S7    D    
C186  O31   A    
O107  S2    S    
C34   N7    A    
O7    S6    D    
H47   O84   S    
O56   Zn2   S    
C44   C51   A    
C77   C86   A    
C189  O69   A    
C200  O80   A    
C37   O73   S    
C201  C204  S    
C19   C219  A    
C115  C167  S    
C225  H34   S    
C17   C217  A    
C79   C151  S    
C125  C133  A    
O45   Zn2   S    
C187  O32   A    
O82   S10   D    
C98   O29   S    
C58   C176  A    
C177  I18   S    
C158  I42   S    
C39   C63   A    
C101  H38   S    
C185  I26   S    
C45   C210  A    
C40   C64   A    
C172  I17   S    
C9    C231  A    
C28   S7    S    
C32   N5    A    
O83   S10   D    
C58   H6    S    
C7    I8    S    
C56   C182  A    
C52   C173  A    
O108  S3    D    
O31   Zn8   S    
H52   O100  S    
C41   C48   A    
C54   C180  A    
C99   O30   S    
C27   C207  A    
C4    I5    S    
C29   C172  A    
C59   C184  A    
C114  C159  S    
O100  S15   S    
C179  I19   S    
C6    I7    S    
C9    C31   A    
C42   C49   A    
O37   Zn2   S    
C114  C122  A    
C201  O61   A    
O86   S11   D    
C95   N2    A    
H60   O12   S    
C68   C114  A    
C67   C76   A    
C213  C226  A    
C150  H35   S    
H51   O97   S    
