data_mof_unit_19161.cif
_audit_creation_date              2013-03-05T16:26:27-0500
_audit_creation_method            fapswitch 2.2
_symmetry_space_group_name_H-M    P1
_symmetry_Int_Tables_number       1
_space_group_crystal_system       triclinic
_cell_length_a                    19.345289
_cell_length_b                    18.319035
_cell_length_c                    10.791377
_cell_angle_alpha                 86.735632
_cell_angle_beta                  91.74686
_cell_angle_gamma                 89.825681
_cell_volume                      3816.30057079

loop_
_atom_site_label
_atom_site_type_symbol
_atom_site_description
_atom_site_fract_x
_atom_site_fract_y
_atom_site_fract_z
_atom_type_partial_charge
O1    O     O_R   0.400190 0.561980 0.499980 -0.553697
O2    O     O_R   0.599810 0.561980 0.500020 -0.576445
O3    O     O_R   0.400190 0.438070 0.500040 -0.593954
O4    O     O_R   0.599810 0.438070 0.499960 -0.583794
C1    C     C_R   0.367904 0.499617 0.499837 0.798080
C2    C     C_R   0.632314 0.499648 0.500964 0.781630
O5    O     O_R   0.500000 0.561970 0.319650 -0.536891
O6    O     O_R   0.500000 0.561970 0.680350 -0.550984
O7    O     O_R   0.500010 0.438060 0.319710 -0.590994
O8    O     O_R   0.499990 0.438060 0.680290 -0.593019
C3    C     C_R   0.508006 0.502604 0.263098 0.816620
C4    C     C_R   0.495601 0.498307 0.738545 0.845995
Cu1   Cu    Cu3+1 0.500000 0.573360 0.500000 1.001630
Cu2   Cu    Cu3+1 0.500000 0.426640 0.500000 0.942414
C5    C     C_R   0.508666 0.645134 0.091056 0.362751
C6    C     C_R   0.432060 0.617343 0.874706 0.379814
C7    C     C_R   0.476714 0.703082 0.020021 0.280322
C8    C     C_R   0.434014 0.688260 0.916956 0.284734
C9    C     C_R   0.475128 0.561530 0.933349 -0.166264
C10   C     C_R   0.501366 0.571904 0.053861 -0.182796
C11   C     C_R   0.521218 0.508858 0.128971 -0.091707
C12   C     C_R   0.492533 0.496353 0.875532 -0.109888
C13   C     C_R   0.540858 0.445066 0.073094 -0.052819
C14   C     C_R   0.522296 0.436685 0.947643 -0.068537
C15   C     C_R   0.742299 0.441809 0.579439 -0.208319
C16   C     C_R   0.262144 0.455357 0.601050 -0.216548
H1    H     H_    0.713381 0.400296 0.631003 0.132915
H2    H     H_    0.293690 0.427795 0.674142 0.127857
C17   C     C_R   0.814333 0.439692 0.586908 -0.140799
C18   C     C_R   0.190456 0.450708 0.605317 -0.174525
H3    H     H_    0.840378 0.396242 0.642600 0.116675
H4    H     H_    0.167201 0.420299 0.682211 0.126570
C19   C     C_R   0.852474 0.493329 0.522079 0.218533
C20   C     C_R   0.149041 0.485750 0.511038 0.195457
C21   C     C_R   0.818346 0.548466 0.448315 -0.176428
C22   C     C_R   0.179939 0.522499 0.409692 -0.107276
H5    H     H_    0.847542 0.589714 0.396797 0.109400
H6    H     H_    0.148451 0.548070 0.334513 0.126150
C23   C     C_R   0.746297 0.550053 0.439627 -0.209181
C24   C     C_R   0.251784 0.526824 0.405696 -0.200907
H7    H     H_    0.720541 0.591947 0.380289 0.125725
H8    H     H_    0.275480 0.552152 0.324946 0.137108
C25   C     C_R   0.707933 0.497563 0.506881 0.003505
C26   C     C_R   0.292848 0.496358 0.504074 0.001079
C27   C     C_R   0.967962 0.522969 0.617403 -0.108097
C28   C     C_R   0.040791 0.520689 0.614753 -0.103242
C29   C     C_R   0.073261 0.485181 0.519252 -0.161198
C30   C     C_R   0.928320 0.489252 0.524969 -0.160871
C31   C     C_R   0.033444 0.448915 0.430764 0.387416
C32   C     C_R   0.960922 0.452933 0.431159 0.404669
C33   C     C_R   0.441253 0.727082 0.490259 0.209293
C34   C     C_R   0.562401 0.719894 0.508638 0.212359
C35   C     C_R   0.445874 0.803311 0.499746 -0.259822
C36   C     C_R   0.566659 0.794973 0.473159 -0.259385
H9    H     H_    0.399047 0.833627 0.512861 0.151920
H10   H     H_    0.616909 0.818050 0.456825 0.146076
C37   C     C_R   0.508239 0.840002 0.479285 0.062976
N1    N     N_R   0.500000 0.683620 0.500000 -0.196498
C38   C     C_R   0.571980 0.963550 0.501687 -0.003204
C39   C     C_R   0.451763 0.966120 0.429369 -0.010164
C40   C     C_R   0.572792 0.040303 0.481877 -0.216650
C41   C     C_R   0.450004 0.041461 0.447400 -0.197503
H11   H     H_    0.621487 0.068572 0.491071 0.156631
H12   H     H_    0.401155 0.070148 0.435013 0.155304
C42   C     C_R   0.510946 0.080834 0.468199 0.062788
C43   C     C_R   0.511266 0.923556 0.469164 0.018648
C44   C     C_R   0.464835 0.208558 0.396047 -0.106502
C45   C     C_R   0.550424 0.199325 0.567421 -0.081842
C46   C     C_R   0.460020 0.284075 0.413342 0.036328
C47   C     C_R   0.545064 0.275935 0.574651 0.058494
H13   H     H_    0.426850 0.318304 0.351699 0.133530
H14   H     H_    0.577680 0.303776 0.639898 0.131961
N2    N     N_R   0.500000 0.316380 0.500000 -0.183555
C48   C     C_R   0.509183 0.163500 0.476900 0.007176
C49   C     C_R   0.587887 0.392122 0.144753 0.126723
C50   C     C_R   0.566675 0.320926 0.180968 -0.071727
C51   C     C_R   0.611750 0.273599 0.250638 -0.139516
C52   C     C_R   0.677180 0.297515 0.288128 -0.114376
C53   C     C_R   0.698219 0.368556 0.254574 -0.120208
C54   C     C_R   0.653930 0.415607 0.183016 -0.178927
H15   H     H_    0.515495 0.302199 0.155158 0.133358
H16   H     H_    0.595957 0.218450 0.276488 0.124186
H17   H     H_    0.711528 0.260999 0.343313 0.120848
H18   H     H_    0.748826 0.387234 0.284070 0.160225
H19   H     H_    0.670985 0.470553 0.157791 0.107310
C55   C     C_R   0.518518 0.361700 0.904502 0.146389
C56   C     C_R   0.578032 0.317927 0.901984 -0.176812
C57   C     C_R   0.571564 0.242113 0.902083 -0.150580
C58   C     C_R   0.506019 0.210313 0.895784 -0.109254
C59   C     C_R   0.446866 0.254129 0.886500 -0.136264
C60   C     C_R   0.452941 0.329664 0.892005 -0.123859
H20   H     H_    0.628928 0.341783 0.911765 0.130587
H21   H     H_    0.617360 0.208049 0.910596 0.161068
H22   H     H_    0.500805 0.151652 0.899463 0.120057
H23   H     H_    0.396247 0.229325 0.880965 0.130486
H24   H     H_    0.406497 0.362686 0.894475 0.107507
C61   C     C_R   0.372960 0.702472 0.446864 0.168900
C62   C     C_R   0.362404 0.691721 0.319874 -0.112890
C63   C     C_R   0.295398 0.691033 0.267654 -0.196164
C64   C     C_R   0.238522 0.700915 0.341740 -0.108426
C65   C     C_R   0.248551 0.710103 0.468593 -0.140584
C66   C     C_R   0.315394 0.710778 0.521249 -0.138203
H25   H     H_    0.406036 0.688140 0.260213 0.163600
H26   H     H_    0.287424 0.683164 0.169765 0.109516
H27   H     H_    0.186707 0.701029 0.300986 0.112781
H28   H     H_    0.204679 0.719209 0.525272 0.115206
H29   H     H_    0.322504 0.722194 0.618106 0.173257
C67   C     C_R   0.618580 0.692091 0.594100 0.147440
C68   C     C_R   0.603217 0.671035 0.717255 -0.096288
C69   C     C_R   0.655185 0.645097 0.800714 -0.208536
C70   C     C_R   0.723585 0.644101 0.763947 -0.116026
C71   C     C_R   0.740345 0.670545 0.644662 -0.098609
C72   C     C_R   0.688006 0.694684 0.559670 -0.162271
H30   H     H_    0.551085 0.675846 0.749177 0.136399
H31   H     H_    0.642469 0.626332 0.894032 0.124957
H32   H     H_    0.763350 0.623567 0.828687 0.151266
H33   H     H_    0.793697 0.671444 0.617443 0.137671
H34   H     H_    0.701443 0.714499 0.467104 0.100954
C73   C     C_R   0.632727 0.929851 0.570109 0.122105
C74   C     C_R   0.624280 0.890274 0.684166 -0.147705
C75   C     C_R   0.681422 0.858168 0.748627 -0.134016
C76   C     C_R   0.747398 0.865881 0.700563 -0.100803
C77   C     C_R   0.756430 0.906131 0.588333 -0.144629
C78   C     C_R   0.699445 0.938347 0.523454 -0.167676
H35   H     H_    0.573432 0.884025 0.722526 0.116624
H36   H     H_    0.674614 0.827137 0.835686 0.117673
H37   H     H_    0.791526 0.840673 0.750312 0.112523
H38   H     H_    0.807610 0.912202 0.551399 0.117971
H39   H     H_    0.707129 0.968952 0.436155 0.116538
C79   C     C_R   0.394379 0.936985 0.352984 0.095602
C80   C     C_R   0.408774 0.905445 0.240995 -0.088590
C81   C     C_R   0.354968 0.880756 0.165287 -0.126917
C82   C     C_R   0.286523 0.886150 0.201544 -0.123496
C83   C     C_R   0.271701 0.917489 0.312855 -0.112593
C84   C     C_R   0.325301 0.943670 0.387810 -0.174067
H40   H     H_    0.461563 0.901212 0.211412 0.149914
H41   H     H_    0.366447 0.858147 0.077981 0.167950
H42   H     H_    0.244986 0.866413 0.143073 0.112011
H43   H     H_    0.218647 0.921891 0.340688 0.116201
H44   H     H_    0.313163 0.968193 0.473535 0.116443
C85   C     C_R   0.425770 0.180183 0.288051 0.083461
C86   C     C_R   0.354496 0.194510 0.271587 -0.177131
C87   C     C_R   0.316491 0.163792 0.175502 -0.132181
C88   C     C_R   0.349064 0.118276 0.095450 -0.108901
C89   C     C_R   0.419942 0.104452 0.109918 -0.132035
C90   C     C_R   0.458523 0.136441 0.203913 -0.115514
H45   H     H_    0.327992 0.227902 0.335027 0.121608
H46   H     H_    0.261539 0.174460 0.164214 0.120344
H47   H     H_    0.319389 0.093691 0.022226 0.114962
H48   H     H_    0.444989 0.068718 0.048422 0.109800
H49   H     H_    0.513439 0.125181 0.213333 0.117994
C91   C     C_R   0.601140 0.159879 0.653592 0.104890
C92   C     C_R   0.670678 0.182136 0.657222 -0.193258
C93   C     C_R   0.719350 0.143897 0.734563 -0.147572
C94   C     C_R   0.699138 0.083400 0.809353 -0.100805
C95   C     C_R   0.630135 0.061228 0.807474 -0.146359
C96   C     C_R   0.581321 0.099156 0.730099 -0.139539
H50   H     H_    0.687397 0.228381 0.598758 0.121983
H51   H     H_    0.772835 0.161056 0.736191 0.124961
H52   H     H_    0.736930 0.053745 0.868856 0.119809
H53   H     H_    0.614469 0.014440 0.865569 0.120005
H54   H     H_    0.528167 0.080779 0.728811 0.125408
O9    O     O_3   0.550166 0.662699 0.191716 -0.510123
C97   C     C_3   0.620075 0.659779 0.159280 -0.287723
H55   H     H_    0.630579 0.698020 0.078386 0.142198
H56   H     H_    0.636103 0.603250 0.140589 0.132946
H57   H     H_    0.652379 0.677359 0.238713 0.164261
O10   O     O_3   0.386284 0.603609 0.777869 -0.535341
C98   C     C_3   0.332293 0.559241 0.824315 -0.339408
H58   H     H_    0.287413 0.565056 0.758218 0.211159
H59   H     H_    0.314096 0.575801 0.915756 0.137351
H60   H     H_    0.348495 0.500938 0.832080 0.148410
O11   O     O_3   0.483195 0.773291 0.059949 -0.546304
C99   C     C_3   0.522335 0.816057 0.974879 -0.283605
H61   H     H_    0.489007 0.838275 0.896013 0.199135
H62   H     H_    0.566962 0.785647 0.939631 0.127139
H63   H     H_    0.543664 0.863361 0.022927 0.157923
O12   O     O_3   0.399456 0.744543 0.850175 -0.552794
C100  C     C_3   0.331841 0.749806 0.893854 -0.336304
H64   H     H_    0.330802 0.748652 0.996849 0.147884
H65   H     H_    0.298849 0.705771 0.858445 0.180692
H66   H     H_    0.309061 0.802703 0.857589 0.168589
C101  C     C_R   0.934440 0.562091 0.716157 0.172276
C102  C     C_R   0.908606 0.522735 0.819933 -0.141917
C103  C     C_R   0.886688 0.559686 0.921663 -0.165810
C104  C     C_R   0.890719 0.635911 0.920589 -0.134659
C105  C     C_R   0.914804 0.675487 0.816195 -0.144391
C106  C     C_R   0.936652 0.638763 0.714196 -0.149231
H67   H     H_    0.907555 0.463554 0.823611 0.111528
H68   H     H_    0.866812 0.529295 0.001525 0.113953
H69   H     H_    0.874001 0.664336 0.999717 0.113932
H70   H     H_    0.917193 0.734544 0.814806 0.117946
H71   H     H_    0.957121 0.669777 0.635200 0.112034
C107  C     C_R   0.082811 0.556145 0.711608 0.172547
C108  C     C_R   0.114728 0.623455 0.683944 -0.134470
C109  C     C_R   0.153117 0.657599 0.775893 -0.152679
C110  C     C_R   0.159836 0.624637 0.895758 -0.138633
C111  C     C_R   0.128146 0.557501 0.923838 -0.139015
C112  C     C_R   0.089564 0.523337 0.832190 -0.139554
H72   H     H_    0.108900 0.649575 0.591708 0.107070
H73   H     H_    0.177388 0.709747 0.754464 0.112007
H74   H     H_    0.189526 0.651112 0.966901 0.106653
H75   H     H_    0.133314 0.532057 0.016692 0.133526
H76   H     H_    0.064967 0.471459 0.854896 0.117651
O13   O     O_3   0.065583 0.411509 0.340598 -0.579415
C113  C     C_3   0.073888 0.337898 0.384163 -0.296482
H77   H     H_    0.023030 0.311165 0.399477 0.180898
H78   H     H_    0.106747 0.332936 0.470759 0.148011
H79   H     H_    0.100418 0.307996 0.312610 0.177336
O14   O     O_3   0.921313 0.415784 0.346462 -0.571103
C114  C     C_3   0.919006 0.456475 0.231507 -0.302169
H80   H     H_    0.969987 0.456475 0.186812 0.202189
H81   H     H_    0.901131 0.513628 0.240923 0.133133
H82   H     H_    0.881363 0.430226 0.168688 0.170365

loop_
_geom_bond_atom_site_label_1
_geom_bond_atom_site_label_2
_geom_bond_distance
_ccdc_geom_bond_type
C33   C61   1.468991 S    
C56   C57   1.394796 A    
C31   C32   1.404808 A    
C49   C50   1.406115 A    
C65   C66   1.396857 A    
C4    C12   1.479675 S    
C98   H58   1.107678 S    
O9    C97   1.408883 S    
C37   C43   1.529735 S    
O7    Cu2   1.944918 S    
C84   H44   1.082908 S    
C15   C25   1.404039 A    
C61   C62   1.404426 A    
C59   C60   1.393537 A    
C16   C26   1.401150 A    
C103  H68   1.080461 S    
C29   C31   1.406094 A    
C51   C52   1.396470 A    
C102  C103  1.398012 A    
O5    C3    1.288202 A    
C64   H27   1.082215 S    
O6    Cu1   1.945527 S    
O1    C1    1.303734 A    
C5    O9    1.384286 S    
C95   C96   1.397701 A    
C21   H5    1.083022 S    
C55   C60   1.405380 A    
C38   C43   1.431391 A    
C89   C90   1.397694 A    
C53   H18   1.082741 S    
C113  H78   1.113270 S    
C45   C48   1.431818 A    
C62   H25   1.081154 S    
C17   C19   1.398889 A    
C92   H50   1.083324 S    
C67   C68   1.403484 A    
C39   C41   1.405211 A    
C28   C29   1.411781 A    
C76   H37   1.082424 S    
C46   H13   1.082341 S    
O2    Cu1   1.941436 S    
C99   H61   1.109586 S    
C41   H12   1.080892 S    
C60   H24   1.083462 S    
C57   H21   1.080686 S    
C52   H17   1.082331 S    
C103  C104  1.398199 A    
C70   C71   1.397208 A    
C7    O11   1.384333 S    
C81   C82   1.396881 A    
C91   C92   1.406890 A    
C13   C14   1.406990 A    
C109  H73   1.081988 S    
C46   N2    1.358177 A    
C111  C112  1.398304 A    
Cu1   Cu2   2.687767 S    
C49   C54   1.406876 A    
C24   C26   1.395719 A    
C61   C66   1.405377 A    
C100  H66   1.109080 S    
C72   H34   1.082711 S    
C24   H8    1.079061 S    
C107  C108  1.401684 A    
C39   C43   1.429582 A    
C82   H42   1.082299 S    
C73   C78   1.405506 A    
C56   H20   1.083088 S    
C97   H56   1.111241 S    
C98   H59   1.115478 S    
O2    C2    1.301242 A    
C71   C72   1.398710 A    
C34   C36   1.409837 A    
C28   C107  1.484533 S    
C35   H9    1.078333 S    
C15   C17   1.393688 A    
C5    C10   1.428176 A    
C34   N1    1.382969 A    
C36   H10   1.076687 S    
C38   C40   1.410321 A    
C86   C87   1.398149 A    
C18   C20   1.400673 A    
Cu2   N2    2.019857 S    
O12   C100  1.408695 S    
C77   C78   1.398462 A    
C9    C12   1.422482 A    
C50   C51   1.399466 A    
O4    C2    1.293567 A    
C80   H40   1.083055 S    
O8    Cu2   1.968606 S    
C39   C79   1.481418 S    
C83   H43   1.082184 S    
C33   N1    1.383547 A    
C35   C37   1.400121 A    
C113  H77   1.112996 S    
C109  C110  1.398212 A    
C23   C25   1.399942 A    
Cu1   N1    2.019857 S    
C81   H41   1.079402 S    
C27   C28   1.410592 A    
C3    C11   1.475567 S    
C42   C48   1.522947 S    
C69   C70   1.393325 A    
C90   H49   1.082211 S    
C44   C46   1.409603 A    
C67   C72   1.404609 A    
C21   C23   1.394211 A    
C101  C102  1.402872 A    
C54   H19   1.082779 S    
C45   C91   1.487626 S    
C82   C83   1.397579 A    
C114  H80   1.110996 S    
C22   C24   1.394208 A    
O6    C4    1.297004 A    
C47   N2    1.357641 A    
C40   H11   1.080994 S    
C7    C8    1.404573 A    
C93   C94   1.397320 A    
C110  H74   1.082485 S    
C44   C48   1.430627 A    
C57   C58   1.398403 A    
O7    C3    1.311406 A    
C99   H63   1.109203 S    
C34   C67   1.474155 S    
C75   C76   1.396823 A    
C70   H32   1.075584 S    
O3    Cu2   1.941556 S    
O8    C4    1.304678 A    
C85   C90   1.408116 A    
C68   H30   1.080567 S    
C45   C47   1.413691 A    
O10   C98   1.411880 S    
C114  H81   1.112719 S    
C1    C26   1.455379 S    
C31   O13   1.383145 S    
C95   H53   1.082348 S    
C16   C18   1.391706 A    
C2    C25   1.462616 S    
C11   C13   1.401825 A    
C112  H76   1.083036 S    
C98   H60   1.110028 S    
C12   C14   1.415575 A    
O1    Cu1   1.942700 S    
C80   C81   1.395931 A    
C58   C59   1.393585 A    
C66   H29   1.082332 S    
C111  H75   1.082452 S    
C58   H22   1.078218 S    
C93   H51   1.082223 S    
C74   C75   1.397980 A    
C27   C101  1.481945 S    
C108  H72   1.082109 S    
C104  H69   1.082287 S    
C27   C30   1.411044 A    
C65   H28   1.079208 S    
C5    C7    1.403950 A    
O13   C113  1.409661 S    
C91   C96   1.408311 A    
C97   H55   1.111815 S    
C38   C73   1.482604 S    
C41   C42   1.402848 A    
C94   H52   1.082199 S    
C55   C56   1.402869 A    
C86   H45   1.083033 S    
C97   H57   1.108611 S    
C89   H48   1.082064 S    
C13   C49   1.494224 S    
C88   C89   1.396027 A    
O3    C1    1.287125 A    
C59   H23   1.082219 S    
C50   H15   1.082429 S    
C106  H71   1.083103 S    
C47   H14   1.081558 S    
C73   C74   1.406647 A    
C83   C84   1.398406 A    
C8    O12   1.382444 S    
C100  H64   1.111257 S    
C108  C109  1.398546 A    
C23   H7    1.081454 S    
C16   H2    1.083014 S    
C63   C64   1.396958 A    
C9    C10   1.404814 A    
C22   H6    1.083291 S    
C79   C80   1.403904 A    
C104  C105  1.397453 A    
C75   H36   1.081808 S    
C17   H3    1.083147 S    
C85   C86   1.406826 A    
C18   H4    1.083006 S    
C52   C53   1.396040 A    
C113  H79   1.109192 S    
C77   H38   1.082203 S    
C71   H33   1.081588 S    
C51   H16   1.080184 S    
C6    O10   1.383633 S    
C6    C9    1.424428 A    
C96   H54   1.082896 S    
C30   C32   1.406539 A    
C64   C65   1.396484 A    
C19   C21   1.400737 A    
C105  H70   1.082259 S    
C78   H39   1.082974 S    
C63   H26   1.080739 S    
C20   C22   1.401794 A    
O14   C114  1.409833 S    
C74   H35   1.082673 S    
O4    Cu2   1.942815 S    
C110  C111  1.397744 A    
C88   H47   1.082228 S    
C99   H62   1.114272 S    
C87   H46   1.082258 S    
C79   C84   1.406012 A    
O11   C99   1.412052 S    
C53   C54   1.397382 A    
C107  C112  1.404140 A    
C40   C42   1.405652 A    
O5    Cu1   1.969157 S    
C114  H82   1.109155 S    
C10   C11   1.417779 A    
C32   O14   1.384546 S    
C6    C8    1.401344 A    
C62   C63   1.397977 A    
C68   C69   1.393130 A    
C94   C95   1.396394 A    
C76   C77   1.397495 A    
C19   C30   1.468230 S    
C102  H67   1.082876 S    
C105  C106  1.397770 A    
C20   C29   1.471387 S    
C33   C35   1.408900 A    
C92   C93   1.398331 A    
C101  C106  1.404298 A    
C14   C55   1.476599 S    
C69   H31   1.081195 S    
C36   C37   1.402552 A    
C87   C88   1.396641 A    
C100  H65   1.107908 S    
C15   H1    1.083641 S    
C44   C85   1.489033 S    
