data_mof_unit_62163.cif
_audit_creation_date              2012-12-10T17:05:52-0500
_audit_creation_method            fapswitch 2.2
_symmetry_space_group_name_H-M    P1
_symmetry_Int_Tables_number       1
_space_group_crystal_system       triclinic
_cell_length_a                    21.792002
_cell_length_b                    21.792024
_cell_length_c                    38.801973
_cell_angle_alpha                 89.999902
_cell_angle_beta                  89.999903
_cell_angle_gamma                 90.00011
_cell_volume                      18426.7399885

loop_
_atom_site_label
_atom_site_type_symbol
_atom_type_description
_atom_site_fract_x
_atom_site_fract_y
_atom_site_fract_z
_atom_type_partial_charge
C1    C     C_R   0.500000 0.118651 0.500000 0.787495
C2    C     C_R   0.718191 0.372833 0.437466 -0.014162
C3    C     C_R   0.000000 0.500000 0.566167 0.765526
C4    C     C_R   0.000000 0.500000 0.933833 0.765558
C5    C     C_R   0.500000 0.000000 0.933833 0.765538
C6    C     C_R   1.000000 0.500000 0.066168 0.765583
C7    C     C_R   0.500000 1.000000 0.066167 0.765527
C8    C     C_R   0.449690 0.023601 0.377539 -0.166854
C9    C     C_R   0.976127 0.449817 0.377546 -0.166837
C10   C     C_R   0.550310 0.976399 0.377539 -0.166853
C11   C     C_R   0.023873 0.550184 0.377545 -0.166837
C12   C     C_R   0.449724 0.976325 0.622459 -0.166849
C13   C     C_R   0.627175 0.718190 0.437471 -0.014181
C14   C     C_R   0.976297 0.550262 0.622458 -0.166844
C15   C     C_R   0.550275 0.023675 0.622459 -0.166849
C16   C     C_R   0.023702 0.449738 0.622458 -0.166845
C17   C     C_R   0.949705 0.523633 0.877540 -0.166852
C18   C     C_R   0.476322 0.949727 0.877541 -0.166847
C19   C     C_R   0.050295 0.476366 0.877540 -0.166852
C20   C     C_R   0.523678 0.050274 0.877541 -0.166847
C21   C     C_R   0.949621 0.476541 0.122464 -0.166867
C22   C     C_R   0.476267 0.050249 0.122457 -0.166845
C23   C     C_R   0.050378 0.523459 0.122464 -0.166867
C24   C     C_R   0.281809 0.627167 0.437466 -0.014162
C25   C     C_R   0.523733 0.949751 0.122457 -0.166844
C26   C     C_R   0.449917 0.024107 0.341532 -0.130279
C27   C     C_R   0.975616 0.450050 0.341538 -0.130225
C28   C     C_R   0.550083 0.975893 0.341532 -0.130278
C29   C     C_R   0.024384 0.549950 0.341538 -0.130225
C30   C     C_R   0.449954 0.975818 0.658466 -0.130264
C31   C     C_R   0.975789 0.550032 0.658466 -0.130256
C32   C     C_R   0.550046 0.024182 0.658466 -0.130265
C33   C     C_R   0.024211 0.449968 0.658466 -0.130255
C34   C     C_R   0.949933 0.524140 0.841533 -0.130274
C35   C     C_R   0.372823 0.718190 0.562527 -0.014174
C36   C     C_R   0.475814 0.949956 0.841534 -0.130262
C37   C     C_R   0.050067 0.475860 0.841533 -0.130274
C38   C     C_R   0.524185 0.050044 0.841534 -0.130262
C39   C     C_R   0.949846 0.476038 0.158471 -0.130309
C40   C     C_R   0.475758 0.050018 0.158465 -0.130253
C41   C     C_R   0.050153 0.523962 0.158471 -0.130309
C42   C     C_R   0.524242 0.949982 0.158465 -0.130254
C43   C     C_R   0.500000 1.000000 0.323148 0.041380
C44   C     C_R   1.000000 0.500000 0.323155 0.041360
C45   C     C_R   0.500000 0.000000 0.676850 0.041368
C46   C     C_R   0.718190 0.627166 0.562534 -0.014175
C47   C     C_R   0.000000 0.500000 0.676850 0.041360
C48   C     C_R   0.000000 0.500000 0.823149 0.041383
C49   C     C_R   0.500000 0.000000 0.823150 0.041365
C50   C     C_R   1.000000 0.500000 0.176856 0.041403
C51   C     C_R   0.500000 1.000000 0.176848 0.041371
C52   C     C_R   0.500000 1.000000 0.395840 -0.036902
C53   C     C_R   1.000000 0.500000 0.395844 -0.036710
C54   C     C_R   0.500000 0.000000 0.604158 -0.036853
C55   C     C_R   1.000000 0.500000 0.604158 -0.036835
C56   C     C_R   0.000000 0.500000 0.895841 -0.036880
C57   C     C_R   0.627176 0.281809 0.562527 -0.014173
C58   C     C_R   0.500000 0.000000 0.895842 -0.036851
C59   C     C_R   1.000000 0.500000 0.104162 -0.036993
C60   C     C_R   0.500000 1.000000 0.104157 -0.036810
C61   C     C_R   0.500000 1.000000 0.214967 0.413257
C62   C     C_R   1.000000 0.500000 0.214976 0.413283
C63   C     C_R   0.500000 0.000000 0.785030 0.413272
C64   C     C_R   0.000000 0.500000 0.785029 0.413264
C65   C     C_R   0.000000 0.500000 0.714969 0.413266
C66   C     C_R   0.500000 0.000000 0.714970 0.413271
C67   C     C_R   1.000000 0.500000 0.285037 0.413250
C68   C     C_R   0.281809 0.372834 0.562535 -0.014174
C69   C     C_R   0.500000 1.000000 0.285028 0.413271
C70   C     C_R   0.425903 0.187574 0.451387 -0.191587
C71   C     C_R   0.812428 0.425909 0.451384 -0.191610
C72   C     C_R   0.574097 0.812427 0.451387 -0.191587
C73   C     C_R   0.187573 0.574091 0.451384 -0.191610
C74   C     C_R   0.425902 0.812427 0.548613 -0.191594
C75   C     C_R   0.812427 0.574091 0.548616 -0.191593
C76   C     C_R   0.574097 0.187573 0.548613 -0.191594
C77   C     C_R   0.187573 0.425909 0.548616 -0.191593
C78   C     C_R   0.925901 0.687574 0.951388 -0.191594
C79   C     C_R   0.872822 0.781811 0.937474 -0.014177
C80   C     C_R   0.312427 0.925905 0.951386 -0.191592
C81   C     C_R   0.074099 0.312426 0.951388 -0.191594
C82   C     C_R   0.687573 0.074095 0.951386 -0.191592
C83   C     C_R   0.925903 0.312427 0.048612 -0.191573
C84   C     C_R   0.312426 0.074095 0.048614 -0.191599
C85   C     C_R   0.074097 0.687572 0.048612 -0.191573
C86   C     C_R   0.687573 0.925905 0.048614 -0.191600
C87   C     C_R   0.382209 0.219008 0.431830 -0.012737
C88   C     C_R   0.780993 0.382217 0.431825 -0.012704
C89   C     C_R   0.617791 0.780993 0.431830 -0.012736
C90   C     C_R   0.218191 0.872827 0.937470 -0.014173
C91   C     C_R   0.219007 0.617783 0.431825 -0.012704
C92   C     C_R   0.382206 0.780993 0.568168 -0.012729
C93   C     C_R   0.780992 0.617782 0.568175 -0.012722
C94   C     C_R   0.617793 0.219007 0.568169 -0.012730
C95   C     C_R   0.219007 0.382218 0.568175 -0.012722
C96   C     C_R   0.882204 0.719009 0.931833 -0.012733
C97   C     C_R   0.280994 0.882211 0.931829 -0.012729
C98   C     C_R   0.117796 0.280992 0.931832 -0.012733
C99   C     C_R   0.719007 0.117790 0.931829 -0.012729
C100  C     C_R   0.882206 0.280994 0.068168 -0.012755
C101  C     C_R   0.127178 0.218189 0.937474 -0.014177
C102  C     C_R   0.280992 0.117789 0.068171 -0.012720
C103  C     C_R   0.117793 0.719006 0.068168 -0.012755
C104  C     C_R   0.719008 0.882211 0.068171 -0.012719
C105  C     C_1   0.653059 0.185606 0.593518 0.240229
C106  C     C_1   0.814393 0.653042 0.593527 0.240214
C107  C     C_1   0.346940 0.814393 0.593518 0.240229
C108  C     C_1   0.185606 0.346958 0.593527 0.240214
C109  C     C_1   0.653056 0.814394 0.406480 0.240268
C110  C     C_1   0.814393 0.346957 0.406473 0.240128
C111  C     C_1   0.346944 0.185607 0.406481 0.240268
C112  C     C_R   0.881349 0.500000 0.500000 0.787474
C113  C     C_R   0.781809 0.127174 0.937470 -0.014173
C114  C     C_1   0.185607 0.653043 0.406473 0.240129
C115  C     C_1   0.153059 0.685604 0.093517 0.240335
C116  C     C_1   0.314392 0.153053 0.093522 0.240195
C117  C     C_1   0.846940 0.314395 0.093517 0.240335
C118  C     C_1   0.685607 0.846947 0.093522 0.240194
C119  C     C_1   0.153063 0.314393 0.906484 0.240247
C120  C     C_1   0.314395 0.846947 0.906479 0.240224
C121  C     C_1   0.846937 0.685608 0.906484 0.240248
C122  C     C_1   0.685606 0.153054 0.906479 0.240225
C123  C     C_1   0.326014 0.315445 0.419068 0.255553
C124  C     C_R   0.872823 0.218191 0.062527 -0.014186
C125  C     C_1   0.684557 0.326025 0.419061 0.255563
C126  C     C_1   0.673986 0.684556 0.419068 0.255553
C127  C     C_1   0.315443 0.673975 0.419061 0.255563
C128  C     C_1   0.326011 0.684556 0.580929 0.255555
C129  C     C_1   0.684556 0.673974 0.580940 0.255556
C130  C     C_1   0.673988 0.315443 0.580929 0.255555
C131  C     C_1   0.315443 0.326026 0.580940 0.255555
C132  C     C_1   0.826009 0.815446 0.919072 0.255552
C133  C     C_1   0.184558 0.826016 0.919067 0.255552
C134  C     C_1   0.173991 0.184555 0.919072 0.255552
C135  C     C_R   0.218189 0.127172 0.062530 -0.014170
C136  C     C_1   0.815443 0.173985 0.919067 0.255552
C137  C     C_1   0.826011 0.184558 0.080929 0.255544
C138  C     C_1   0.184555 0.173983 0.080934 0.255553
C139  C     C_1   0.173989 0.815441 0.080929 0.255544
C140  C     C_1   0.815444 0.826017 0.080934 0.255553
C141  C     C_R   0.127177 0.781808 0.062527 -0.014186
C142  C     C_R   0.781810 0.872827 0.062530 -0.014170
C143  C     C_R   0.410082 0.313053 0.460912 -0.200230
C144  C     C_R   0.686948 0.410087 0.460909 -0.200242
C145  C     C_R   0.589918 0.686947 0.460912 -0.200230
C146  C     C_R   0.313052 0.589913 0.460909 -0.200242
C147  C     C_R   0.410082 0.686947 0.539087 -0.200234
C148  C     C_R   0.500000 0.881349 0.500000 0.787495
C149  C     C_R   0.686947 0.589913 0.539091 -0.200232
C150  C     C_R   0.589918 0.313053 0.539087 -0.200234
C151  C     C_R   0.313052 0.410087 0.539091 -0.200233
C152  C     C_R   0.910081 0.813054 0.960914 -0.200233
C153  C     C_R   0.186948 0.910084 0.960912 -0.200235
C154  C     C_R   0.089919 0.186946 0.960914 -0.200233
C155  C     C_R   0.813052 0.089917 0.960912 -0.200235
C156  C     C_R   0.910081 0.186948 0.039087 -0.200226
C157  C     C_R   0.186947 0.089916 0.039088 -0.200237
C158  C     C_R   0.089918 0.813052 0.039087 -0.200227
C159  C     C_R   0.118651 0.500000 0.500000 0.787474
C160  C     C_R   0.813053 0.910084 0.039088 -0.200237
C161  C     C_R   0.457057 0.282339 0.479362 0.061543
C162  C     C_R   0.717661 0.457060 0.479361 0.061538
C163  C     C_R   0.542943 0.717661 0.479362 0.061543
C164  C     C_R   0.282339 0.542940 0.479361 0.061538
C165  C     C_R   0.457057 0.717661 0.520637 0.061543
C166  C     C_R   0.717661 0.542940 0.520639 0.061541
C167  C     C_R   0.542942 0.282339 0.520637 0.061542
C168  C     C_R   0.282339 0.457060 0.520639 0.061541
C169  C     C_R   0.957056 0.782340 0.979363 0.061545
C170  C     C_R   1.000000 0.618651 1.000000 0.787509
C171  C     C_R   0.217661 0.957058 0.979362 0.061542
C172  C     C_R   0.042944 0.217661 0.979363 0.061545
C173  C     C_R   0.782339 0.042942 0.979362 0.061542
C174  C     C_R   0.957057 0.217661 0.020637 0.061546
C175  C     C_R   0.217661 0.042942 0.020638 0.061541
C176  C     C_R   0.042943 0.782339 0.020637 0.061547
C177  C     C_R   0.782339 0.957058 0.020638 0.061541
C178  C     C_R   0.461083 0.217976 0.476939 0.065586
C179  C     C_R   0.782025 0.461086 0.476937 0.065608
C180  C     C_R   0.538917 0.782025 0.476939 0.065586
C181  C     C_R   0.381349 0.000000 0.000000 0.787487
C182  C     C_R   0.217975 0.538914 0.476937 0.065608
C183  C     C_R   0.461083 0.782024 0.523061 0.065592
C184  C     C_R   0.782025 0.538914 0.523062 0.065592
C185  C     C_R   0.538917 0.217975 0.523061 0.065592
C186  C     C_R   0.217975 0.461086 0.523062 0.065592
C187  C     C_R   0.961082 0.717976 0.976940 0.065590
C188  C     C_R   0.282025 0.961084 0.976938 0.065592
C189  C     C_R   0.038918 0.282024 0.976939 0.065590
C190  C     C_R   0.717975 0.038916 0.976938 0.065592
C191  C     C_R   0.961083 0.282025 0.023061 0.065575
C192  C     C_R   0.000000 0.381349 1.000000 0.787509
C193  C     C_R   0.282024 0.038916 0.023061 0.065597
C194  C     C_R   0.038917 0.717975 0.023061 0.065575
C195  C     C_R   0.717975 0.961084 0.023061 0.065597
C196  C     C_R   0.500000 0.314422 0.500000 -0.158831
C197  C     C_R   0.685578 0.500000 0.500000 -0.158834
C198  C     C_R   0.500000 0.685578 0.500000 -0.158831
C199  C     C_R   0.314421 0.500000 0.500000 -0.158834
C200  C     C_R   1.000000 0.814422 0.000000 -0.158828
C201  C     C_R   0.185578 0.000000 1.000000 -0.158830
C202  C     C_R   0.000000 0.185578 0.000000 -0.158828
C203  C     C_R   0.618651 1.000000 0.000000 0.787486
C204  C     C_R   0.814422 1.000000 0.000000 -0.158830
C205  C     C_R   0.500000 0.185741 0.500000 -0.158687
C206  C     C_R   0.814259 0.500000 0.500000 -0.158672
C207  C     C_R   0.500000 0.814259 0.500000 -0.158687
C208  C     C_R   0.185741 0.500000 0.500000 -0.158672
C209  C     C_R   0.999999 0.685741 0.000000 -0.158693
C210  C     C_R   0.314259 0.000000 1.000000 -0.158680
C211  C     C_R   0.000000 0.314259 1.000000 -0.158693
C212  C     C_R   0.685741 1.000000 0.000000 -0.158680
C213  C     C_R   0.618662 0.500000 0.500000 0.766534
C214  C     C_R   0.372825 0.281810 0.437471 -0.014181
C215  C     C_R   0.500000 0.618662 0.500000 0.766535
C216  C     C_R   0.381338 0.500000 0.500000 0.766534
C217  C     C_R   0.500000 0.381338 0.500000 0.766535
C218  C     C_R   0.118662 0.000000 1.000000 0.766532
C219  C     C_R   1.000000 0.118662 0.000000 0.766530
C220  C     C_R   0.881338 1.000000 0.000000 0.766533
C221  C     C_R   0.000000 0.881338 0.000000 0.766531
C222  C     C_R   0.500000 1.000000 0.433833 0.765554
C223  C     C_R   1.000000 0.500000 0.433834 0.765493
C224  C     C_R   0.500000 0.000000 0.566167 0.765543
Cu1   Cu    Cu3+1 0.561710 0.000000 0.500000 0.980017
Cu2   Cu    Cu3+1 0.500000 0.500000 0.465670 0.975932
Cu3   Cu    Cu3+1 1.000000 0.000000 0.034330 0.975936
Cu4   Cu    Cu3+1 1.000000 0.000000 0.965670 0.975936
Cu5   Cu    Cu3+1 0.000000 0.561710 0.500000 0.980069
Cu6   Cu    Cu3+1 0.438290 0.000000 0.500000 0.980016
Cu7   Cu    Cu3+1 1.000000 0.438290 0.500000 0.980069
Cu8   Cu    Cu3+1 0.061710 0.500000 0.000000 0.979981
Cu9   Cu    Cu3+1 0.500000 0.061710 0.000000 0.980035
Cu10  Cu    Cu3+1 0.938290 0.500000 0.000000 0.979981
Cu11  Cu    Cu3+1 0.500000 0.938290 0.000000 0.980035
Cu12  Cu    Cu3+1 0.500000 0.500000 0.534330 0.975933
H1    H     H_    0.410477 0.042375 0.391076 0.160491
H2    H     H_    0.457487 0.910545 0.891078 0.160441
H3    H     H_    0.089496 0.457568 0.891076 0.160469
H4    H     H_    0.542512 0.089456 0.891078 0.160441
H5    H     H_    0.910353 0.457879 0.108930 0.160582
H6    H     H_    0.457391 0.089410 0.108920 0.160405
H7    H     H_    0.089647 0.542121 0.108929 0.160582
H8    H     H_    0.542609 0.910589 0.108920 0.160405
H9    H     H_    0.401346 0.361460 0.464693 0.151675
H10   H     H_    0.638541 0.401350 0.464690 0.151680
H11   H     H_    0.598653 0.638540 0.464693 0.151675
H12   H     H_    0.957142 0.410708 0.391084 0.160316
H13   H     H_    0.361459 0.598650 0.464690 0.151680
H14   H     H_    0.401346 0.638540 0.535306 0.151675
H15   H     H_    0.638541 0.598650 0.535311 0.151679
H16   H     H_    0.598653 0.361459 0.535306 0.151675
H17   H     H_    0.361459 0.401350 0.535311 0.151679
H18   H     H_    0.901345 0.861461 0.964695 0.151674
H19   H     H_    0.138541 0.901348 0.964692 0.151676
H20   H     H_    0.098655 0.138539 0.964695 0.151674
H21   H     H_    0.861459 0.098653 0.964692 0.151676
H22   H     H_    0.901346 0.138541 0.035306 0.151673
H23   H     H_    0.589523 0.957625 0.391076 0.160491
H24   H     H_    0.138540 0.098653 0.035308 0.151677
H25   H     H_    0.098654 0.861459 0.035306 0.151674
H26   H     H_    0.861460 0.901347 0.035308 0.151677
H27   H     H_    0.410581 0.042817 0.328101 0.165967
H28   H     H_    0.956689 0.410818 0.328106 0.165959
H29   H     H_    0.589419 0.957183 0.328101 0.165967
H30   H     H_    0.043310 0.589183 0.328105 0.165958
H31   H     H_    0.410646 0.957049 0.671898 0.165966
H32   H     H_    0.956997 0.589327 0.671897 0.165969
H33   H     H_    0.589353 0.042952 0.671898 0.165966
H34   H     H_    0.042858 0.589292 0.391084 0.160316
H35   H     H_    0.043003 0.410672 0.671897 0.165969
H36   H     H_    0.910610 0.542876 0.828101 0.165960
H37   H     H_    0.457042 0.910650 0.828102 0.165967
H38   H     H_    0.089391 0.457124 0.828101 0.165960
H39   H     H_    0.542957 0.089350 0.828102 0.165967
H40   H     H_    0.910453 0.457443 0.171901 0.165967
H41   H     H_    0.456943 0.089303 0.171897 0.165960
H42   H     H_    0.089546 0.542557 0.171901 0.165967
H43   H     H_    0.543057 0.910696 0.171897 0.165960
H44   H     H_    0.432344 0.139325 0.445963 0.149213
H45   H     H_    0.410541 0.957494 0.608922 0.160443
H46   H     H_    0.860676 0.432350 0.445961 0.149144
H47   H     H_    0.567656 0.860675 0.445963 0.149213
H48   H     H_    0.139324 0.567651 0.445961 0.149144
H49   H     H_    0.432342 0.860675 0.554037 0.149196
H50   H     H_    0.860675 0.567650 0.554039 0.149184
H51   H     H_    0.567657 0.139325 0.554037 0.149196
H52   H     H_    0.139324 0.432349 0.554039 0.149184
H53   H     H_    0.932340 0.639326 0.945964 0.149208
H54   H     H_    0.360675 0.932345 0.945962 0.149193
H55   H     H_    0.067660 0.360674 0.945964 0.149207
H56   H     H_    0.957444 0.589434 0.608921 0.160427
H57   H     H_    0.639325 0.067655 0.945962 0.149194
H58   H     H_    0.932343 0.360675 0.054037 0.149248
H59   H     H_    0.360675 0.067655 0.054038 0.149181
H60   H     H_    0.067656 0.639324 0.054037 0.149248
H61   H     H_    0.639325 0.932344 0.054038 0.149181
H62   H     H_    0.589459 0.042506 0.608922 0.160443
H63   H     H_    0.042556 0.410566 0.608921 0.160427
H64   H     H_    0.910505 0.542432 0.891076 0.160469
N1    N     N_R   0.538055 0.962264 0.267160 -0.223326
N2    N     N_R   0.537821 0.037970 0.767162 -0.223318
N3    N     N_R   0.962000 0.537791 0.767161 -0.223316
N4    N     N_R   0.462178 0.962031 0.767162 -0.223318
N5    N     N_R   0.038218 0.537570 0.232845 -0.223344
N6    N     N_R   0.537904 0.962113 0.232836 -0.223304
N7    N     N_R   0.961781 0.462431 0.232845 -0.223344
N8    N     N_R   0.462096 0.037887 0.232836 -0.223304
N9    N     N_1   0.681245 0.158803 0.613824 -0.260854
N10   N     N_1   0.841195 0.681224 0.613835 -0.260860
N11   N     N_1   0.318754 0.841196 0.613824 -0.260854
N12   N     N_R   0.038068 0.537722 0.267169 -0.223285
N13   N     N_1   0.158804 0.318776 0.613836 -0.260860
N14   N     N_1   0.681242 0.841197 0.386174 -0.260845
N15   N     N_1   0.841196 0.318775 0.386164 -0.260875
N16   N     N_1   0.318758 0.158804 0.386174 -0.260845
N17   N     N_1   0.158805 0.681226 0.386164 -0.260875
N18   N     N_1   0.181245 0.658799 0.113823 -0.260842
N19   N     N_1   0.341194 0.181237 0.113829 -0.260869
N20   N     N_1   0.818754 0.341200 0.113823 -0.260842
N21   N     N_1   0.658805 0.818762 0.113829 -0.260869
N22   N     N_1   0.181251 0.341196 0.886178 -0.260853
N23   N     N_R   0.461946 0.037736 0.267160 -0.223325
N24   N     N_1   0.341198 0.818762 0.886172 -0.260859
N25   N     N_1   0.818749 0.658805 0.886178 -0.260852
N26   N     N_1   0.658803 0.181239 0.886172 -0.260860
N27   N     N_1   0.288520 0.342445 0.404365 -0.248906
N28   N     N_1   0.657557 0.288533 0.404356 -0.248920
N29   N     N_1   0.711480 0.657556 0.404365 -0.248906
N30   N     N_1   0.342444 0.711468 0.404356 -0.248920
N31   N     N_1   0.288516 0.657556 0.595632 -0.248917
N32   N     N_1   0.657556 0.711466 0.595645 -0.248916
N33   N     N_1   0.711483 0.342443 0.595632 -0.248917
N34   N     N_R   0.961931 0.462279 0.267169 -0.223285
N35   N     N_1   0.342444 0.288534 0.595645 -0.248916
N36   N     N_1   0.788513 0.842446 0.904371 -0.248920
N37   N     N_1   0.157558 0.788522 0.904364 -0.248921
N38   N     N_1   0.211487 0.157554 0.904371 -0.248920
N39   N     N_1   0.842443 0.211479 0.904364 -0.248921
N40   N     N_1   0.788515 0.157558 0.095631 -0.248917
N41   N     N_1   0.157555 0.211477 0.095637 -0.248931
N42   N     N_1   0.211484 0.842441 0.095631 -0.248917
N43   N     N_1   0.842445 0.788523 0.095637 -0.248932
N44   N     N_R   0.537972 0.037819 0.732838 -0.223318
N45   N     N_R   0.037850 0.462058 0.732837 -0.223314
N46   N     N_R   0.462027 0.962182 0.732838 -0.223318
N47   N     N_R   0.962151 0.537942 0.732837 -0.223314
N48   N     N_R   0.038000 0.462209 0.767161 -0.223316
O1    O     O_R   0.552090 0.090090 0.500110 -0.579356
O2    O     O_R   0.409910 0.052090 0.000110 -0.579356
O3    O     O_R   0.947910 0.409910 0.000110 -0.579354
O4    O     O_R   0.590090 0.947910 0.000110 -0.579356
O5    O     O_R   0.052090 0.409910 0.999890 -0.579358
O6    O     O_R   0.409910 0.947910 0.999890 -0.579355
O7    O     O_R   0.947910 0.590090 0.999890 -0.579359
O8    O     O_R   0.590090 0.052090 0.999890 -0.579355
O9    O     O_R   0.552090 0.999930 0.450180 -0.583104
O10   O     O_R   0.000070 0.552090 0.450180 -0.583033
O11   O     O_R   0.447910 0.000070 0.450180 -0.583104
O12   O     O_R   0.909910 0.552090 0.500110 -0.579354
O13   O     O_R   0.999930 0.447910 0.450180 -0.583033
O14   O     O_R   0.552090 0.000070 0.549820 -0.583085
O15   O     O_R   0.000070 0.447910 0.549820 -0.583081
O16   O     O_R   0.447910 0.999930 0.549820 -0.583085
O17   O     O_R   0.999930 0.552090 0.549820 -0.583081
O18   O     O_R   0.052090 0.499930 0.950180 -0.583094
O19   O     O_R   0.500070 0.052090 0.950180 -0.583085
O20   O     O_R   0.947910 0.500070 0.950180 -0.583094
O21   O     O_R   0.499930 0.947910 0.950180 -0.583085
O22   O     O_R   0.052090 0.500070 0.049820 -0.583139
O23   O     O_R   0.447910 0.909910 0.500110 -0.579356
O24   O     O_R   0.500070 0.947910 0.049820 -0.583071
O25   O     O_R   0.947910 0.499930 0.049820 -0.583139
O26   O     O_R   0.499930 0.052090 0.049820 -0.583071
O27   O     O_R   0.590060 0.499930 0.529020 -0.582739
O28   O     O_R   0.500070 0.590060 0.529020 -0.582738
O29   O     O_R   0.409940 0.500070 0.529020 -0.582739
O30   O     O_R   0.499930 0.409940 0.529020 -0.582738
O31   O     O_R   0.590060 0.500070 0.470980 -0.582740
O32   O     O_R   0.500070 0.409940 0.470980 -0.582738
O33   O     O_R   0.409940 0.499930 0.470980 -0.582739
O34   O     O_R   0.090090 0.447910 0.500110 -0.579354
O35   O     O_R   0.499930 0.590060 0.470980 -0.582739
O36   O     O_R   0.090060 0.999930 0.029020 -0.582738
O37   O     O_R   0.000070 0.090060 0.029020 -0.582738
O38   O     O_R   0.909940 0.000070 0.029020 -0.582738
O39   O     O_R   0.999930 0.909940 0.029020 -0.582738
O40   O     O_R   0.090060 0.000070 0.970980 -0.582738
O41   O     O_R   0.000070 0.909940 0.970980 -0.582737
O42   O     O_R   0.909940 0.999930 0.970980 -0.582738
O43   O     O_R   0.999930 0.090060 0.970980 -0.582737
O44   O     O_R   0.552090 0.909910 0.499890 -0.579355
O45   O     O_R   0.909910 0.447910 0.499890 -0.579356
O46   O     O_R   0.447910 0.090090 0.499890 -0.579355
O47   O     O_R   0.090090 0.552090 0.499890 -0.579356
O48   O     O_R   0.052090 0.590090 0.000110 -0.579353

loop_
_geom_bond_atom_site_label_1
_geom_bond_atom_site_label_2
_ccdc_geom_bond_type
C39   H40   S    
C7    O24   A    
Cu2   O32   S    
C52   C222  S    
C8    C26   A    
C32   C45   A    
C36   H37   S    
C30   C45   A    
C46   C129  S    
C15   C32   A    
C170  O7    A    
Cu8   O18   S    
C16   H63   S    
C203  O8    A    
C213  O31   A    
C22   C60   A    
C157  H24   S    
C75   C184  A    
Cu9   O2    S    
C167  C185  A    
C108  N13   T    
C70   H44   S    
Cu9   O8    S    
C74   C92   A    
C190  C212  A    
Cu7   O15   S    
C41   H42   S    
C19   C37   A    
C159  O34   A    
C76   C94   A    
C188  C210  A    
C18   C58   A    
C163  C198  A    
C78   C96   A    
C24   C127  S    
C76   H51   S    
C25   C60   A    
Cu12  O28   S    
C85   C103  A    
C174  C191  A    
C151  H17   S    
C17   H64   S    
C21   C59   A    
C4    C56   S    
C29   H30   S    
C34   H36   S    
C32   H33   S    
C3    O17   A    
C116  N19   T    
C132  N36   T    
N2    N44   A    
C68   C95   A    
C217  O30   A    
C165  C183  A    
C15   C54   A    
C124  C137  S    
C166  C184  A    
C169  C187  A    
C38   C49   A    
Cu11  O21   S    
C85   H60   S    
C161  C196  A    
C100  C124  A    
C68   C131  S    
C144  C162  A    
Cu3   Cu4   S    
C119  N22   T    
Cu8   Cu10  S    
C177  C204  A    
C66   N46   A    
C90   C153  A    
C73   C91   A    
C169  C200  A    
C73   H48   S    
C40   H41   S    
C83   C100  A    
C126  N29   T    
C33   C47   A    
C11   H34   S    
C34   C48   A    
C17   C34   A    
C23   H7    S    
N5    N12   A    
C75   C93   A    
C21   H5    S    
C25   H8    S    
C62   N7    A    
Cu7   O34   S    
C177  C195  A    
Cu1   O44   S    
C221  O39   A    
C71   H46   S    
C140  C142  S    
C150  H16   S    
C216  O33   A    
Cu6   O23   S    
C53   C223  S    
C86   H61   S    
C6    O25   A    
Cu1   Cu6   S    
C23   C41   A    
C186  C208  A    
C79   C96   A    
Cu7   O13   S    
C68   C151  A    
C165  C198  A    
C122  N26   T    
C80   H54   S    
C120  N24   T    
C67   N34   A    
C27   H28   S    
C75   H50   S    
C192  O5    A    
C182  C208  A    
C38   H39   S    
N7    N34   A    
C95   C108  S    
C28   H29   S    
C71   C88   A    
C67   N12   A    
C123  C214  S    
C10   H23   S    
C30   H31   S    
C3    O15   A    
C181  O2    A    
C115  N18   T    
C143  C161  A    
C191  C211  A    
C19   C56   A    
C148  O23   A    
C147  H14   S    
Cu3   O36   S    
C135  C157  A    
C217  O32   A    
C80   C97   A    
C183  C207  A    
C13   C145  A    
C14   C31   A    
C218  O40   A    
C196  C217  S    
C84   H59   S    
C23   C59   A    
C69   N1    A    
C5    C58   S    
C200  C221  S    
Cu6   O11   S    
C37   H38   S    
C64   N48   A    
Cu2   Cu12  S    
Cu11  O4    S    
C9    H12   S    
C4    O18   A    
C102  C135  A    
Cu2   O35   S    
C218  O36   A    
C147  C165  A    
C148  C207  S    
C105  N9    T    
C3    C55   S    
C27   C44   A    
C187  C209  A    
C107  N11   T    
C128  N31   T    
C136  N39   T    
C8    C52   A    
C164  C199  A    
C62   N5    A    
C14   C55   A    
C153  H19   S    
C63   N4    A    
C43   C69   S    
C64   N3    A    
C160  H26   S    
C77   C186  A    
C70   C87   A    
C103  C141  A    
Cu9   O19   S    
C168  C186  A    
C145  H11   S    
C146  H13   S    
C57   C130  S    
Cu4   O41   S    
C26   H27   S    
C145  C163  A    
Cu3   O38   S    
C20   H4    S    
C146  C164  A    
Cu2   O33   S    
C1    O46   A    
C181  C210  S    
C19   H3    S    
C93   C106  S    
C81   C189  A    
Cu10  O3    S    
C80   C188  A    
C114  N17   T    
C172  C202  A    
C17   C56   A    
C57   C94   A    
Cu6   O46   S    
C110  N15   T    
C72   C180  A    
C20   C58   A    
C219  O43   A    
Cu10  O7    S    
C6    C59   S    
C100  C117  S    
C40   C51   A    
C133  N37   T    
Cu12  O29   S    
C91   C114  S    
C4    O20   A    
C195  C212  A    
C66   N44   A    
C139  C141  S    
C7    O26   A    
C111  N16   T    
C101  C154  A    
Cu1   O14   S    
C109  N14   T    
C175  C193  A    
C222  O11   A    
Cu7   O45   S    
Cu10  O25   S    
C2    C125  S    
C69   N23   A    
C46   C149  A    
C2    C144  A    
C63   N2    A    
C44   C67   S    
C31   C47   A    
C78   C187  A    
C5    O19   A    
C129  N32   T    
C33   H35   S    
C76   C185  A    
C18   H2    S    
C216  O29   A    
C24   C91   A    
C94   C105  S    
C82   C99   A    
C112  O12   A    
Cu4   O43   S    
C10   C52   A    
Cu8   O5    S    
C130  N33   T    
C154  H20   S    
C156  C174  A    
C171  C188  A    
C204  C220  S    
C83   C191  A    
C168  C199  A    
C113  C155  A    
C201  C218  S    
C155  H21   S    
C83   H58   S    
Cu11  O24   S    
C48   C64   S    
C87   C111  S    
C81   C98   A    
C173  C190  A    
C174  C202  A    
C184  C206  A    
C220  O38   A    
Cu5   O10   S    
C180  C207  A    
C90   C97   A    
C12   H45   S    
C88   C110  S    
C35   C92   A    
C215  O35   A    
C86   C104  A    
N4    N46   A    
C148  O44   A    
C176  C200  A    
C198  C215  S    
C181  O6    A    
C104  C118  S    
C159  O47   A    
C61   N6    A    
C1    O1    A    
C90   C133  S    
C106  N10   T    
C223  O13   A    
C74   H49   S    
C8    H1    S    
Cu5   O17   S    
C222  O9    A    
C103  C115  S    
Cu4   O40   S    
Cu6   O16   S    
C54   C224  S    
Cu3   O39   S    
C72   H47   S    
C65   N45   A    
C81   H55   S    
Cu12  O27   S    
C99   C122  S    
C13   C126  S    
C96   C121  S    
Cu10  O20   S    
C203  O4    A    
C127  N30   T    
C104  C142  A    
C9    C53   A    
C41   C50   A    
C22   H6    S    
C197  C213  S    
C9    C27   A    
C78   H53   S    
C213  O27   A    
C10   C28   A    
C12   C30   A    
C82   H57   S    
C25   C42   A    
C99   C113  A    
C117  N20   T    
C172  C189  A    
C98   C101  A    
C28   C43   A    
Cu5   O47   S    
C166  C197  A    
C112  C206  S    
Cu5   Cu7   S    
C24   C146  A    
C73   C182  A    
C121  N25   T    
N1    N6    A    
Cu8   O22   S    
C150  C167  A    
C123  N27   T    
Cu5   O12   S    
C221  O41   A    
C35   C128  S    
C160  C177  A    
C164  C182  A    
C141  C158  A    
C125  N28   T    
C224  O14   A    
C140  N43   T    
C176  C194  A    
C161  C178  A    
C18   C36   A    
C12   C54   A    
C36   C49   A    
C149  H15   S    
C135  C138  S    
C49   C63   S    
C144  H10   S    
C167  C196  A    
C51   C61   S    
C159  C208  S    
C193  C210  A    
C215  O28   A    
C101  C134  S    
C170  C209  S    
C162  C197  A    
C173  C204  A    
Cu4   O42   S    
C85   C194  A    
Cu3   O37   S    
C137  N40   T    
C170  O48   A    
C151  C168  A    
C178  C205  A    
C89   C109  S    
C71   C179  A    
C65   N47   A    
C5    O21   A    
C87   C214  A    
Cu1   O9    S    
C15   H62   S    
C113  C136  S    
C138  N41   T    
C2    C88   A    
C134  N38   T    
C1    C205  S    
C11   C53   A    
C84   C102  A    
C131  N35   T    
C155  C173  A    
C179  C206  A    
C82   C190  A    
C112  O45   A    
C26   C43   A    
C156  H22   S    
C139  N42   T    
C199  C216  S    
C185  C205  A    
C152  C169  A    
C175  C201  A    
C189  C211  A    
C118  N21   T    
C70   C178  A    
C74   C183  A    
C77   C95   A    
C220  O42   A    
C143  H9    S    
N45   N48   A    
C202  C219  S    
C171  C201  A    
C192  C211  S    
C219  O37   A    
C86   C195  A    
C20   C38   A    
C92   C107  S    
C21   C39   A    
C223  O10   A    
C84   C193  A    
C158  H25   S    
C22   C40   A    
C57   C150  A    
C153  C171  A    
C224  O16   A    
C154  C172  A    
C35   C147  A    
C37   C48   A    
Cu9   Cu11  S    
C98   C119  S    
C162  C179  A    
N8    N23   A    
C157  C175  A    
C143  C214  A    
C158  C176  A    
C7    C60   S    
C124  C156  A    
C14   H56   S    
Cu2   O31   S    
C50   C62   S    
C203  C212  S    
C77   H52   S    
Cu11  O6    S    
C163  C180  A    
C61   N8    A    
C6    O22   A    
C13   C89   A    
C31   H32   S    
N3    N47   A    
C149  C166  A    
C142  C160  A    
C42   C51   A    
C97   C120  S    
C16   C55   A    
C29   C44   A    
C16   C33   A    
C194  C209  A    
C152  H18   S    
C42   H43   S    
C46   C93   A    
C79   C132  S    
Cu1   O1    S    
Cu9   O26   S    
C102  C116  S    
C39   C50   A    
C11   C29   A    
C45   C66   S    
C79   C152  A    
C72   C89   A    
Cu8   O48   S    
C47   C65   S    
C192  O3    A    
Cu12  O30   S    
