data_mof_unit_25728.cif
_audit_creation_date              2012-10-26T18:32:02-0400
_audit_creation_method            fapswitch 2.2
_symmetry_space_group_name_H-M    P1
_symmetry_Int_Tables_number       1
_space_group_crystal_system       triclinic
_cell_length_a                    12.368226
_cell_length_b                    13.238658
_cell_length_c                    14.278774
_cell_angle_alpha                 93.489213
_cell_angle_beta                  108.063631
_cell_angle_gamma                 116.732883
_cell_volume                      1929.12275537

loop_
_atom_site_label
_atom_site_type_symbol
_atom_type_description
_atom_site_fract_x
_atom_site_fract_y
_atom_site_fract_z
_atom_type_partial_charge
C1    C     C_R   0.645679 0.712514 0.501272 0.563784
C2    C     C_R   0.213878 0.493427 0.005058 0.045163
C3    C     C_R   0.162761 0.509839 0.077146 0.029962
C4    C     C_R   0.621674 0.520609 0.687211 0.564452
C5    C     C_R   0.316912 0.467793 0.034167 0.101383
C6    C     C_R   0.373320 0.467352 0.135320 -0.123513
C7    C     C_R   0.200923 0.481206 0.170466 0.066539
C8    C     C_R   0.192145 0.958747 0.430775 -0.108063
C9    C     C_R   0.257652 0.162240 0.475883 0.005307
C10   C     C_R   0.695181 0.921374 0.519772 0.025882
C11   C     C_R   0.797418 0.036048 0.559433 -0.132499
C12   C     C_R   0.893148 0.557404 0.923304 0.016803
C13   C     C_R   0.923117 0.066282 0.564339 0.021239
C14   C     C_R   0.941205 0.985407 0.508763 0.005798
C15   C     C_R   0.839471 0.867536 0.473307 -0.012453
C16   C     C_R   0.346200 0.285225 0.486215 0.560403
C17   C     C_R   0.054660 0.016501 0.485389 0.050232
C18   C     C_R   0.075227 0.929019 0.445080 0.047858
C19   C     C_R   0.974237 0.814529 0.410677 -0.123502
C20   C     C_R   0.855039 0.786586 0.417086 -0.101797
C21   C     C_R   0.141434 0.131764 0.490604 -0.078693
C22   C     C_R   0.284870 0.075298 0.448855 -0.107142
C23   C     C_R   0.865346 0.602487 0.000551 0.034320
C24   C     C_R   0.723809 0.833921 0.493484 -0.020790
C25   C     C_R   0.251781 0.689449 0.657265 -0.121972
C26   C     C_R   0.653311 0.337867 0.366892 0.059969
C27   C     C_R   0.729236 0.296742 0.342358 -0.131046
C28   C     C_R   0.379571 0.480825 0.312612 0.565815
C29   C     C_R   0.864419 0.354965 0.394814 -0.095646
C30   C     C_R   0.926167 0.456981 0.471467 0.021109
C31   C     C_R   0.843347 0.493743 0.496122 0.179307
C32   C     C_R   0.066100 0.523239 0.525300 -0.006465
C33   C     C_R   0.117659 0.622272 0.603345 -0.001631
C34   C     C_R   0.003384 0.540414 0.949383 0.039760
C35   C     C_R   0.035550 0.654047 0.628600 -0.177004
C36   C     C_R   0.901693 0.591037 0.576583 -0.101505
C37   C     C_R   0.158259 0.497237 0.505271 0.041442
C38   C     C_R   0.337191 0.661246 0.634123 0.244152
C39   C     C_R   0.701248 0.545807 0.795450 -0.019924
C40   C     C_R   0.316672 0.475545 0.204779 -0.008752
C41   C     C_R   0.756503 0.621512 0.973637 0.069305
C42   C     C_R   0.677140 0.594395 0.870994 -0.096758
C43   C     C_R   0.807580 0.526529 0.822309 -0.134988
C44   C     C_2   0.560251 0.896688 0.504345 0.601476
C45   C     C_R   0.069298 0.547620 0.051874 0.058155
C46   C     C_2   0.031470 0.177879 0.635501 0.565383
C47   C     C_2   0.719875 0.666492 0.049647 0.580104
C48   C     C_R   0.047212 0.600244 0.127210 -0.108444
C49   C     C_R   0.949145 0.629749 0.101967 -0.100922
C50   C     C_R   0.052515 0.519856 0.877430 -0.127604
C51   C     C_R   0.158930 0.500970 0.905852 -0.091005
Cu1   Cu    Cu3+1 0.416420 0.526630 0.522910 1.037414
Cu2   Cu    Cu3+1 0.583580 0.473370 0.477090 0.937279
H1    H     H_    0.939493 0.672669 0.163175 0.157512
H2    H     H_    0.126459 0.421746 0.448900 0.146641
H3    H     H_    0.548387 0.291187 0.326446 0.134482
H4    H     H_    0.918099 0.317632 0.375056 0.138163
H5    H     H_    0.682933 0.218705 0.283111 0.133308
H6    H     H_    0.847610 0.621678 0.602862 0.186292
H7    H     H_    0.458226 0.455692 0.158373 0.171469
H8    H     H_    0.196290 0.491127 0.848892 0.146846
H9    H     H_    0.594157 0.608703 0.850304 0.188366
H10   H     H_    0.820228 0.483742 0.763161 0.142109
H11   H     H_    0.108418 0.621752 0.206555 0.143137
H12   H     H_    0.374212 0.096991 0.436702 0.151946
H13   H     H_    0.015352 0.524545 0.799701 0.118199
H14   H     H_    0.366688 0.798315 0.421525 0.327638
H15   H     H_    0.096647 0.346932 0.692238 0.343192
H16   H     H_    0.687442 0.656984 0.179689 0.333221
H17   H     H_    0.984084 0.747988 0.371910 0.120186
H18   H     H_    0.209844 0.892030 0.402621 0.113798
H19   H     H_    0.115790 0.198333 0.500474 0.143665
H20   H     H_    0.780221 0.101475 0.590962 0.194364
H21   H     H_    0.774771 0.701228 0.374571 0.160105
H22   H     H_    0.075336 0.729028 0.689659 0.131160
H23   H     H_    0.290706 0.764513 0.717938 0.139637
I1    I     I_    0.388166 0.422927 0.930192 -0.302255
I2    I     I_    0.537178 0.771957 0.727338 -0.241060
I3    I     I_    0.052660 0.385981 0.227195 -0.408138
N1    N     N_R   0.290690 0.566960 0.557640 -0.232322
N2    N     N_R   0.709100 0.433710 0.442970 -0.240875
O1    O     O_R   0.545970 0.684450 0.528810 -0.438148
O2    O     O_R   0.453224 0.806370 0.424400 -0.678927
O3    O     O_2   0.134150 0.184002 0.688521 -0.470987
O4    O     O_R   0.014977 0.275445 0.643278 -0.715504
O5    O     O_2   0.686046 0.739762 0.034772 -0.486313
O6    O     O_R   0.717100 0.621026 0.135287 -0.710149
O7    O     O_R   0.687130 0.639470 0.490120 -0.546829
O8    O     O_R   0.519670 0.535100 0.660030 -0.471834
O9    O     O_R   0.660830 0.490120 0.621340 -0.523412
O10   O     O_R   0.312870 0.360530 0.509880 -0.502499
O11   O     O_R   0.454030 0.315550 0.471190 -0.506561
O12   O     O_R   0.339170 0.509880 0.378660 -0.462493
O13   O     O_R   0.480330 0.464900 0.339970 -0.523789
O14   O     O_2   0.542736 0.958298 0.558534 -0.511018

loop_
_geom_bond_atom_site_label_1
_geom_bond_atom_site_label_2
_ccdc_geom_bond_type
H14   O2    S    
C27   C29   A    
C41   C42   A    
C19   C20   A    
C51   H8    S    
C36   H6    S    
C43   H10   S    
C12   C23   A    
C35   H22   S    
C26   C27   A    
C5    C6    A    
Cu2   N2    S    
C9    C16   S    
C12   C43   A    
C3    C7    A    
C30   C31   A    
C9    C22   A    
C23   C49   A    
C28   C40   S    
C49   H1    S    
C28   O13   A    
C18   C19   A    
C35   C36   A    
C8    C22   A    
C7    C40   A    
C23   C41   A    
C42   H9    S    
H16   O6    S    
C46   O4    S    
C44   O2    S    
C1    O7    A    
C13   C14   A    
H15   O4    S    
C14   C17   A    
Cu1   O8    S    
C50   C51   A    
C39   C42   A    
C4    O9    A    
C15   C20   A    
C37   N1    A    
C34   C50   A    
C21   H19   S    
C10   C44   S    
C47   O5    D    
C6    H7    S    
C11   H20   S    
C39   C43   A    
C38   I2    S    
C10   C24   A    
C1    O1    A    
C3    C45   A    
C8    C18   A    
C28   O12   A    
C47   O6    S    
C22   H12   S    
C29   C30   A    
C25   C38   A    
C4    C39   S    
Cu2   O11   S    
C17   C18   A    
C41   C47   S    
C20   H21   S    
Cu1   O12   S    
C34   C45   A    
C32   C37   A    
Cu1   O1    S    
C50   H13   S    
C1    C24   S    
C46   O3    D    
C48   C49   A    
C29   H4    S    
C16   O11   A    
C26   N2    A    
C10   C11   A    
C6    C40   A    
C2    C5    A    
C12   C34   A    
Cu1   Cu2   S    
C7    I3    S    
C4    O8    A    
C45   C48   A    
C15   C24   A    
C8    H18   S    
Cu2   O13   S    
C14   C15   A    
C19   H17   S    
C27   H5    S    
C26   H3    S    
C31   N2    A    
C25   H23   S    
C32   C33   A    
C2    C3    A    
C44   O14   D    
C30   C32   A    
C11   C13   A    
C9    C21   A    
C13   C46   S    
C38   N1    A    
C33   C35   A    
Cu2   O7    S    
C17   C21   A    
C48   H11   S    
C2    C51   A    
C37   H2    S    
C16   O10   A    
Cu2   O9    S    
C31   C36   A    
Cu1   O10   S    
Cu1   N1    S    
C5    I1    S    
C25   C33   A    
