data_mof_unit_43952.cif
_audit_creation_date              2012-12-11T15:15:46-0500
_audit_creation_method            fapswitch 2.2
_symmetry_space_group_name_H-M    P1
_symmetry_Int_Tables_number       1
_space_group_crystal_system       triclinic
_cell_length_a                    20.663177
_cell_length_b                    22.760331
_cell_length_c                    6.940884
_cell_angle_alpha                 89.999748
_cell_angle_beta                  86.66743
_cell_angle_gamma                 90.000085
_cell_volume                      3258.78278163

loop_
_atom_site_label
_atom_site_type_symbol
_atom_type_description
_atom_site_fract_x
_atom_site_fract_y
_atom_site_fract_z
_atom_type_partial_charge
O1    O     O_R   0.387100 0.552640 0.378490 -0.535462
O2    O     O_R   0.612900 0.052640 0.621510 -0.535465
O3    O     O_R   0.249610 0.559600 0.072250 -0.546871
O4    O     O_R   0.750390 0.059600 0.927750 -0.546873
O5    O     O_R   0.249120 0.447360 0.902040 -0.543721
O6    O     O_R   0.750880 0.947360 0.097960 -0.543722
C1    C     C_R   0.227423 0.573823 0.244777 0.682047
C2    C     C_R   0.772576 0.073823 0.755222 0.682074
O7    O     O_R   0.386610 0.559560 0.048860 -0.536455
O8    O     O_R   0.613390 0.059560 0.951140 -0.536457
O9    O     O_R   0.387100 0.447320 0.878470 -0.535898
O10   O     O_R   0.612900 0.947320 0.121530 -0.535901
C3    C     C_R   0.407787 0.574838 0.213966 0.691381
C4    C     C_R   0.592213 0.074838 0.786033 0.691371
O11   O     O_R   0.249120 0.552680 0.402050 -0.544251
O12   O     O_R   0.750880 0.052680 0.597950 -0.544247
O13   O     O_3   0.318110 0.463180 0.223790 -0.369052
O14   O     O_3   0.681890 0.963180 0.776210 -0.369051
V1    V     V_3+5 0.318110 0.506830 0.948930 1.417358
V2    V     V_3+5 0.681890 0.006830 0.051070 1.417372
O15   O     O_R   0.386610 0.440400 0.548840 -0.538059
O16   O     O_R   0.613390 0.940400 0.451160 -0.538063
C5    C     C_R   0.407839 0.425156 0.713938 0.697357
C6    C     C_R   0.592160 0.925157 0.286062 0.697348
O17   O     O_R   0.249610 0.440440 0.572240 -0.547377
O18   O     O_R   0.750390 0.940440 0.427760 -0.547365
C7    C     C_R   0.227252 0.426406 0.744878 0.712348
C8    C     C_R   0.772747 0.926405 0.255123 0.712373
V3    V     V_3+5 0.318110 0.493170 0.448930 1.415903
V4    V     V_3+5 0.681890 0.993170 0.551070 1.415941
O19   O     O_3   0.318110 0.536820 0.723940 -0.369679
O20   O     O_3   0.681890 0.036820 0.276060 -0.369682
C9    C     C_R   0.174075 0.383050 0.764049 -0.116068
C10   C     C_R   0.825919 0.883045 0.235956 -0.116239
C11   C     C_R   0.154752 0.352090 0.602221 -0.176468
C12   C     C_R   0.845243 0.852088 0.397792 -0.176231
C13   C     C_R   0.105224 0.310583 0.621176 -0.192193
C14   C     C_R   0.894771 0.810579 0.378843 -0.192000
C15   C     C_R   0.072642 0.300207 0.801413 0.059875
C16   C     C_R   0.927344 0.800193 0.198598 0.059722
C17   C     C_R   0.091221 0.331533 0.964234 0.479745
C18   C     C_R   0.908749 0.831509 0.035775 0.479738
C19   C     C_R   0.142586 0.371823 0.945203 -0.252486
C20   C     C_R   0.857401 0.871808 0.054800 -0.252360
C21   C     C_R   0.897240 0.186259 0.887227 -0.128667
C22   C     C_R   0.102747 0.686246 0.112766 -0.128701
C23   C     C_R   0.847325 0.145058 0.902893 -0.181066
C24   C     C_R   0.152666 0.645049 0.097101 -0.181049
C25   C     C_R   0.853841 0.132972 0.555524 -0.174232
C26   C     C_R   0.146156 0.632969 0.444473 -0.174251
C27   C     C_R   0.903922 0.174167 0.539963 -0.145185
C28   C     C_R   0.096072 0.674160 0.460033 -0.145204
C29   C     C_R   0.926755 0.200545 0.705516 0.168559
C30   C     C_R   0.073235 0.700533 0.294479 0.168579
C31   C     C_2   0.019925 0.256231 0.823894 -0.158883
C32   C     C_2   0.980060 0.756216 0.176108 -0.159144
C33   C     C_2   0.980229 0.243703 0.682585 -0.232001
C34   C     C_2   0.019758 0.743689 0.317411 -0.231997
C35   C     C_R   0.825284 0.117694 0.737452 -0.048451
C36   C     C_R   0.174712 0.617690 0.262545 -0.048453
H1    H     H_    0.178662 0.359089 0.461055 0.148685
H2    H     H_    0.821339 0.859093 0.538960 0.148724
H3    H     H_    0.825772 0.134993 0.045017 0.124631
H4    H     H_    0.174218 0.634984 0.954977 0.124625
H5    H     H_    0.837768 0.112971 0.425043 0.123716
H6    H     H_    0.162233 0.612971 0.574956 0.123716
H7    H     H_    0.987308 0.265184 0.543398 0.146044
H8    H     H_    0.012680 0.765168 0.456600 0.146017
H9    H     H_    0.911515 0.207366 0.017686 0.103360
H10   H     H_    0.088469 0.707350 0.982305 0.103308
H11   H     H_    0.157486 0.394371 0.072711 0.137362
H12   H     H_    0.842525 0.894366 0.927277 0.137495
H13   H     H_    0.013166 0.234625 0.962808 0.161691
H14   H     H_    0.986818 0.734613 0.037189 0.161718
H15   H     H_    0.093583 0.285765 0.495007 0.179997
H16   H     H_    0.906416 0.785766 0.505020 0.180012
H17   H     H_    0.925397 0.185000 0.398269 0.105597
H18   H     H_    0.074598 0.684994 0.601728 0.105582
C37   C     C_R   0.575823 0.360842 0.656478 -0.161132
C38   C     C_R   0.424177 0.860841 0.343539 -0.161142
H19   H     H_    0.534500 0.446859 0.636639 0.107505
H20   H     H_    0.465500 0.946858 0.363378 0.107503
H21   H     H_    0.665965 0.277959 0.644676 0.125710
H22   H     H_    0.334036 0.777957 0.355347 0.125694
H23   H     H_    0.624419 0.376960 0.620988 0.112206
H24   H     H_    0.375582 0.876958 0.379036 0.112194
C39   C     C_R   0.461411 0.381908 0.711781 -0.039780
C40   C     C_R   0.538589 0.881907 0.288221 -0.039777
C41   C     C_R   0.475439 0.095541 0.833354 -0.163667
C42   C     C_R   0.524560 0.595542 0.166635 -0.163666
C43   C     C_R   0.422144 0.132933 0.844492 -0.120322
C44   C     C_R   0.577855 0.632934 0.155492 -0.120317
C45   C     C_R   0.429730 0.193085 0.812852 -0.156006
C46   C     C_R   0.570270 0.693086 0.187137 -0.156006
C47   C     C_R   0.491592 0.217785 0.768278 0.077710
C48   C     C_R   0.508408 0.717785 0.231720 0.077709
C49   C     C_R   0.546338 0.178836 0.755293 0.068707
C50   C     C_R   0.453663 0.678836 0.244709 0.068709
C51   C     C_R   0.500904 0.279727 0.736503 0.074028
C52   C     C_R   0.499096 0.779727 0.263499 0.074028
C53   C     C_R   0.564721 0.300776 0.690916 0.139129
C54   C     C_R   0.435279 0.800775 0.309095 0.139136
C55   C     C_R   0.617274 0.261891 0.679119 -0.199282
C56   C     C_R   0.382726 0.761890 0.320897 -0.199294
C57   C     C_R   0.608378 0.202047 0.711055 -0.194220
C58   C     C_R   0.391622 0.702046 0.288956 -0.194223
C59   C     C_R   0.449489 0.321763 0.747429 -0.215583
C60   C     C_R   0.550510 0.821763 0.252568 -0.215585
C61   C     C_R   0.524681 0.400842 0.665746 -0.168567
C62   C     C_R   0.475319 0.900841 0.334267 -0.168568
C63   C     C_R   0.537712 0.117410 0.788592 -0.084986
C64   C     C_R   0.462288 0.617410 0.211405 -0.084992
H25   H     H_    0.399803 0.309288 0.781015 0.094097
H26   H     H_    0.600196 0.809289 0.218975 0.094097
H27   H     H_    0.468063 0.049045 0.860272 0.106577
H28   H     H_    0.531936 0.549046 0.139712 0.106580
H29   H     H_    0.386125 0.219067 0.824552 0.108869
H30   H     H_    0.613874 0.719068 0.175433 0.108870
H31   H     H_    0.374284 0.115111 0.878936 0.118996
H32   H     H_    0.625715 0.615113 0.121042 0.119002
H33   H     H_    0.650741 0.173962 0.700408 0.111121
H34   H     H_    0.349260 0.673961 0.299608 0.111121
O21   O     O_3   0.061254 0.320222 0.143859 -0.573004
C65   C     C_3   0.021792 0.368543 0.199907 -0.308491
H35   H     H_    0.986625 0.379069 0.089160 0.145331
H36   H     H_    0.051499 0.407785 0.230949 0.145702
H37   H     H_    0.993347 0.357008 0.335015 0.166227
O22   O     O_3   0.938688 0.820210 0.856119 -0.572999
C66   C     C_3   0.978516 0.868356 0.800802 -0.308709
H38   H     H_    0.013913 0.878329 0.911413 0.145491
H39   H     H_    0.949127 0.907911 0.771064 0.145655
H40   H     H_    0.006698 0.856926 0.665135 0.166222

loop_
_geom_bond_atom_site_label_1
_geom_bond_atom_site_label_2
_ccdc_geom_bond_type
V4    O20   S    
C41   H27   S    
O13   V3    S    
C42   C64   A    
O4    C2    A    
V1    O19   S    
O22   C66   S    
C56   C58   A    
O21   C65   S    
C15   C17   A    
C14   H16   S    
C7    C9    S    
O9    V1    S    
C18   C20   A    
O10   V2    S    
H20   C62   S    
O16   C6    A    
C11   C13   A    
C66   H38   S    
C3    C64   S    
O3    C1    A    
C2    C35   S    
C23   H3    S    
C49   C63   A    
C47   C51   A    
C24   H4    S    
O12   V4    S    
C60   H26   S    
O7    C3    A    
C59   H25   S    
C38   H24   S    
C9    C11   A    
O5    C7    A    
O7    V1    S    
O6    C8    A    
O8    V2    S    
C25   C27   A    
C48   C50   A    
C26   C28   A    
O3    V1    S    
O14   V4    S    
C42   H28   S    
C41   C43   A    
C10   C12   A    
C18   O22   S    
C66   H40   S    
C40   C62   A    
C16   C18   A    
C13   H15   S    
C8    C10   S    
C2    O12   A    
C5    C39   S    
C17   C19   A    
C22   C30   A    
C24   C36   A    
C45   H29   S    
C33   H7    S    
C28   H18   S    
O1    V3    S    
C28   C30   A    
O11   V3    S    
C21   C23   A    
O17   V3    S    
C4    C63   S    
C13   C15   A    
C22   C24   A    
C52   C60   A    
C23   C35   A    
C32   H14   S    
C37   C61   A    
C21   H9    S    
C9    C19   A    
C57   H33   S    
C50   C64   A    
C11   H1    S    
O8    C4    A    
C29   C33   S    
C1    O11   A    
C12   H2    S    
C16   C32   S    
O15   V3    S    
C38   C54   A    
C27   C29   A    
C31   H13   S    
C54   C56   A    
C27   H17   S    
C43   C45   A    
C6    C40   S    
C42   C44   A    
C58   H34   S    
C44   C46   A    
C10   C20   A    
C55   C57   A    
C46   C48   A    
C26   H6    S    
C25   H5    S    
C65   H37   S    
O5    V1    S    
C34   H8    S    
C51   C53   A    
H19   C61   S    
O18   V4    S    
C31   C33   D    
O17   C7    A    
H22   C56   S    
C43   H31   S    
O1    C3    A    
C12   C14   A    
C1    C36   S    
C37   H23   S    
C51   C59   A    
C65   H36   S    
C52   C54   A    
V2    O20   S    
C41   C63   A    
C19   H11   S    
O16   V4    S    
C39   C59   A    
C25   C35   A    
C47   C49   A    
C39   C61   A    
C15   C31   S    
O6    V2    S    
O10   C6    A    
O18   C8    A    
C50   C58   A    
O2    V4    S    
C26   C36   A    
H21   C55   S    
C17   O21   S    
O15   C5    A    
C44   H32   S    
C49   C57   A    
V3    O19   S    
C14   C16   A    
C46   H30   S    
C45   C47   A    
C40   C60   A    
C48   C52   A    
O9    C5    A    
O13   V1    S    
C32   C34   D    
C20   H12   S    
O14   V2    S    
O2    C4    A    
C22   H10   S    
C21   C29   A    
O4    V2    S    
C30   C34   S    
C53   C55   A    
C38   C62   A    
C37   C53   A    
C65   H35   S    
C66   H39   S    
