data_mof_unit_15874.cif
_audit_creation_date              2012-10-26T18:29:50-0400
_audit_creation_method            fapswitch 2.2
_symmetry_space_group_name_H-M    P1
_symmetry_Int_Tables_number       1
_space_group_crystal_system       triclinic
_cell_length_a                    10.788036
_cell_length_b                    13.003901
_cell_length_c                    11.742205
_cell_angle_alpha                 99.888987
_cell_angle_beta                  94.323145
_cell_angle_gamma                 91.964392
_cell_volume                      1616.31067132

loop_
_atom_site_label
_atom_site_type_symbol
_atom_type_description
_atom_site_fract_x
_atom_site_fract_y
_atom_site_fract_z
_atom_type_partial_charge
C1    C     C_R   0.498412 0.299196 0.478515 0.529339
C2    C     C_R   0.502992 0.031109 0.553898 0.011162
C3    C     C_R   0.500539 0.968290 0.442466 0.056984
C4    C     C_R   0.260091 0.498537 0.499495 0.522644
C5    C     C_R   0.500372 0.860051 0.433728 -0.058714
C6    C     C_R   0.505991 0.877291 0.643306 -0.091040
C7    C     C_R   0.505952 0.985236 0.653459 -0.099127
C8    C     C_R   0.387870 0.394563 0.020255 -0.153114
C9    C     C_R   0.396961 0.406547 0.142599 0.022751
C10   C     C_R   0.548644 0.545307 0.157527 0.376480
C11   C     C_R   0.539193 0.537613 0.034832 0.005042
C12   C     C_3   0.879068 0.500755 0.502407 -0.012662
C13   C     C_R   0.459635 0.460503 0.964910 -0.018251
C14   C     C_R   0.454197 0.452009 0.841746 0.067356
C15   C     C_R   0.597209 0.598133 0.859660 0.123024
C16   C     C_R   0.501902 0.700840 0.521427 0.580136
C17   C     C_R   0.606851 0.606137 0.980701 -0.077434
C18   C     C_R   0.740350 0.501579 0.500666 0.572095
C19   C     C_3   0.070492 0.394605 0.534500 -0.081812
C20   C     C_3   0.925495 0.394844 0.533177 -0.117906
C21   C     C_3   0.086660 0.596359 0.582861 -0.154983
C22   C     C_3   0.061789 0.504287 0.377017 -0.258411
C23   C     C_3   0.943864 0.595690 0.593355 0.176656
C24   C     C_3   0.122556 0.497978 0.499686 -0.034025
C25   C     C_2   0.129300 0.372106 0.648514 0.208289
C26   C     C_2   0.667794 0.678756 0.812370 0.288017
C27   C     C_2   0.862054 0.299591 0.454657 0.212993
C28   C     C_2   0.921362 0.592125 0.719051 0.311697
C29   C     C_3   0.920413 0.510976 0.379718 -0.204574
C30   C     C_R   0.502998 0.814342 0.533456 0.002398
C31   C     C_R   0.498899 0.185750 0.465745 -0.049005
C32   C     C_R   0.497950 0.015537 0.342946 0.244062
C33   C     C_R   0.497031 0.123820 0.355361 -0.078249
C34   C     C_R   0.502128 0.139089 0.564579 -0.143675
Cl1   Cl    Cl    0.885826 0.717640 0.563346 -0.549966
Cl2   Cl    Cl    0.496112 0.943040 0.201200 -0.533131
Cl3   Cl    Cl    0.656943 0.637568 0.242598 -0.558631
Cu1   Cu    Cu3+1 0.509350 0.507730 0.615930 0.952666
Cu2   Cu    Cu3+1 0.490650 0.492270 0.384070 1.036365
H1    H     H_    0.892661 0.586555 0.356137 0.224548
H2    H     H_    0.324728 0.334403 0.969521 0.129476
H3    H     H_    0.667496 0.667553 0.032058 0.224390
H4    H     H_    0.340717 0.355380 0.183681 0.136607
H5    H     H_    0.897473 0.387465 0.620461 0.108299
H6    H     H_    0.139674 0.602231 0.668965 0.201503
H7    H     H_    0.100121 0.574114 0.345843 0.161662
H8    H     H_    0.082753 0.434217 0.313751 0.167802
H9    H     H_    0.873881 0.449274 0.311052 0.197604
H10   H     H_    0.190224 0.307323 0.648061 0.108759
H11   H     H_    0.694872 0.665439 0.725392 0.191560
H12   H     H_    0.118367 0.667080 0.549386 0.158096
H13   H     H_    0.783041 0.260129 0.483561 0.124225
H14   H     H_    0.869760 0.527835 0.743860 0.110859
H15   H     H_    0.497740 0.810805 0.349364 0.220945
H16   H     H_    0.507618 0.843255 0.721297 0.178099
H17   H     H_    0.507883 0.032807 0.739019 0.139768
H18   H     H_    0.495115 0.159422 0.278363 0.173166
H19   H     H_    0.503679 0.186656 0.650187 0.134661
H20   H     H_    0.393743 0.392105 0.787407 0.135069
H21   H     H_    0.097327 0.329315 0.467825 0.137277
N1    N     N_R   0.523430 0.519360 0.790130 -0.267921
N2    N     N_R   0.476570 0.480640 0.209880 -0.223989
O1    O     O_R   0.506640 0.354460 0.582000 -0.522434
O2    O     O_2   0.698789 0.763447 0.872306 -0.451468
O3    O     O_2   0.895312 0.267951 0.358196 -0.490825
O4    O     O_2   0.962809 0.662986 0.796207 -0.416289
O5    O     O_R   0.490840 0.341410 0.386200 -0.512961
O6    O     O_R   0.325590 0.506510 0.597900 -0.491334
O7    O     O_R   0.309790 0.493450 0.402100 -0.516662
O8    O     O_R   0.509160 0.658590 0.613800 -0.532835
O9    O     O_R   0.493360 0.645540 0.418000 -0.447407
O10   O     O_R   0.690210 0.506550 0.597900 -0.564670
O11   O     O_R   0.674410 0.493490 0.402100 -0.440634
O12   O     O_2   0.111078 0.426077 0.740993 -0.510391

loop_
_geom_bond_atom_site_label_1
_geom_bond_atom_site_label_2
_ccdc_geom_bond_type
Cu1   O8    S    
C8    C13   A    
C22   C29   S    
C12   C29   S    
C2    C7    A    
C6    H16   S    
C14   H20   S    
C12   C23   S    
C10   Cl3   S    
C32   Cl2   S    
Cu1   O1    S    
C26   H11   S    
Cu1   Cu2   S    
C4    C24   S    
C16   C30   S    
C1    C31   S    
C25   O12   D    
C26   O2    D    
C17   H3    S    
C19   C20   S    
C8    C9    A    
C31   C33   A    
Cu1   N1    S    
C2    C34   A    
C22   H8    S    
C13   C14   A    
C18   O10   A    
C10   N2    A    
C16   O9    A    
C7    H17   S    
C1    O1    A    
C4    O7    A    
C20   H5    S    
C21   H6    S    
Cu2   O7    S    
Cu1   O10   S    
C9    H4    S    
C29   H9    S    
C9    N2    A    
C5    H15   S    
C16   O8    A    
C8    H2    S    
C4    O6    A    
C15   C26   S    
C14   N1    A    
C28   O4    D    
C27   O3    D    
C12   C20   S    
C15   N1    A    
C31   C34   A    
C23   C28   S    
C22   H7    S    
Cu1   O6    S    
C18   O11   A    
C23   Cl1   S    
C21   C23   S    
C22   C24   S    
C21   H12   S    
C27   H13   S    
C5    C30   A    
C15   C17   A    
Cu2   N2    S    
C11   C17   A    
C33   H18   S    
C6    C30   A    
Cu2   O5    S    
C3    C5    A    
C28   H14   S    
C6    C7    A    
C20   C27   S    
C19   H21   S    
C32   C33   A    
C2    C3    A    
C11   C13   A    
C29   H1    S    
C1    O5    A    
C19   C24   S    
Cu2   O11   S    
C3    C32   A    
C19   C25   S    
C25   H10   S    
C10   C11   A    
C21   C24   S    
C12   C18   S    
C34   H19   S    
Cu2   O9    S    
