data_mof_unit_34525.cif
_audit_creation_date              2012-10-26T18:59:38-0400
_audit_creation_method            fapswitch 2.2
_symmetry_space_group_name_H-M    P1
_symmetry_Int_Tables_number       1
_space_group_crystal_system       triclinic
_cell_length_a                    23.524914
_cell_length_b                    10.816572
_cell_length_c                    9.536968
_cell_angle_alpha                 90.097039
_cell_angle_beta                  90.089955
_cell_angle_gamma                 90.199683
_cell_volume                      2426.74540346

loop_
_atom_site_label
_atom_site_type_symbol
_atom_type_description
_atom_site_fract_x
_atom_site_fract_y
_atom_site_fract_z
_atom_type_partial_charge
Br1   Br    Br    0.939507 0.889597 0.426263 -0.386076
C1    C     C_R   0.498911 0.262308 0.499863 0.551602
C2    C     C_R   0.120333 0.610997 0.477609 0.406398
C3    C     C_R   0.238897 0.513116 0.373037 -0.054263
C4    C     C_R   0.390914 0.499829 0.499928 0.548573
C5    C     C_R   0.298164 0.512374 0.373080 -0.141112
C6    C     C_R   0.328313 0.499836 0.499653 0.005479
C7    C     C_R   0.298069 0.487496 0.625944 -0.139683
C8    C     C_R   0.238792 0.487650 0.625476 -0.053969
C9    C     C_R   0.209080 0.500708 0.499134 0.242087
C10   C     C_R   0.760726 0.473689 0.369303 0.064900
C11   C     C_R   0.701079 0.472420 0.373467 -0.080214
C12   C     C_R   0.969736 0.282994 0.538794 -0.093787
C13   C     C_R   0.671806 0.499738 0.498078 -0.008258
C14   C     C_R   0.702872 0.527825 0.619596 -0.129559
C15   C     C_R   0.762012 0.528652 0.616992 -0.040681
C16   C     C_R   0.499140 0.737726 0.499990 0.567830
C17   C     C_R   0.791150 0.501821 0.492936 0.198204
C18   C     C_R   0.493180 0.063878 0.625573 0.017326
C19   C     C_R   0.493254 0.129214 0.499550 0.014041
C20   C     C_R   0.485456 0.064121 0.373198 -0.146817
C21   C     C_R   0.485616 0.935258 0.373302 -0.137722
C22   C     C_R   0.493651 0.870812 0.499718 0.022315
C23   C     C_R   0.028905 0.282334 0.539828 -0.106056
C24   C     C_R   0.493503 0.936665 0.625634 0.024465
C25   C     C_3   0.533770 0.931319 0.746713 -0.265925
C26   C     C_3   0.533143 0.071625 0.747144 -0.257003
C27   C     C_R   0.525550 0.594026 0.074213 0.121230
C28   C     C_R   0.609123 0.499937 0.499808 0.568037
C29   C     C_R   0.469982 0.414346 0.074161 -0.009254
C30   C     C_R   0.469939 0.414396 0.925229 -0.008350
C31   C     C_R   0.525898 0.593459 0.926549 0.128881
C32   C     C_3   0.587445 0.626834 0.922205 -0.278599
C33   C     C_3   0.586756 0.629454 0.081435 -0.111225
C34   C     C_R   0.059534 0.392306 0.519314 0.033956
C35   C     C_R   0.880096 0.613040 0.474188 0.417788
C36   C     C_R   0.880464 0.395157 0.515979 0.397397
C37   C     C_R   0.939894 0.393641 0.517283 0.029871
C38   C     C_R   0.969968 0.505272 0.496491 -0.057883
C39   C     C_R   0.940209 0.617505 0.474884 0.032992
C40   C     C_2   0.595000 0.756240 0.142797 0.254347
C41   C     C_2   0.790980 0.446371 0.236443 0.289151
C42   C     C_R   0.030055 0.504036 0.497495 -0.036521
C43   C     C_R   0.060674 0.614264 0.476676 -0.003827
C44   C     C_R   0.031295 0.725093 0.455833 -0.087324
C45   C     C_R   0.971946 0.728301 0.454929 0.173329
C46   C     C_R   0.119177 0.393475 0.519717 0.405693
Cu1   Cu    Cu3+1 0.500000 0.499980 0.640670 0.951245
Cu2   Cu    Cu3+1 0.500000 0.500020 0.359330 0.962695
H1    H     H_    0.947463 0.196362 0.554860 0.204701
H2    H     H_    0.574779 0.113712 0.718930 0.160875
H3    H     H_    0.446571 0.343599 0.129796 0.113892
H4    H     H_    0.050519 0.195338 0.556646 0.183386
H5    H     H_    0.446470 0.343724 0.869160 0.116057
H6    H     H_    0.613581 0.549833 0.881126 0.152560
H7    H     H_    0.595194 0.717711 0.871628 0.116529
H8    H     H_    0.613926 0.556997 0.129040 0.169538
H9    H     H_    0.054497 0.810654 0.440199 0.194323
H10   H     H_    0.216060 0.523087 0.275056 0.132507
H11   H     H_    0.320302 0.522167 0.274221 0.132384
H12   H     H_    0.677436 0.449193 0.279592 0.163531
H13   H     H_    0.320140 0.477416 0.724988 0.130932
H14   H     H_    0.215874 0.478160 0.723272 0.132252
H15   H     H_    0.570918 0.834160 0.102912 0.088179
H16   H     H_    0.837058 0.447755 0.232598 0.134234
H17   H     H_    0.681670 0.550541 0.716352 0.131593
H18   H     H_    0.785445 0.550601 0.711703 0.157677
H19   H     H_    0.481963 0.112074 0.273956 0.129680
H20   H     H_    0.482127 0.886864 0.274130 0.129283
H21   H     H_    0.513850 0.890133 0.841478 0.129781
H22   H     H_    0.575731 0.892136 0.717249 0.151448
H23   H     H_    0.512548 0.111434 0.841774 0.134642
N1    N     N_R   0.852112 0.503346 0.494162 -0.431933
N2    N     N_R   0.148178 0.501740 0.498884 -0.398200
N3    N     N_R   0.500360 0.500930 0.147930 -0.238120
N4    N     N_R   0.500360 0.500890 0.852020 -0.226937
O1    O     O_R   0.500000 0.319640 0.618810 -0.506003
O2    O     O_R   0.582120 0.500020 0.618760 -0.503967
O3    O     O_R   0.582120 0.500060 0.381180 -0.492489
O4    O     O_2   0.849343 0.716174 0.453345 -0.396039
O5    O     O_2   0.628744 0.772349 0.238455 -0.465103
O6    O     O_2   0.764807 0.422209 0.129086 -0.498509
O7    O     O_2   0.851018 0.289348 0.536068 -0.449587
O8    O     O_2   0.148011 0.287311 0.539822 -0.481671
O9    O     O_2   0.150339 0.716146 0.458237 -0.480309
O10   O     O_R   0.500010 0.319680 0.381230 -0.512538
O11   O     O_R   0.417880 0.499940 0.618820 -0.504183
O12   O     O_R   0.417880 0.499980 0.381240 -0.507133
O13   O     O_R   0.499990 0.680320 0.618770 -0.498122
O14   O     O_R   0.500000 0.680360 0.381190 -0.494862

loop_
_geom_bond_atom_site_label_1
_geom_bond_atom_site_label_2
_ccdc_geom_bond_type
C32   H6    S    
C10   C17   A    
C29   N3    A    
C2    O9    S    
Cu1   N4    S    
C18   C19   A    
C41   O6    D    
Cu2   O14   S    
C34   C46   A    
C6    C7    A    
C44   C45   A    
C39   C45   A    
C25   C26   S    
C16   C22   S    
C37   C38   A    
Br1   C45   S    
C14   C15   A    
C10   C41   S    
Cu1   O2    S    
C2    N2    A    
C36   N1    A    
C4    O12   A    
C28   O2    A    
C7    C8    A    
C41   H16   S    
Cu2   N3    S    
C18   C26   S    
C8    C9    A    
C21   H20   S    
C32   H7    S    
C27   C33   S    
C20   C21   A    
C25   H22   S    
Cu2   O12   S    
C33   C40   S    
C26   H2    S    
C44   H9    S    
C2    C43   A    
C23   C34   A    
C1    C19   S    
C5    H11   S    
C35   C39   A    
C16   O13   A    
C3    C5    A    
C35   O4    S    
C38   C39   A    
C4    C6    S    
C38   C42   A    
C23   H4    S    
C14   H17   S    
Cu2   O3    S    
C12   C23   A    
Cu1   O1    S    
C42   C43   A    
C36   C37   A    
C33   H8    S    
C28   O3    A    
C27   C31   A    
C40   O5    D    
C13   C14   A    
C32   C33   S    
Cu1   O11   S    
C15   H18   S    
C46   O8    S    
C12   C37   A    
Cu1   Cu2   S    
C11   C13   A    
C17   N1    S    
Cu1   O13   S    
C20   H19   S    
C25   H21   S    
C13   C28   S    
C3    C9    A    
C34   C42   A    
C43   C44   A    
C29   H3    S    
C8    H14   S    
Cu2   O10   S    
C16   O14   A    
C46   N2    A    
C31   N4    A    
C10   C11   A    
C5    C6    A    
C31   C32   S    
C24   C25   S    
C1    O1    A    
C11   H12   S    
C9    N2    S    
C30   N4    A    
C29   C30   A    
C3    H10   S    
C1    O10   A    
C22   C24   A    
C30   H5    S    
C18   C24   A    
C35   N1    A    
C12   H1    S    
C4    O11   A    
C19   C20   A    
C15   C17   A    
C21   C22   A    
C36   O7    S    
C40   H15   S    
C27   N3    A    
C26   H23   S    
C7    H13   S    
