data_mof_unit_27539.cif
_audit_creation_date              2012-12-10T18:53:03-0500
_audit_creation_method            fapswitch 2.2
_symmetry_space_group_name_H-M    P1
_symmetry_Int_Tables_number       1
_space_group_crystal_system       triclinic
_cell_length_a                    9.82867
_cell_length_b                    10.70538
_cell_length_c                    16.813218
_cell_angle_alpha                 90.24885
_cell_angle_beta                  83.580532
_cell_angle_gamma                 89.957603
_cell_volume                      1757.97078845

loop_
_atom_site_label
_atom_site_type_symbol
_atom_type_description
_atom_site_fract_x
_atom_site_fract_y
_atom_site_fract_z
_atom_type_partial_charge
C1    C     C_R   0.500030 0.740134 0.499928 0.857652
C2    C     C_R   0.062790 0.581038 0.547705 -0.088728
C3    C     C_R   0.081192 0.419129 0.452210 -0.064610
C4    C     C_R   0.918811 0.580924 0.547752 -0.064263
C5    C     C_R   0.478972 0.500005 0.653158 0.857320
C6    C     C_R   0.521016 0.500067 0.347064 0.858243
C7    C     C_R   0.461568 0.514849 0.739361 -0.072313
C8    C     C_R   0.539518 0.487863 0.261082 -0.063794
C9    C     C_R   0.550215 0.598018 0.772363 -0.246051
C10   C     C_R   0.467651 0.392136 0.227198 -0.238291
C11   C     C_R   0.540118 0.616217 0.854158 -0.161108
C12   C     C_R   0.499988 0.259860 0.499947 0.857947
C13   C     C_R   0.481889 0.375161 0.145143 -0.223323
C14   C     C_R   0.441511 0.551096 0.903449 0.137711
C15   C     C_R   0.566747 0.454998 0.096841 0.138919
C16   C     C_R   0.347343 0.473425 0.871421 -0.242650
C17   C     C_R   0.644489 0.546613 0.130068 -0.179642
C18   C     C_R   0.356623 0.453024 0.788953 0.164408
C19   C     C_R   0.631805 0.564685 0.212739 0.150383
C20   C     C_2   0.456243 0.542499 0.988067 0.082724
C21   C     C_2   0.549979 0.461371 0.012405 0.082535
C22   C     C_3   0.709476 0.671604 0.245915 -0.419364
C23   C     C_R   0.622718 0.935762 0.478101 -0.207494
C24   C     C_3   0.858458 0.635580 0.251175 -0.822821
C25   C     C_3   0.260920 0.358116 0.757946 -0.413637
C26   C     C_3   0.120554 0.415607 0.751178 -0.819156
C27   C     C_3   0.637367 0.373095 0.956774 -0.404626
C28   C     C_3   0.785963 0.416806 0.944062 -0.877477
C29   C     C_3   0.363473 0.625741 0.044238 -0.408623
C30   C     C_3   0.411808 0.761172 0.039316 -0.877921
C31   C     C_R   0.377262 0.064208 0.521370 -0.207933
C32   C     C_R   0.622739 0.063761 0.478175 -0.193126
C33   C     C_R   0.377248 0.936226 0.521317 -0.192992
C34   C     C_R   0.500018 0.127451 0.499843 -0.011844
C35   C     C_R   0.499994 0.872532 0.499755 -0.012207
C36   C     C_R   0.937225 0.419174 0.452139 -0.090795
H1    H     H_    0.629001 0.647591 0.734757 0.154905
H2    H     H_    0.282044 0.887477 0.538760 0.150558
H3    H     H_    0.889934 0.354686 0.413862 0.121854
H4    H     H_    0.110101 0.645807 0.585792 0.118802
H5    H     H_    0.143195 0.354515 0.414012 0.124546
H6    H     H_    0.856814 0.645552 0.585943 0.123413
H7    H     H_    0.912699 0.714772 0.276521 0.241712
H8    H     H_    0.864344 0.553198 0.290562 0.271685
H9    H     H_    0.910635 0.613233 0.190731 0.243674
H10   H     H_    0.706278 0.754437 0.206485 0.193720
H11   H     H_    0.661720 0.701935 0.305832 0.207099
H12   H     H_    0.399001 0.331625 0.264367 0.151707
H13   H     H_    0.130103 0.497394 0.710606 0.267771
H14   H     H_    0.053245 0.345309 0.726668 0.242490
H15   H     H_    0.072247 0.446050 0.811021 0.246181
H16   H     H_    0.303199 0.318460 0.699275 0.210059
H17   H     H_    0.248482 0.277371 0.799503 0.190373
H18   H     H_    0.792125 0.512277 0.918370 0.256403
H19   H     H_    0.831530 0.417081 0.001603 0.257520
H20   H     H_    0.846449 0.352380 0.901879 0.249803
H21   H     H_    0.633682 0.278238 0.983541 0.200656
H22   H     H_    0.599115 0.362679 0.897515 0.217659
H23   H     H_    0.273297 0.421892 0.911211 0.134449
H24   H     H_    0.518287 0.768208 0.055098 0.253674
H25   H     H_    0.407721 0.798179 0.978020 0.260003
H26   H     H_    0.344203 0.819340 0.081984 0.248843
H27   H     H_    0.257442 0.620732 0.027355 0.201427
H28   H     H_    0.357036 0.595419 0.107500 0.221172
H29   H     H_    0.707893 0.609036 0.091157 0.137013
H30   H     H_    0.420283 0.305517 0.118932 0.138087
H31   H     H_    0.613838 0.675349 0.879479 0.140381
H32   H     H_    0.717892 0.886626 0.460601 0.155692
H33   H     H_    0.282066 0.113317 0.538848 0.154672
H34   H     H_    0.717934 0.112530 0.460746 0.150597
N1    N     N_R   0.142790 0.500030 0.500020 -0.074553
N2    N     N_R   0.857210 0.499970 0.499980 -0.075595
O1    O     O_R   0.385380 0.683250 0.500010 -0.622953
O2    O     O_R   0.614620 0.316750 0.499990 -0.622756
O3    O     O_R   0.614710 0.683220 0.500000 -0.628770
O4    O     O_R   0.385290 0.316780 0.500000 -0.630069
O5    O     O_R   0.371780 0.500040 0.615800 -0.609822
O6    O     O_R   0.628220 0.499960 0.384200 -0.609349
O7    O     O_R   0.601110 0.500010 0.615800 -0.613853
O8    O     O_R   0.398890 0.499990 0.384200 -0.614861
Zn1   Zn    Zn3+2 0.346870 0.500020 0.500000 0.940140
Zn2   Zn    Zn3+2 0.653130 0.499980 0.500000 0.940792

loop_
_geom_bond_atom_site_label_1
_geom_bond_atom_site_label_2
_ccdc_geom_bond_type
C29   H27   S    
C12   O2    A    
C2    C4    A    
C28   H20   S    
C24   H9    S    
C25   H17   S    
C26   H14   S    
C11   C14   A    
C6    O6    A    
C15   C17   A    
C17   C19   A    
C30   H24   S    
C31   C33   A    
C5    O7    A    
C13   H30   S    
C22   H11   S    
C21   C27   S    
C29   H28   S    
C18   C25   S    
O2    Zn2   S    
O1    Zn1   S    
C28   H19   S    
C11   H31   S    
C20   C29   S    
C8    C19   A    
C1    O3    A    
C14   C20   S    
C19   C22   S    
C27   H21   S    
C26   H13   S    
C5    C7    S    
C28   H18   S    
C32   H34   S    
C25   C26   S    
C10   C13   A    
C16   H23   S    
C32   C34   A    
C23   H32   S    
C3    N1    A    
C29   C30   S    
O6    Zn2   S    
C6    O8    A    
O5    Zn1   S    
C7    C18   A    
C9    H1    S    
C31   C34   A    
C9    C11   A    
C8    C10   A    
C22   H10   S    
C23   C35   A    
C30   H26   S    
C12   O4    A    
C10   H12   S    
C24   H8    S    
C14   C16   A    
C5    O5    A    
C2    N1    A    
C4    N2    A    
C1    C35   S    
C7    C9    A    
C3    H5    S    
C36   H3    S    
O8    Zn1   S    
C27   H22   S    
O4    Zn1   S    
O7    Zn2   S    
C6    C8    S    
O3    Zn2   S    
C17   H29   S    
C33   H2    S    
C1    O1    A    
C23   C32   A    
C13   C15   A    
C25   H16   S    
C26   H15   S    
C15   C21   S    
C4    H6    S    
C3    C36   A    
C33   C35   A    
C22   C24   S    
C2    H4    S    
C31   H33   S    
C20   C21   D    
C16   C18   A    
C30   H25   S    
C27   C28   S    
C24   H7    S    
C12   C34   S    
N2    Zn2   S    
C36   N2    A    
N1    Zn1   S    
