data_mof_unit_33082.cif
_audit_creation_date              2013-03-05T16:13:32-0500
_audit_creation_method            fapswitch 2.2
_symmetry_space_group_name_H-M    P1
_symmetry_Int_Tables_number       1
_space_group_crystal_system       triclinic
_cell_length_a                    10.623386
_cell_length_b                    9.948526
_cell_length_c                    10.800985
_cell_angle_alpha                 90.565814
_cell_angle_beta                  91.582731
_cell_angle_gamma                 90.398176
_cell_volume                      1141.00311301

loop_
_atom_site_label
_atom_site_type_symbol
_atom_site_description
_atom_site_fract_x
_atom_site_fract_y
_atom_site_fract_z
_atom_type_partial_charge
O1    O     O_R   0.316770 0.614620 0.499990 -0.597658
O2    O     O_R   0.683230 0.614620 0.500010 -0.585956
O3    O     O_R   0.316800 0.385290 0.500000 -0.587579
O4    O     O_R   0.683200 0.385290 0.500000 -0.609759
C1    C     C_R   0.260715 0.499502 0.498074 0.958301
C2    C     C_R   0.739173 0.500284 0.499353 0.948265
O5    O     O_R   0.500000 0.614690 0.316780 -0.578806
O6    O     O_R   0.500000 0.614690 0.683220 -0.584160
O7    O     O_R   0.500020 0.385360 0.316780 -0.584176
O8    O     O_R   0.499980 0.385360 0.683220 -0.585828
C3    C     C_R   0.495248 0.498800 0.260473 0.951180
C4    C     C_R   0.495232 0.500616 0.739135 0.946716
Zn1   Zn    Zn3+2 0.500000 0.653120 0.500000 1.080270
Zn2   Zn    Zn3+2 0.500000 0.346880 0.500000 1.073389
C5    C     C_R   0.536868 0.604804 0.065388 -0.083162
C6    C     C_R   0.542252 0.605715 0.939461 -0.107362
C7    C     C_R   0.491221 0.494876 0.128251 -0.198654
C8    C     C_R   0.487349 0.500323 0.870643 -0.211934
C9    C     C_R   0.444462 0.381958 0.060532 0.225783
C10   C     C_R   0.438122 0.386784 0.931293 0.222266
C11   C     C_3   0.527215 0.757137 0.935781 0.394852
C12   C     C_3   0.518119 0.754105 0.078251 0.387157
C13   C     C_R   0.061544 0.444456 0.395429 -0.006024
C14   C     C_R   0.930694 0.445256 0.395584 0.018954
C15   C     C_R   0.871651 0.500774 0.498137 -0.021995
C16   C     C_R   0.128098 0.498773 0.497953 -0.018464
C17   C     C_R   0.938284 0.555136 0.600328 -0.022567
C18   C     C_R   0.068824 0.554396 0.600106 0.002646
C19   C     C_R   0.601164 0.073501 0.546855 0.145051
C20   C     C_R   0.397949 0.070914 0.455248 0.174774
C21   C     C_R   0.602525 0.929483 0.543850 0.171571
C22   C     C_R   0.396965 0.927040 0.457270 0.150788
N1    N     N_R   0.500000 0.857200 0.500000 -0.073399
N2    N     N_R   0.500000 0.142810 0.500000 -0.075222
N3    N     N_R   0.392892 0.267561 0.121118 0.236512
O9    O     O_R   0.274200 0.237776 0.104304 -0.359032
O10   O     O_R   0.468878 0.176979 0.165347 -0.280806
N4    N     N_R   0.375086 0.279975 0.863200 0.251387
O11   O     O_R   0.410695 0.156153 0.877458 -0.230719
O12   O     O_R   0.277608 0.305705 0.791951 -0.377216
N5    N     N_R   0.640445 0.827982 0.895307 0.202776
O13   O     O_R   0.640224 0.958582 0.889429 -0.313277
O14   O     O_R   0.747955 0.766235 0.894053 -0.405599
N6    N     N_R   0.394406 0.795062 0.123017 0.206784
O15   O     O_R   0.362266 0.920713 0.116373 -0.274953
O16   O     O_R   0.309414 0.706674 0.151894 -0.395600
N7    N     N_R   0.411824 0.798386 0.867611 0.238786
O17   O     O_R   0.304660 0.739480 0.887587 -0.364560
O18   O     O_R   0.417393 0.883966 0.777606 -0.316417
N8    N     N_R   0.622614 0.821133 0.147238 0.220836
O19   O     O_R   0.710343 0.751722 0.203147 -0.374586
O20   O     O_R   0.627232 0.951557 0.155240 -0.275049
N9    N     N_3   0.127846 0.392467 0.291581 -0.416100
H1    H     H_    0.099941 0.292638 0.276315 0.223444
H2    H     H_    0.102839 0.448215 0.213283 0.233864
N10   N     N_3   0.856696 0.392757 0.292483 -0.429193
H3    H     H_    0.879807 0.445320 0.212853 0.220656
H4    H     H_    0.878600 0.291390 0.279819 0.214724
N11   N     N_3   0.872278 0.607972 0.703924 -0.414743
H5    H     H_    0.900601 0.707803 0.718205 0.235038
H6    H     H_    0.897363 0.552810 0.782558 0.223207
N12   N     N_3   0.142367 0.608042 0.702751 -0.388879
H7    H     H_    0.119079 0.556457 0.782869 0.240727
H8    H     H_    0.120106 0.709510 0.713984 0.238332
N13   N     N_3   0.704999 0.147258 0.601266 -0.388542
H9    H     H_    0.715278 0.121080 0.694400 0.223839
H10   H     H_    0.786952 0.121625 0.555450 0.170253
N14   N     N_3   0.291084 0.141789 0.407194 -0.373865
H11   H     H_    0.272921 0.110598 0.315904 0.239458
H12   H     H_    0.213083 0.117640 0.459732 0.171170
N15   N     N_3   0.712161 0.859156 0.585793 -0.378818
H13   H     H_    0.786432 0.884428 0.528758 0.177940
H14   H     H_    0.736136 0.890323 0.675780 0.224415
N16   N     N_3   0.286332 0.854486 0.417251 -0.367202
H15   H     H_    0.213306 0.879711 0.475883 0.174287
H16   H     H_    0.260295 0.883042 0.327638 0.237462

loop_
_geom_bond_atom_site_label_1
_geom_bond_atom_site_label_2
_geom_bond_distance
_ccdc_geom_bond_type
Zn2   N2    2.030197 S    
O5    C3    1.298202 A    
O7    Zn2   2.019357 S    
C21   N1    1.371717 A    
N11   H5    1.044497 S    
Zn1   N1    2.030295 S    
C6    C11   1.516779 S    
C20   N14   1.428702 S    
C1    C16   1.408768 S    
C14   N10   1.437110 S    
C10   N4    1.437330 S    
N5    O13   1.301466 A    
N9    H2    1.045118 S    
C16   C18   1.396885 A    
N7    O17   1.301091 A    
N13   H10   1.045127 S    
C12   N8    1.471868 S    
O6    C4    1.292152 A    
C17   C18   1.386916 A    
C22   N1    1.372172 A    
N12   H7    1.045098 S    
C21   N15   1.428190 S    
N8    O19   1.302373 A    
N15   H13   1.045180 S    
N7    O18   1.300873 A    
C17   N11   1.434184 S    
N9    H1    1.044700 S    
C14   C15   1.398762 A    
N4    O12   1.301406 A    
N5    O14   1.300928 A    
N12   H8    1.045054 S    
O2    C2    1.287080 A    
O3    Zn2   1.985967 S    
N16   H16   1.042006 S    
C19   N13   1.430034 S    
O8    C4    1.292613 A    
C18   N12   1.434933 S    
C6    C8    1.394338 A    
C7    C9    1.414092 A    
N6    O16   1.302180 A    
C13   N9    1.434917 S    
C8    C10   1.415560 A    
O7    C3    1.287917 A    
O4    Zn2   1.980755 S    
N4    O11   1.300486 A    
O1    C1    1.286864 A    
N11   H6    1.045111 S    
C2    C15   1.407767 S    
O1    Zn1   1.981233 S    
N16   H15   1.045260 S    
C20   N2    1.368948 A    
C13   C14   1.390196 A    
O4    C2    1.285821 A    
C5    C6    1.363034 A    
C20   C22   1.431688 A    
O6    Zn1   2.019253 S    
O5    Zn1   2.011839 S    
O2    Zn1   1.986456 S    
N6    O15   1.300271 A    
C19   C21   1.432998 A    
N13   H9    1.044585 S    
C11   N5    1.469066 S    
C13   C16   1.399204 A    
N15   H14   1.041619 S    
N8    O20   1.300042 A    
C5    C7    1.384798 A    
N14   H12   1.045120 S    
C15   C17   1.396993 A    
C3    C7    1.427726 S    
C22   N16   1.429391 S    
C9    N3    1.431587 S    
N3    O10   1.299699 A    
C11   C12   1.545086 S    
N10   H4    1.045052 S    
O8    Zn2   2.011935 S    
C19   N2    1.368825 A    
N10   H3    1.045094 S    
C5    C12   1.505555 S    
C12   N6    1.471644 S    
C9    C10   1.396984 A    
C11   N7    1.475237 S    
N14   H11   1.043253 S    
O3    C1    1.286728 A    
N3    O9    1.300682 A    
C4    C8    1.425217 S    
