data_mof_unit_14939.cif
_audit_creation_date              2013-03-05T16:33:56-0500
_audit_creation_method            fapswitch 2.2
_symmetry_space_group_name_H-M    P1
_symmetry_Int_Tables_number       1
_space_group_crystal_system       triclinic
_cell_length_a                    18.712617
_cell_length_b                    18.708101
_cell_length_c                    19.167442
_cell_angle_alpha                 109.986294
_cell_angle_beta                  109.333512
_cell_angle_gamma                 108.968044
_cell_volume                      5173.11998635

loop_
_atom_site_label
_atom_site_type_symbol
_atom_site_description
_atom_site_fract_x
_atom_site_fract_y
_atom_site_fract_z
_atom_type_partial_charge
O1    O     O_R   0.410050 0.552190 0.462250 -0.598196
O2    O     O_R   0.410760 0.447830 0.358560 -0.534173
C1    C     C_R   0.381663 0.500229 0.382278 0.824438
O3    O     O_R   0.589820 0.642360 0.551840 -0.599714
O4    O     O_R   0.590530 0.538000 0.448150 -0.575105
C2    C     C_R   0.619238 0.619289 0.500778 0.761054
Cu1   Cu    Cu3+1 0.499580 0.561790 0.561390 1.033915
Cu2   Cu    Cu3+1 0.500420 0.438210 0.438610 1.152302
O5    O     O_R   0.589240 0.552170 0.641440 -0.605207
O6    O     O_R   0.589950 0.447810 0.537750 -0.513383
O7    O     O_R   0.409470 0.462000 0.551850 -0.603594
O8    O     O_R   0.410180 0.357640 0.448160 -0.514710
C3    C     C_R   0.621023 0.502498 0.617448 0.799070
C4    C     C_R   0.380381 0.381229 0.498916 0.899932
H1    H     H_    0.837152 0.804969 0.890272 0.178298
C5    C     C_R   0.755389 0.811239 0.784459 0.375067
C6    C     C_R   0.736159 0.798846 0.702421 -0.160379
H2    H     H_    0.688336 0.813461 0.669758 0.172145
C7    C     C_R   0.778633 0.767534 0.662133 -0.003901
C8    C     C_R   0.842961 0.751889 0.705172 -0.081873
C9    C     C_R   0.863886 0.766000 0.787131 -0.155002
H3    H     H_    0.914412 0.754440 0.819459 0.182853
C10   C     C_R   0.820211 0.794980 0.826708 -0.219288
C11   C     C_R   0.824899 0.817454 0.573906 -0.215916
C12   C     C_R   0.812235 0.812125 0.495929 -0.069830
C13   C     C_R   0.733613 0.745126 0.419062 0.071093
C14   C     C_R   0.672066 0.681761 0.422585 -0.199115
H4    H     H_    0.612997 0.628171 0.363955 0.147454
C15   C     C_R   0.685208 0.687384 0.500927 -0.073373
C16   C     C_R   0.761094 0.757364 0.577539 0.026342
C17   C     C_R   0.637986 0.731837 0.279986 0.359213
C18   C     C_R   0.619106 0.714360 0.196634 -0.162831
H5    H     H_    0.560716 0.710397 0.154598 0.189380
C19   C     C_R   0.676482 0.704457 0.167670 -0.163946
H6    H     H_    0.661727 0.691916 0.103706 0.165070
C20   C     C_R   0.753480 0.712171 0.221563 -0.106067
H7    H     H_    0.798533 0.705611 0.199512 0.146160
C21   C     C_R   0.772372 0.728051 0.303897 -0.166940
H8    H     H_    0.832324 0.734426 0.344947 0.116201
C22   C     C_R   0.714923 0.736688 0.333872 0.006254
H9    H     H_    0.561078 0.884087 0.618966 0.204830
C23   C     C_R   0.424287 0.790073 0.537251 -0.067945
H10   H     H_    0.405310 0.825196 0.578737 0.178095
C24   C     C_R   0.360976 0.711300 0.461148 -0.074355
H11   H     H_    0.293199 0.686038 0.444386 0.161231
C25   C     C_R   0.385219 0.665227 0.407159 0.146177
C26   C     C_R   0.473480 0.699611 0.429921 -0.007019
C27   C     C_R   0.536629 0.778251 0.506304 -0.085514
H12   H     H_    0.604685 0.804156 0.524172 0.162156
C28   C     C_R   0.512073 0.823359 0.559917 -0.085255
C29   C     C_R   0.255316 0.580343 0.261442 0.316505
C30   C     C_R   0.187908 0.500235 0.187316 -0.218054
C31   C     C_R   0.183703 0.420298 0.176872 -0.166646
C32   C     C_R   0.248916 0.420793 0.239966 0.295937
C33   C     C_R   0.314938 0.500733 0.315988 -0.228718
C34   C     C_R   0.317808 0.580665 0.327079 -0.148123
C35   C     C_R   0.049519 0.277767 0.111551 -0.066663
H13   H     H_    0.055783 0.295555 0.174100 0.127427
C36   C     C_R   0.980430 0.197191 0.041045 -0.091109
H14   H     H_    0.933855 0.153476 0.049355 0.170137
C37   C     C_R   0.971617 0.172895 0.959917 -0.102373
H15   H     H_    0.918237 0.110378 0.905394 0.161253
C38   C     C_R   0.031939 0.229113 0.949229 -0.085028
H16   H     H_    0.024983 0.209612 0.886357 0.175188
C39   C     C_R   0.100937 0.310154 0.019481 -0.071507
C40   C     C_R   0.110079 0.335023 0.101227 0.161101
H17   H     H_    0.180352 0.563619 0.437952 0.198430
C41   C     C_R   0.241814 0.533025 0.532706 0.368810
C42   C     C_R   0.254680 0.467010 0.544516 -0.159301
H18   H     H_    0.292934 0.479995 0.608308 0.163202
C43   C     C_R   0.219819 0.384440 0.473989 0.079689
C44   C     C_R   0.169296 0.367044 0.391359 -0.037393
H19   H     H_    0.139871 0.302956 0.336550 0.190333
C45   C     C_R   0.155655 0.431913 0.379118 -0.188856
H20   H     H_    0.116895 0.418345 0.315231 0.170253
C46   C     C_R   0.191872 0.514489 0.449162 -0.161563
C47   C     C_R   0.171382 0.250626 0.486257 0.306915
C48   C     C_R   0.186184 0.185613 0.499492 -0.233064
C49   C     C_R   0.264334 0.184185 0.510737 -0.154384
C50   C     C_R   0.328253 0.249254 0.510801 0.298535
C51   C     C_R   0.313711 0.314574 0.499116 -0.212103
C52   C     C_R   0.235513 0.315674 0.486777 -0.142777
C53   C     C_R   0.345970 0.136727 0.600858 -0.077720
H21   H     H_    0.386092 0.203856 0.653014 0.129796
C54   C     C_R   0.359866 0.071566 0.612408 -0.118080
H22   H     H_    0.410596 0.088549 0.672963 0.160157
C55   C     C_R   0.308027 0.984467 0.546014 -0.108496
C56   C     C_R   0.242536 0.962469 0.467813 -0.057208
H23   H     H_    0.202019 0.894884 0.416872 0.179647
C57   C     C_R   0.228867 0.027497 0.455658 -0.035986
H24   H     H_    0.177876 0.009654 0.394781 0.124186
C58   C     C_R   0.280173 0.115098 0.522418 0.174683
C59   C     C_2   0.778616 0.539702 0.829618 -0.153576
C60   C     C_2   0.817624 0.492505 0.814693 -0.175702
H25   H     H_    0.794364 0.579584 0.894589 0.128035
H26   H     H_    0.796900 0.444434 0.750542 0.163139
C61   C     C_2   0.707715 0.533259 0.760356 -0.241256
C62   C     C_2   0.698304 0.512788 0.682010 0.197699
H27   H     H_    0.659182 0.543848 0.774533 0.163683
O9    O     O_R   0.052450 0.909800 0.462220 -0.601178
O10   O     O_R   0.948740 0.909840 0.358530 -0.580342
C63   C     C_R   0.999135 0.878769 0.382967 0.777013
O11   O     O_R   0.961680 0.909780 0.551820 -0.581698
O12   O     O_R   0.857970 0.909820 0.448140 -0.566309
C64   C     C_R   0.880685 0.879794 0.498111 0.766460
Cu3   Cu    Cu3+1 0.061410 0.999960 0.561370 1.021834
Cu4   Cu    Cu3+1 0.938590 0.000000 0.438590 1.081731
O13   O     O_R   0.051260 0.090120 0.641420 -0.562336
O14   O     O_R   0.947550 0.090150 0.537740 -0.547555
O15   O     O_R   0.142030 0.090140 0.551820 -0.595060
O16   O     O_R   0.038320 0.090170 0.448130 -0.526208
C65   C     C_R   0.000845 0.120555 0.617698 0.801833
C66   C     C_R   0.119052 0.118836 0.500102 0.840519
O17   O     O_R   0.056040 0.462030 0.913600 -0.583147
O18   O     O_R   0.951650 0.357670 0.913630 -0.584044
C67   C     C_R   0.002017 0.380865 0.883316 0.758304
O19   O     O_R   0.145040 0.552210 0.092780 -0.546766
O20   O     O_R   0.040660 0.447850 0.092810 -0.571042
C68   C     C_R   0.121364 0.500132 0.121009 0.867379
Cu5   Cu    Cu3+1 0.065060 0.561820 0.003180 1.085201
Cu6   Cu    Cu3+1 0.941450 0.438250 0.003210 1.046583
O21   O     O_R   0.054850 0.642400 0.092760 -0.547844
O22   O     O_R   0.950470 0.538040 0.092790 -0.552318
O23   O     O_R   0.965850 0.552220 0.913580 -0.551690
O24   O     O_R   0.861470 0.447860 0.913610 -0.589882
C69   C     C_R   0.003959 0.619238 0.122531 0.848579
C70   C     C_R   0.885017 0.498981 0.884850 0.778710
C71   C     C_R   0.067322 0.755559 0.541786 -0.167829
H28   H     H_    0.125416 0.793674 0.604120 0.192678
C72   C     C_R   0.070974 0.769903 0.475776 -0.102253
H29   H     H_    0.131781 0.818026 0.488085 0.147801
C73   C     C_R   0.996563 0.722804 0.394576 0.129195
C74   C     C_R   0.920120 0.657138 0.378920 -0.189137
H30   H     H_    0.863090 0.617461 0.315658 0.174379
C75   C     C_R   0.916188 0.642797 0.444780 -0.184157
C76   C     C_R   0.989615 0.692275 0.527166 0.385188
C77   C     C_R   0.000376 0.673588 0.258420 0.325102
C78   C     C_R   0.006442 0.686828 0.191869 -0.156716
C79   C     C_R   0.016156 0.765432 0.193217 0.019355
C80   C     C_R   0.011378 0.825678 0.255483 -0.220225
C81   C     C_R   0.002336 0.811807 0.319619 -0.148208
C82   C     C_R   0.000502 0.737185 0.323992 -0.109713
C83   C     C_R   0.108359 0.849550 0.147553 0.366061
C84   C     C_R   0.113871 0.867652 0.083569 -0.155417
H31   H     H_    0.174795 0.916282 0.096574 0.195263
C85   C     C_R   0.041638 0.821279 0.001586 -0.147947
H32   H     H_    0.047234 0.834830 0.952542 0.167899
C86   C     C_R   0.962801 0.757299 0.982972 -0.115165
H33   H     H_    0.906882 0.720499 0.919682 0.151898
C87   C     C_R   0.955510 0.740366 0.046269 -0.195970
C88   C     C_R   0.027691 0.785252 0.128267 0.025661
C89   C     C_R   0.290725 0.268703 0.768545 -0.178839
H34   H     H_    0.330856 0.240746 0.787296 0.173076
C90   C     C_R   0.216205 0.251119 0.777601 0.391026
C91   C     C_R   0.164204 0.287607 0.750602 -0.058730
C92   C     C_R   0.191600 0.345049 0.721457 -0.129898
H35   H     H_    0.153877 0.375187 0.702792 0.195712
C93   C     C_R   0.266420 0.362666 0.714301 -0.099368
H36   H     H_    0.286134 0.405991 0.690567 0.151853
C94   C     C_R   0.315301 0.323761 0.736812 -0.196122
C95   C     C_R   0.077910 0.328882 0.813447 -0.192771
H37   H     H_    0.137954 0.389002 0.863695 0.164701
C96   C     C_R   0.999571 0.313834 0.813669 -0.096954
C97   C     C_R   0.921368 0.235600 0.747924 0.018479
C98   C     C_R   0.923475 0.173857 0.683607 -0.217692
C99   C     C_R   0.001903 0.188656 0.684299 -0.035400
C100  C     C_R   0.080309 0.266483 0.750112 0.082923
C101  C     C_R   0.793247 0.149266 0.755036 -0.222070
H38   H     H_    0.823165 0.111087 0.767887 0.157750
C102  C     C_R   0.712482 0.131277 0.751101 0.370155
C103  C     C_R   0.674989 0.181707 0.733972 -0.156017
H39   H     H_    0.612819 0.169306 0.730332 0.174903
C104  C     C_R   0.717641 0.248945 0.721581 -0.154322
H40   H     H_    0.688211 0.287317 0.708376 0.173604
C105  C     C_R   0.798126 0.266826 0.726305 -0.103762
H41   H     H_    0.830590 0.319044 0.716545 0.137088
C106  C     C_R   0.836397 0.217211 0.743266 0.074071
H42   H     H_    0.493181 0.664972 0.388953 0.131827
N1    N     N_R   0.260044 0.661646 0.270663 0.133094
O25   O     O_R   0.330560 0.723815 0.285967 -0.260898
O26   O     O_R   0.195265 0.675013 0.267071 -0.330634
N2    N     N_R   0.248008 0.339651 0.225625 0.135898
O27   O     O_R   0.247374 0.291713 0.157463 -0.301349
O28   O     O_R   0.245817 0.312364 0.279217 -0.388385
N3    N     N_R   0.709593 0.840219 0.824524 0.137274
O29   O     O_R   0.731764 0.858053 0.902881 -0.333846
O30   O     O_R   0.643732 0.846726 0.782245 -0.291884
H43   H     H_    0.147270 0.353188 0.010366 0.129064
N4    N     N_R   0.279394 0.618281 0.604954 0.134979
O31   O     O_R   0.267182 0.679197 0.594084 -0.354833
O32   O     O_R   0.326589 0.636000 0.682286 -0.318962
N5    N     N_R   0.091789 0.251918 0.473759 0.143157
O33   O     O_R   0.071704 0.263702 0.533986 -0.369937
O34   O     O_R   0.035914 0.234084 0.399556 -0.326792
N6    N     N_R   0.408724 0.249771 0.523930 0.123013
O35   O     O_R   0.408184 0.182058 0.473219 -0.275892
O36   O     O_R   0.482579 0.317144 0.588017 -0.409530
H44   H     H_    0.318476 0.933987 0.555194 0.149726
H45   H     H_    0.877580 0.729692 0.675538 0.213859
N7    N     N_R   0.766037 0.510865 0.662551 0.115734
O37   O     O_R   0.746193 0.453462 0.587474 -0.288953
O38   O     O_R   0.846176 0.574094 0.714868 -0.330148
N8    N     N_R   0.985552 0.677614 0.595087 0.122358
O39   O     O_R   0.052008 0.726325 0.672437 -0.321686
O40   O     O_R   0.915387 0.615275 0.580196 -0.308575
H46   H     H_    0.855706 0.592899 0.431165 0.194293
N9    N     N_R   0.998651 0.597719 0.262080 0.135153
O41   O     O_R   0.924490 0.526538 0.223638 -0.340943
O42   O     O_R   0.068734 0.604589 0.315459 -0.344991
H47   H     H_    0.016062 0.884722 0.254632 0.160744
N10   N     N_R   0.184917 0.894823 0.230092 0.108516
O43   O     O_R   0.244670 0.974042 0.259936 -0.310888
O44   O     O_R   0.200796 0.853441 0.270425 -0.308842
H48   H     H_    0.893623 0.692108 0.031837 0.120854
H49   H     H_    0.372935 0.337079 0.730536 0.158054
N11   N     N_R   0.195085 0.197042 0.814127 0.135775
O45   O     O_R   0.151805 0.205888 0.854343 -0.372221
O46   O     O_R   0.225192 0.143256 0.813369 -0.336557
H50   H     H_    0.863718 0.113585 0.632970 0.160459
H51   H     H_    0.884172 0.870230 0.632887 0.171520
N12   N     N_R   0.669156 0.062610 0.764802 0.115027
O47   O     O_R   0.706013 0.019120 0.785180 -0.345573
O48   O     O_R   0.592821 0.043432 0.757808 -0.351548
N13   N     N_R   0.581025 0.748387 0.310068 0.101986
O49   O     O_R   0.498086 0.710461 0.256858 -0.331360
O50   O     O_R   0.613432 0.810937 0.387404 -0.360152

loop_
_geom_bond_atom_site_label_1
_geom_bond_atom_site_label_2
_geom_bond_distance
_ccdc_geom_bond_type
O10   Cu4   1.966676 S    
N8    O39   1.301514 A    
C38   C39   1.399843 A    
O10   C63   1.302522 A    
O18   Cu6   1.972761 S    
C74   H30   1.083110 S    
C14   C15   1.398955 A    
C32   C33   1.415422 A    
C67   C96   1.461036 S    
C7    C8    1.397068 A    
C35   C40   1.405351 A    
C55   C56   1.397191 A    
C71   H28   1.082319 S    
C89   C94   1.395687 A    
C95   H37   1.084670 S    
C57   H24   1.082997 S    
C80   H47   1.085554 S    
Cu1   Cu2   2.685613 S    
C105  C106  1.401549 A    
C89   C90   1.408546 A    
C104  H40   1.082388 S    
C30   C31   1.411072 A    
Cu1   O7    1.969267 S    
C53   C58   1.405229 A    
C103  C104  1.397428 A    
C13   C14   1.398170 A    
C98   C99   1.396840 A    
C45   C46   1.395504 A    
C47   C52   1.398416 A    
C20   H7    1.082692 S    
C86   C87   1.391110 A    
C19   H6    1.082380 S    
C26   H42   1.082413 S    
C5    N3    1.439188 S    
C71   C76   1.406722 A    
C77   N9    1.435374 S    
O4    C2    1.296270 A    
C50   C51   1.407287 A    
O7    C4    1.288659 A    
C83   C84   1.405128 A    
C35   C36   1.397762 A    
C5    C6    1.406325 A    
C102  C103  1.407004 A    
C101  C106  1.402881 A    
C17   C22   1.419207 A    
C37   C38   1.396731 A    
C29   C34   1.402290 A    
C79   C88   1.474920 S    
C3    C62   1.459781 S    
C42   C43   1.404528 A    
O5    C3    1.294996 A    
O20   C68   1.291265 A    
C95   C96   1.401755 A    
N2    O27   1.301235 A    
C8    H45   1.082590 S    
C1    C33   1.462503 S    
C92   C93   1.394889 A    
O11   C64   1.300389 A    
C69   C78   1.462722 S    
C96   C97   1.413312 A    
C91   C100  1.484993 S    
N7    O37   1.300967 A    
C27   H12   1.081905 S    
C32   N2    1.440515 S    
C63   C81   1.450651 S    
C15   C16   1.408313 A    
C47   C48   1.415546 A    
C43   C52   1.488241 S    
O13   C65   1.289604 A    
C101  C102  1.406984 A    
C39   H43   1.083096 S    
C36   H14   1.082319 S    
C59   H25   1.083177 S    
C9    H3    1.077611 S    
N13   O49   1.301418 A    
C93   C94   1.392382 A    
O12   Cu4   1.973602 S    
Cu4   O14   1.974433 S    
N4    O31   1.301700 A    
C23   C24   1.397988 A    
O3    Cu1   1.973724 S    
C29   N1    1.439091 S    
O12   C64   1.291145 A    
C61   H27   1.086946 S    
Cu5   O21   1.972878 S    
C61   C62   1.349307 D    
C85   C86   1.395703 A    
C104  C105  1.396383 A    
C42   H18   1.082072 S    
C73   C82   1.486660 S    
C36   C37   1.396488 A    
C77   C82   1.403299 A    
C54   H22   1.082395 S    
C45   H20   1.081562 S    
C54   C55   1.397550 A    
C12   C64   1.455765 S    
N9    O41   1.301134 A    
C26   C27   1.398643 A    
C75   C76   1.405600 A    
C11   C12   1.395799 A    
N7    O38   1.301505 A    
C84   C85   1.395823 A    
O19   Cu5   1.976311 S    
C48   C49   1.416481 A    
C73   C74   1.402438 A    
O22   C69   1.294672 A    
C83   N10   1.437752 S    
C24   C25   1.405314 A    
C12   C13   1.417701 A    
C31   C32   1.399861 A    
C94   H49   1.082308 S    
C51   C52   1.411138 A    
C17   N13   1.436619 S    
C71   C72   1.398192 A    
O1    C1    1.297440 A    
O20   Cu6   1.972193 S    
C18   C19   1.396042 A    
C93   H36   1.081125 S    
O21   C69   1.296477 A    
C72   C73   1.402710 A    
N10   O43   1.301374 A    
Cu6   O24   1.976311 S    
N12   O47   1.301497 A    
C31   C40   1.487529 S    
C102  N12   1.439114 S    
N8    O40   1.301678 A    
C57   C58   1.405394 A    
C53   H21   1.082635 S    
O15   C66   1.298996 A    
Cu2   O8    1.973722 S    
C65   C99   1.451974 S    
C8    C9    1.390276 A    
C33   C34   1.416738 A    
O9    C63   1.287295 A    
C6    H2    1.082892 S    
C90   C91   1.421469 A    
O16   C66   1.293784 A    
C59   C60   1.333742 D    
N11   O45   1.300293 A    
C60   H26   1.082923 S    
C27   C28   1.396857 A    
C103  H39   1.082523 S    
C49   C58   1.487085 S    
C95   C100  1.392793 A    
C23   C28   1.397318 A    
C75   H46   1.082380 S    
C11   H51   1.085328 S    
C44   C45   1.396191 A    
C101  H38   1.083134 S    
C53   C54   1.398273 A    
C56   C57   1.398662 A    
C5    C10   1.406228 A    
C9    C10   1.398129 A    
C99   C100  1.412135 A    
C49   C50   1.401424 A    
O14   C65   1.300097 A    
O3    C2    1.292147 A    
C23   H10   1.082431 S    
C25   C34   1.486828 S    
C20   C21   1.394830 A    
C59   C61   1.468895 S    
H9    C28   1.081280 S    
C14   H4    1.084783 S    
C24   H11   1.082520 S    
N9    O42   1.302031 A    
C85   H32   1.081552 S    
Cu3   O15   1.973599 S    
Cu1   O5    1.970305 S    
C50   N6    1.438357 S    
C25   C26   1.404384 A    
C97   C98   1.394245 A    
C83   C88   1.417164 A    
N2    O28   1.300103 A    
N10   O44   1.300726 A    
O1    Cu1   1.978170 S    
C47   N5    1.437845 S    
Cu4   O16   1.969387 S    
C41   C42   1.408102 A    
C17   C18   1.406511 A    
O2    Cu2   1.970304 S    
N11   O46   1.301579 A    
C44   H19   1.082194 S    
O6    C3    1.294281 A    
N13   O50   1.300817 A    
H17   C46   1.081926 S    
O4    Cu2   1.969268 S    
O17   C67   1.294455 A    
C79   C80   1.385398 A    
C38   H16   1.080291 S    
N1    O25   1.301061 A    
C41   C46   1.405970 A    
C77   C78   1.412448 A    
O9    Cu3   1.974529 S    
C87   C88   1.398055 A    
C62   N7    1.442344 S    
C84   H31   1.082621 S    
N5    O33   1.299867 A    
O19   C68   1.294889 A    
C72   H29   1.082609 S    
O8    C4    1.295309 A    
C29   C30   1.408767 A    
N12   O48   1.301630 A    
C105  H41   1.082937 S    
C81   C82   1.416994 A    
C18   H5    1.082649 S    
C21   C22   1.403673 A    
C13   C22   1.491081 S    
N3    O29   1.301550 A    
C21   H8    1.075307 S    
Cu3   O13   1.966575 S    
C41   N4    1.439567 S    
C80   C81   1.390845 A    
C55   H44   1.082546 S    
H1    C10   1.081627 S    
C6    C7    1.403925 A    
C90   N11   1.441269 S    
O2    C1    1.292412 A    
O11   Cu3   1.969385 S    
C19   C20   1.393317 A    
C86   H33   1.077396 S    
C87   H48   1.081772 S    
C60   C70   1.442136 S    
C37   H15   1.082419 S    
C11   C16   1.389290 A    
Cu6   O22   1.968227 S    
N3    O30   1.301580 A    
C78   C79   1.411845 A    
C98   H50   1.085097 S    
N6    O35   1.301179 A    
C48   C66   1.462313 S    
C30   C68   1.454216 S    
Cu5   O23   1.972195 S    
C43   C44   1.401553 A    
C2    C15   1.455918 S    
C92   H35   1.083335 S    
C56   H23   1.081482 S    
Cu2   O6    1.978170 S    
C39   C40   1.404712 A    
Cu3   Cu4   2.691010 S    
O23   C70   1.295136 A    
C91   C92   1.404118 A    
O24   C70   1.288403 A    
C74   C75   1.396822 A    
Cu5   Cu6   2.687035 S    
N1    O26   1.300089 A    
C89   H34   1.082489 S    
C4    C51   1.451385 S    
N4    O32   1.301529 A    
C35   H13   1.081999 S    
C7    C16   1.472810 S    
C76   N8    1.439419 S    
O17   Cu5   1.968228 S    
C97   C106  1.477812 S    
O18   C67   1.297411 A    
N5    O34   1.300613 A    
N6    O36   1.301045 A    
