data_mof_unit_57205.cif
_audit_creation_date              2013-03-05T16:01:15-0500
_audit_creation_method            fapswitch 2.2
_symmetry_space_group_name_H-M    P1
_symmetry_Int_Tables_number       1
_space_group_crystal_system       triclinic
_cell_length_a                    14.63667
_cell_length_b                    14.772372
_cell_length_c                    17.299326
_cell_angle_alpha                 105.941495
_cell_angle_beta                  73.792505
_cell_angle_gamma                 115.346397
_cell_volume                      3193.70819796

loop_
_atom_site_label
_atom_site_type_symbol
_atom_site_description
_atom_site_fract_x
_atom_site_fract_y
_atom_site_fract_z
_atom_type_partial_charge
O1    O     O_R   0.020090 0.662480 0.528530 -0.592504
O2    O     O_R   0.979910 0.337520 0.471470 -0.594148
O3    O     O_R   0.160710 0.620650 0.491980 -0.567379
O4    O     O_R   0.839290 0.379350 0.508020 -0.570883
C1    C     C_R   0.119306 0.688473 0.514416 0.800813
C2    C     C_R   0.880700 0.311865 0.486643 0.798024
O5    O     O_R   0.921540 0.523360 0.633990 -0.567089
O6    O     O_R   0.078460 0.476640 0.366010 -0.583233
O7    O     O_R   0.062170 0.481520 0.597440 -0.595610
O8    O     O_R   0.937830 0.518480 0.402560 -0.596025
C3    C     C_R   0.989325 0.501460 0.651972 0.815001
C4    C     C_R   0.010055 0.497476 0.347826 0.790777
Cu1   Cu    Cu3+1 0.916740 0.524770 0.521640 0.967850
Cu2   Cu    Cu3+1 0.083260 0.475230 0.478360 0.955951
C5    C     C_R   0.986673 0.499448 0.735975 -0.057452
C6    C     C_R   0.009818 0.494254 0.263137 -0.066703
C7    C     C_R   0.010709 0.424558 0.751292 -0.178029
C8    C     C_R   0.975885 0.560724 0.245732 -0.192201
C9    C     C_R   0.023248 0.427557 0.829534 0.178931
C10   C     C_R   0.961492 0.551597 0.166723 0.176294
C11   C     C_R   0.012136 0.509452 0.891897 0.123331
C12   C     C_R   0.981047 0.472384 0.105729 0.120862
C13   C     C_R   0.986283 0.582920 0.876348 -0.170537
C14   C     C_R   0.016488 0.407297 0.123208 -0.173873
C15   C     C_R   0.972140 0.577237 0.798836 -0.183396
C16   C     C_R   0.032098 0.418910 0.201496 -0.203186
C17   C     C_2   0.029264 0.522358 0.973982 -0.251850
C18   C     C_2   0.965560 0.455958 0.022582 -0.255311
H1    H     H_    0.020744 0.365141 0.700968 0.159555
H2    H     H_    0.959806 0.618453 0.294948 0.164731
H3    H     H_    0.057154 0.366498 0.214736 0.146505
H4    H     H_    0.954810 0.635982 0.787026 0.146204
H5    H     H_    0.902771 0.388446 0.001097 0.165200
H6    H     H_    0.090533 0.590773 0.996629 0.165643
H7    H     H_    0.977781 0.645249 0.924440 0.141985
H8    H     H_    0.031724 0.347180 0.076004 0.146145
C19   C     C_R   0.186237 0.797254 0.530714 -0.079212
C20   C     C_R   0.812717 0.204579 0.487574 -0.074399
C21   C     C_R   0.208382 0.972999 0.586935 -0.113548
C22   C     C_R   0.787215 0.031501 0.485924 -0.106214
C23   C     C_R   0.144373 0.871737 0.565732 -0.208321
C24   C     C_R   0.852973 0.130761 0.477202 -0.216083
C25   C     C_R   0.292903 0.825999 0.516877 -0.117793
C26   C     C_R   0.706044 0.177445 0.505743 -0.123756
C27   C     C_R   0.357930 0.925433 0.546439 0.085756
C28   C     C_R   0.638618 0.080701 0.523593 0.082052
C29   C     C_R   0.315505 0.001380 0.577022 -0.024625
C30   C     C_R   0.680001 0.005290 0.509083 -0.017747
C31   C     C_R   0.464511 0.951606 0.543103 -0.135826
C32   C     C_R   0.530795 0.055905 0.551156 -0.143260
C33   C     C_R   0.486880 0.130939 0.588145 0.244451
C34   C     C_R   0.507012 0.877919 0.534959 0.266230
C35   C     C_R   0.379837 0.103294 0.600026 0.248478
C36   C     C_R   0.614062 0.905342 0.518485 0.247854
H9    H     H_    0.676439 0.232521 0.504755 0.172528
H10   H     H_    0.324380 0.769817 0.482033 0.187196
H11   H     H_    0.935245 0.149595 0.462466 0.161294
H12   H     H_    0.062060 0.851874 0.577046 0.161489
H13   H     H_    0.172822 0.028259 0.612854 0.184080
H14   H     H_    0.821171 0.975831 0.475069 0.186858
N1    N     N_R   0.208390 0.438070 0.445820 -0.192205
N2    N     N_R   0.791610 0.561930 0.554180 -0.184418
C37   C     C_R   0.293473 0.330665 0.358720 -0.292392
C38   C     C_R   0.700030 0.662643 0.642390 -0.213602
C39   C     C_R   0.210543 0.361053 0.381815 0.086061
C40   C     C_R   0.788437 0.640767 0.616100 0.095367
C41   C     C_R   0.283138 0.483143 0.492027 0.059535
C42   C     C_R   0.711768 0.506073 0.513656 0.063818
C43   C     C_R   0.366243 0.450899 0.474957 0.002227
C44   C     C_R   0.624829 0.532137 0.531119 -0.002128
C45   C     C_R   0.373604 0.378531 0.403213 0.128326
C46   C     C_R   0.616616 0.605996 0.601737 0.151546
C47   C     C_R   0.446020 0.493496 0.522269 0.066133
C48   C     C_R   0.543189 0.483477 0.485123 0.033723
C49   C     C_R   0.553688 0.425871 0.403864 0.135108
C50   C     C_R   0.434209 0.548058 0.604144 0.185291
C51   C     C_R   0.464643 0.361953 0.371726 -0.165778
C52   C     C_R   0.522427 0.615473 0.635959 -0.070402
H15   H     H_    0.469767 0.308682 0.314999 0.143924
H16   H     H_    0.515227 0.667027 0.693476 0.145860
H17   H     H_    0.715710 0.439475 0.469867 0.122742
H18   H     H_    0.278060 0.545848 0.540358 0.171616
H19   H     H_    0.852858 0.683588 0.647477 0.116967
H20   H     H_    0.148629 0.324667 0.347517 0.122716
H21   H     H_    0.296869 0.273123 0.304601 0.138021
H22   H     H_    0.695654 0.721114 0.695567 0.145620
N3    N     N_R   0.547809 0.232021 0.624009 0.137758
O9    O     O_R   0.606634 0.244859 0.673527 -0.330024
O10   O     O_R   0.542005 0.311283 0.609760 -0.344322
N4    N     N_R   0.443499 0.779321 0.555446 0.110062
O11   O     O_R   0.379723 0.770473 0.625049 -0.396242
O12   O     O_R   0.449160 0.698205 0.504240 -0.381111
C53   C     C_3   0.656571 0.438758 0.345494 -0.419274
C54   C     C_3   0.658428 0.453939 0.260841 -0.805216
H23   H     H_    0.608015 0.383901 0.226081 0.240321
H24   H     H_    0.634721 0.517971 0.266670 0.274170
H25   H     H_    0.737625 0.471780 0.224741 0.247891
H26   H     H_    0.719302 0.508139 0.368519 0.218189
H27   H     H_    0.674984 0.370910 0.338045 0.197638
C55   C     C_3   0.331098 0.528402 0.662800 -0.431437
C56   C     C_3   0.331126 0.500534 0.741734 -0.775298
H28   H     H_    0.349909 0.431697 0.727509 0.308868
H29   H     H_    0.386651 0.563969 0.777393 0.240101
H30   H     H_    0.253837 0.484619 0.780922 0.244933
H31   H     H_    0.311844 0.597045 0.678606 0.251987
H32   H     H_    0.268375 0.462828 0.635871 0.207745
C57   C     C_3   0.923420 0.622239 0.146327 -0.420658
C58   C     C_3   0.895236 0.699023 0.218260 -0.828587
H33   H     H_    0.834066 0.659528 0.266145 0.268618
H34   H     H_    0.964172 0.753186 0.244745 0.251358
H35   H     H_    0.865736 0.743440 0.196267 0.253414
H36   H     H_    0.983871 0.666252 0.100579 0.209841
H37   H     H_    0.854270 0.575158 0.118000 0.215015
C59   C     C_3   0.050687 0.347428 0.847392 -0.431860
C60   C     C_3   0.075591 0.271085 0.773249 -0.781594
H38   H     H_    0.006509 0.222632 0.745200 0.247389
H39   H     H_    0.139701 0.310903 0.727055 0.273406
H40   H     H_    0.099543 0.220599 0.793300 0.267069
H41   H     H_    0.118522 0.386555 0.878020 0.218707
H42   H     H_    0.985495 0.303070 0.890429 0.210077
N5    N     N_R   0.336577 0.179267 0.637326 0.137000
O13   O     O_R   0.337738 0.220481 0.714045 -0.332096
O14   O     O_R   0.301635 0.211593 0.593387 -0.385317
N6    N     N_R   0.655532 0.831689 0.514403 0.139443
O15   O     O_R   0.700920 0.840632 0.572456 -0.387424
O16   O     O_R   0.661672 0.765606 0.447624 -0.346092

loop_
_geom_bond_atom_site_label_1
_geom_bond_atom_site_label_2
_geom_bond_distance
_ccdc_geom_bond_type
N3    O9    1.301450 A    
C37   C39   1.389897 A    
C53   C54   1.532501 S    
C22   H14   1.082390 S    
C1    C19   1.476131 S    
C7    H1    1.081268 S    
C47   C48   1.440618 A    
C34   N4    1.432356 S    
C59   C60   1.531752 S    
C21   C23   1.393007 A    
O5    C3    1.299292 A    
C55   H31   1.109848 S    
C14   H8    1.083874 S    
O1    C1    1.300797 A    
C42   H17   1.076960 S    
N6    O16   1.301265 A    
C9    C11   1.416859 A    
C14   C16   1.388292 A    
C23   H12   1.083128 S    
C20   C24   1.397181 A    
C52   H16   1.083994 S    
C5    C15   1.393572 A    
C60   H38   1.110682 S    
C58   H33   1.110152 S    
C5    C7    1.401485 A    
C57   H36   1.109579 S    
O4    Cu1   1.934275 S    
C43   C45   1.410656 A    
C57   H37   1.111408 S    
C46   C52   1.390954 A    
C40   H19   1.081787 S    
C3    C5    1.451005 S    
Cu1   N2    2.021901 S    
C4    C6    1.453638 S    
C26   C28   1.405883 A    
C60   H39   1.110014 S    
C44   C48   1.434885 A    
C57   C58   1.531003 S    
C2    C20   1.468686 S    
C43   C47   1.432068 A    
C8    H2    1.081051 S    
C53   H27   1.111200 S    
C59   H41   1.111173 S    
C29   C35   1.406380 A    
C10   C57   1.527717 S    
C31   C34   1.427701 A    
C15   H4    1.083479 S    
C27   C29   1.418181 A    
C11   C17   1.457657 S    
C16   H3    1.083443 S    
C56   H29   1.108796 S    
C12   C18   1.456860 S    
Cu1   Cu2   2.691472 S    
C37   H21   1.083781 S    
O2    C2    1.300709 A    
C24   H11   1.083156 S    
C38   H22   1.083718 S    
C34   C36   1.403944 A    
C51   H15   1.083130 S    
C17   H6    1.087087 S    
C6    C16   1.395318 A    
C28   C30   1.417785 A    
C48   C49   1.434612 A    
N2    C40   1.356159 A    
C56   H28   1.110997 S    
O4    C2    1.299090 A    
C33   N3    1.438675 S    
C39   H20   1.081707 S    
C9    C59   1.528080 S    
Cu2   N1    2.021901 S    
C33   C35   1.407937 A    
C38   C40   1.390842 A    
C19   C25   1.398092 A    
C30   C36   1.400764 A    
O7    Cu2   1.977871 S    
C20   C26   1.398812 A    
O7    C3    1.291622 A    
N1    C41   1.360661 A    
N4    O12   1.299376 A    
C27   C31   1.425470 A    
O6    C4    1.299615 A    
C60   H40   1.110541 S    
C21   H13   1.082027 S    
C32   C33   1.428993 A    
C54   H24   1.111022 S    
C49   C51   1.400639 A    
N5    O13   1.300859 A    
O3    Cu2   1.934277 S    
O8    C4    1.292683 A    
C42   C44   1.414131 A    
C37   C45   1.401039 A    
C18   H5    1.086141 S    
C56   H30   1.107393 S    
C13   H7    1.083946 S    
C11   C13   1.400771 A    
C47   C50   1.428709 A    
C12   C14   1.399742 A    
O1    Cu1   1.942576 S    
C10   C12   1.415793 A    
C45   C51   1.390395 A    
C49   C53   1.528002 S    
C21   C29   1.410720 A    
C22   C30   1.409629 A    
C36   N6    1.434051 S    
O6    Cu2   1.970429 S    
C50   C52   1.398794 A    
O3    C1    1.302558 A    
O8    Cu1   1.977871 S    
C50   C55   1.524264 S    
C28   C32   1.425852 A    
C55   H32   1.107991 S    
C54   H25   1.108104 S    
C58   H35   1.110451 S    
N2    C42   1.360874 A    
N3    O10   1.301676 A    
C25   C27   1.409653 A    
C35   N5    1.435048 S    
C26   H9    1.078720 S    
N4    O11   1.301084 A    
C22   C24   1.389723 A    
C55   C56   1.530800 S    
C7    C9    1.402318 A    
C58   H34   1.110708 S    
C8    C10   1.402092 A    
C38   C46   1.402419 A    
C19   C23   1.398931 A    
C54   H23   1.108522 S    
O2    Cu2   1.942577 S    
N5    O14   1.301120 A    
N1    C39   1.356697 A    
C25   H10   1.077942 S    
O5    Cu1   1.970428 S    
C13   C15   1.387858 A    
C41   H18   1.077695 S    
C6    C8    1.401767 A    
C31   C32   1.418543 A    
C17   C18   1.330688 D    
C44   C46   1.412593 A    
C41   C43   1.418437 A    
C53   H26   1.107407 S    
C59   H42   1.109156 S    
N6    O15   1.300692 A    
