data_mof_unit_22948.cif
_audit_creation_date              2012-12-10T16:41:51-0500
_audit_creation_method            fapswitch 2.2
_symmetry_space_group_name_H-M    P1
_symmetry_Int_Tables_number       1
_space_group_crystal_system       triclinic
_cell_length_a                    10.894895
_cell_length_b                    8.718434
_cell_length_c                    7.442436
_cell_angle_alpha                 102.504883
_cell_angle_beta                  93.835116
_cell_angle_gamma                 91.627119
_cell_volume                      687.94732658

loop_
_atom_site_label
_atom_site_type_symbol
_atom_type_description
_atom_site_fract_x
_atom_site_fract_y
_atom_site_fract_z
_atom_type_partial_charge
C1    C     C_R   0.486027 0.200112 0.454013 0.735645
C2    C     C_2   0.509713 0.967227 0.566025 -0.458805
C3    C     C_R   0.264823 0.499339 0.503280 0.745709
C4    C     C_R   0.502607 0.799964 0.545630 0.938395
C5    C     C_R   0.733460 0.489558 0.495832 0.835174
C6    C     C_2   0.925525 0.461151 0.344926 -0.140069
C7    C     C_2   0.861550 0.455000 0.489349 -0.236372
C8    C     C_2   0.058962 0.443301 0.357015 -0.262745
C9    C     C_2   0.131451 0.506068 0.511328 0.310321
C10   C     C_2   0.462752 0.031790 0.430857 0.269718
Cu1   Cu    Cu3+1 0.513740 0.517380 0.684380 0.928962
Cu2   Cu    Cu3+1 0.486260 0.482620 0.315620 0.947781
H1    H     H_    0.880223 0.479501 0.217418 0.158854
H2    H     H_    0.903849 0.420174 0.608584 0.166955
H3    H     H_    0.098662 0.382780 0.232335 0.130174
H4    H     H_    0.561695 0.036211 0.688128 0.134141
H5    H     H_    0.404524 0.379348 0.948940 0.212028
H6    H     H_    0.595230 0.620938 0.051132 0.230776
N1    N     N_2   0.465540 0.456420 0.038510 -0.230364
N2    N     N_2   0.534460 0.543580 0.961490 -0.226899
O1    O     O_R   0.508930 0.286130 0.619780 -0.596254
O2    O     O_R   0.485720 0.256780 0.308360 -0.611399
O3    O     O_R   0.333540 0.514670 0.655670 -0.610270
O4    O     O_R   0.310330 0.485320 0.344250 -0.594742
O5    O     O_R   0.514280 0.743220 0.691640 -0.601899
O6    O     O_R   0.491070 0.713870 0.380220 -0.525547
O7    O     O_R   0.689670 0.514680 0.655750 -0.582598
O8    O     O_R   0.666460 0.485330 0.344330 -0.589052
O9    O     O_3   0.083279 0.606841 0.658461 -0.566215
C11   C     C_3   0.096142 0.547106 0.820699 0.055838
H7    H     H_    0.190289 0.571782 0.887540 0.180085
H8    H     H_    0.076766 0.417571 0.794196 0.112936
C12   C     C_3   0.007255 0.629393 0.955943 -0.804497
H9    H     H_    0.913456 0.573164 0.922255 0.234210
H10   H     H_    0.039645 0.623483 0.098301 0.219245
H11   H     H_    0.002362 0.755347 0.950389 0.263093
O10   O     O_3   0.379522 0.941688 0.293403 -0.566962
C13   C     C_3   0.375504 0.989599 0.123745 0.065639
H12   H     H_    0.469838 0.005246 0.079152 0.164615
H13   H     H_    0.322619 0.097949 0.132942 0.159775
C14   C     C_3   0.306869 0.864265 0.976496 -0.722629
H14   H     H_    0.211457 0.849764 0.014761 0.244332
H15   H     H_    0.304051 0.899314 0.841484 0.208116
H16   H     H_    0.353990 0.752089 0.965127 0.274800

loop_
_geom_bond_atom_site_label_1
_geom_bond_atom_site_label_2
_ccdc_geom_bond_type
C2    C4    S    
Cu1   Cu2   S    
C1    O1    A    
C6    C7    D    
C3    C9    S    
C9    O9    S    
C5    O8    A    
C2    H4    S    
C14   H14   S    
Cu2   O4    S    
C4    O6    A    
N1    N2    D    
Cu1   O7    S    
C4    O5    A    
C1    O2    A    
C6    H1    S    
C11   H8    S    
C14   H15   S    
C3    O4    A    
O10   C13   S    
Cu2   O8    S    
C10   O10   S    
Cu2   N1    S    
Cu1   O3    S    
C13   H13   S    
C12   H9    S    
C8    H3    S    
H6    N2    S    
C11   H7    S    
C14   H16   S    
Cu1   N2    S    
Cu1   O5    S    
O9    C11   S    
C2    C10   D    
Cu2   O2    S    
C12   H11   S    
C13   H12   S    
C13   C14   S    
C5    C7    S    
H5    N1    S    
C6    C8    S    
C11   C12   S    
C12   H10   S    
C5    O7    A    
C3    O3    A    
Cu1   O1    S    
C7    H2    S    
C1    C10   S    
Cu2   O6    S    
C8    C9    D    
