data_mof_unit_53255.cif
_audit_creation_date              2012-12-10T18:27:20-0500
_audit_creation_method            fapswitch 2.2
_symmetry_space_group_name_H-M    P1
_symmetry_Int_Tables_number       1
_space_group_crystal_system       triclinic
_cell_length_a                    14.962466
_cell_length_b                    13.961921
_cell_length_c                    27.738104
_cell_angle_alpha                 89.81718
_cell_angle_beta                  89.63362
_cell_angle_gamma                 90.275958
_cell_volume                      5794.40643681

loop_
_atom_site_label
_atom_site_type_symbol
_atom_type_description
_atom_site_fract_x
_atom_site_fract_y
_atom_site_fract_z
_atom_type_partial_charge
C1    C     C_R   0.326077 0.499624 0.499616 0.905080
C2    C     C_R   0.673709 0.500397 0.500559 0.903597
C3    C     C_R   0.502609 0.485925 0.101503 -0.191362
C4    C     C_R   0.512421 0.475042 0.897456 -0.185674
C5    C     C_R   0.419509 0.488533 0.126217 -0.124110
C6    C     C_R   0.594692 0.486478 0.872553 -0.136198
C7    C     C_R   0.339393 0.489587 0.099865 0.532656
C8    C     C_R   0.674449 0.495037 0.898814 0.500190
C9    C     C_R   0.583284 0.488140 0.127938 -0.133916
C10   C     C_R   0.432292 0.464876 0.871130 -0.126348
C11   C     C_R   0.500866 0.500312 0.353043 -0.245648
C12   C     C_R   0.504748 0.498142 0.646276 -0.253692
C13   C     C_R   0.427201 0.465626 0.973299 0.024712
C14   C     C_R   0.588487 0.481787 0.025871 0.022635
C15   C     C_R   0.590816 0.483833 0.974766 0.024035
C16   C     C_R   0.424250 0.474175 0.024281 0.027206
C17   C     C_R   0.510177 0.474528 0.948645 0.076342
C18   C     C_R   0.505090 0.481103 0.050405 0.074903
C19   C     C_R   0.349408 0.449480 0.945966 -0.325757
C20   C     C_R   0.667398 0.479789 0.053323 -0.319695
C21   C     C_R   0.350694 0.452265 0.895901 0.500618
C22   C     C_R   0.665798 0.486173 0.103329 0.518400
C23   C     C_R   0.500838 0.500237 0.405859 0.949599
C24   C     C_R   0.500291 0.499761 0.593930 0.945741
C25   C     C_R   0.342602 0.478427 0.049948 -0.330271
C26   C     C_R   0.671489 0.496823 0.948863 -0.323389
C27   C     C_R   0.813625 0.419989 0.482116 -0.327482
C28   C     C_R   0.185742 0.586841 0.494809 -0.326519
C29   C     C_R   0.769816 0.502048 0.497696 -0.163483
C30   C     C_R   0.229863 0.499196 0.494965 -0.173326
C31   C     C_R   0.817229 0.586425 0.508284 0.422156
C32   C     C_R   0.182361 0.412595 0.489282 0.392036
C33   C     C_R   0.908130 0.592811 0.495486 -0.078788
C34   C     C_R   0.091388 0.415557 0.477264 -0.052540
C35   C     C_R   0.953198 0.506126 0.484589 0.003453
C36   C     C_R   0.046220 0.503945 0.483460 -0.002290
C37   C     C_R   0.905439 0.420224 0.477698 0.090567
C38   C     C_R   0.093946 0.589324 0.491650 0.089447
C39   C     C_R   0.956660 0.680684 0.495595 0.157447
C40   C     C_R   0.042597 0.333079 0.462554 0.167142
C41   C     C_R   0.049823 0.676604 0.496299 -0.205058
C42   C     C_R   0.949466 0.335756 0.465550 -0.213139
C43   C     C_R   0.447986 0.797858 0.467750 -0.049030
C44   C     C_R   0.551573 0.202114 0.532432 -0.077250
C45   C     C_R   0.551998 0.798055 0.532211 -0.021455
C46   C     C_R   0.447956 0.202025 0.467755 -0.059625
C47   C     C_R   0.419325 0.490907 0.176862 0.572184
C48   C     C_R   0.594380 0.490340 0.821941 0.587976
C49   C     C_R   0.552995 0.898783 0.533120 0.008981
C50   C     C_R   0.446409 0.101268 0.467076 0.008854
C51   C     C_R   0.446559 0.898637 0.467007 0.011574
C52   C     C_R   0.552658 0.101362 0.533291 0.019116
C53   C     C_R   0.499660 0.949352 0.500116 0.080191
C54   C     C_R   0.499531 0.050680 0.500179 0.087655
C55   C     C_R   0.605713 0.949838 0.566079 -0.200830
C56   C     C_R   0.393483 0.050185 0.434215 -0.211049
C57   C     C_R   0.393588 0.949621 0.434169 -0.202759
C58   C     C_R   0.605466 0.050383 0.566199 -0.214354
C59   C     C_R   0.578744 0.491815 0.178447 0.632153
C60   C     C_R   0.436266 0.468244 0.820594 0.586054
C61   C     C_R   0.508938 0.583253 0.276030 0.316289
C62   C     C_R   0.479644 0.571336 0.724235 0.349077
C63   C     C_R   0.517185 0.585075 0.326437 0.350451
C64   C     C_R   0.466718 0.571599 0.674070 0.336321
C65   C     C_R   0.484917 0.413725 0.328934 -0.431419
C66   C     C_R   0.547185 0.420796 0.668588 -0.431635
C67   C     C_R   0.481794 0.410785 0.278557 0.490353
C68   C     C_R   0.548939 0.413503 0.718710 0.499456
C69   C     C_R   0.495881 0.495658 0.252614 0.095299
C70   C     C_R   0.516588 0.489982 0.746267 0.056986
H1    H     H_    0.476229 0.348162 0.349343 0.191698
H2    H     H_    0.578807 0.365938 0.646953 0.191025
H3    H     H_    0.088406 0.741917 0.500464 0.149031
H4    H     H_    0.910837 0.271590 0.458311 0.151466
H5    H     H_    0.407684 0.757241 0.442705 0.150033
H6    H     H_    0.591819 0.242699 0.557517 0.133678
H7    H     H_    0.592521 0.757698 0.557146 0.149454
H8    H     H_    0.407562 0.242540 0.442749 0.149109
H9    H     H_    0.647078 0.912034 0.591727 0.138484
H10   H     H_    0.352178 0.087967 0.408532 0.139257
H11   H     H_    0.352347 0.911762 0.408455 0.141892
H12   H     H_    0.646642 0.088239 0.591943 0.138023
H13   H     H_    0.285459 0.433365 0.962064 0.159874
H14   H     H_    0.732464 0.471056 0.037268 0.152201
H15   H     H_    0.278967 0.474917 0.032335 0.145330
H16   H     H_    0.734353 0.511079 0.966152 0.156841
H17   H     H_    0.776390 0.355003 0.474389 0.185324
H18   H     H_    0.222408 0.653342 0.499546 0.181626
N1    N     N_R   0.497926 0.492838 0.201276 -0.311219
N2    N     N_R   0.515971 0.482542 0.797586 -0.312322
N3    N     N_R   0.500000 0.750030 0.500000 -0.113719
N4    N     N_R   0.500000 0.249970 0.500000 -0.110757
O1    O     O_R   0.367850 0.580280 0.500010 -0.645478
O2    O     O_R   0.632150 0.419720 0.499990 -0.636911
O3    O     O_R   0.632150 0.580280 0.499990 -0.590445
O4    O     O_R   0.367850 0.419720 0.500010 -0.575296
O5    O     O_R   0.500010 0.580260 0.428760 -0.584940
O6    O     O_R   0.499990 0.419740 0.571240 -0.641546
O7    O     O_R   0.499990 0.580260 0.571240 -0.590826
O8    O     O_R   0.500010 0.419740 0.428760 -0.632818
O9    O     O_2   0.341753 0.490771 0.201945 -0.549077
O10   O     O_2   0.671208 0.502800 0.796916 -0.534892
O11   O     O_2   0.361431 0.457554 0.794200 -0.552831
O12   O     O_2   0.654028 0.493819 0.204982 -0.516868
Zn1   Zn    Zn3+2 0.500000 0.607200 0.500000 0.964847
Zn2   Zn    Zn3+2 0.500000 0.392800 0.500000 0.939980
O13   O     O_3   0.774611 0.659537 0.533037 -0.656180
C71   C     C_3   0.798954 0.657898 0.582348 0.047531
H19   H     H_    0.800474 0.733259 0.595068 0.157118
H20   H     H_    0.867025 0.628372 0.588971 0.132093
C72   C     C_3   0.729166 0.602492 0.612160 -0.352923
H21   H     H_    0.661865 0.632239 0.605128 0.238246
H22   H     H_    0.729290 0.525892 0.601456 0.206763
C73   C     C_3   0.747841 0.609315 0.666066 -0.917007
H23   H     H_    0.814618 0.579206 0.674307 0.269915
H24   H     H_    0.696417 0.568005 0.686457 0.280190
H25   H     H_    0.745313 0.685132 0.678009 0.256198
O14   O     O_3   0.223595 0.326262 0.499234 -0.655358
C74   C     C_3   0.210641 0.304069 0.548548 0.084003
H26   H     H_    0.139604 0.283596 0.555271 0.135439
H27   H     H_    0.228543 0.365900 0.572054 0.137704
C75   C     C_3   0.270675 0.219992 0.561944 -0.300841
H28   H     H_    0.253595 0.157028 0.539299 0.218297
H29   H     H_    0.341494 0.239919 0.554863 0.245731
C76   C     C_3   0.260456 0.193049 0.615053 -0.977512
H30   H     H_    0.279604 0.254427 0.638274 0.270779
H31   H     H_    0.304821 0.131762 0.623442 0.266185
H32   H     H_    0.190299 0.171823 0.623151 0.266150
C77   C     C_3   0.913007 0.778935 0.492679 -0.372587
C78   C     C_3   0.951330 0.840300 0.451536 -0.906724
H33   H     H_    0.020531 0.864069 0.459473 0.255989
H34   H     H_    0.950940 0.799544 0.417207 0.274333
H35   H     H_    0.909804 0.905384 0.446921 0.253898
H36   H     H_    0.840694 0.773797 0.485160 0.263459
H37   H     H_    0.922087 0.817009 0.527425 0.197574
C79   C     C_3   0.085847 0.243565 0.441653 -0.369478
C80   C     C_3   0.047064 0.216307 0.392593 -0.894820
H38   H     H_    0.977198 0.190186 0.396205 0.258870
H39   H     H_    0.049225 0.278807 0.367707 0.274565
H40   H     H_    0.087289 0.157694 0.376532 0.249871
H41   H     H_    0.158121 0.253655 0.434772 0.256601
H42   H     H_    0.076835 0.182885 0.467266 0.201708
O15   O     O_3   0.472468 0.325639 0.253215 -0.622543
C81   C     C_3   0.399035 0.271208 0.270588 0.097941
H43   H     H_    0.340728 0.317474 0.279788 0.155370
H44   H     H_    0.419289 0.229418 0.302890 0.133721
C82   C     C_3   0.370233 0.200896 0.231482 -0.295134
H45   H     H_    0.349231 0.241514 0.198956 0.243690
H46   H     H_    0.427681 0.154711 0.221407 0.228787
C83   C     C_3   0.292904 0.137513 0.248686 -0.972342
H47   H     H_    0.313182 0.094678 0.280584 0.259664
H48   H     H_    0.273421 0.087659 0.219426 0.273034
H49   H     H_    0.234172 0.182046 0.258354 0.274115
O16   O     O_3   0.588654 0.336375 0.741722 -0.617223
C84   C     C_3   0.543829 0.249481 0.730886 0.055143
H50   H     H_    0.587693 0.189999 0.742703 0.171409
H51   H     H_    0.533436 0.238969 0.691585 0.130362
C85   C     C_3   0.454708 0.241171 0.758319 -0.337017
H52   H     H_    0.466271 0.252195 0.797463 0.234933
H53   H     H_    0.408025 0.297079 0.745340 0.243689
C86   C     C_3   0.411390 0.143265 0.750725 -0.945901
H54   H     H_    0.398104 0.131548 0.711818 0.263635
H55   H     H_    0.346952 0.139686 0.770742 0.276850
H56   H     H_    0.455647 0.085610 0.764274 0.258755
O17   O     O_3   0.257246 0.492475 0.123416 -0.594245
C87   C     C_3   0.210267 0.577279 0.111649 0.101680
H57   H     H_    0.139871 0.566659 0.123496 0.175338
H58   H     H_    0.207825 0.591322 0.072185 0.106345
C88   C     C_3   0.248011 0.664858 0.138137 -0.345829
H59   H     H_    0.246068 0.651772 0.177663 0.252569
H60   H     H_    0.318582 0.677525 0.127040 0.205845
C89   C     C_3   0.193850 0.754370 0.126676 -0.966503
H61   H     H_    0.194219 0.768367 0.087229 0.267497
H62   H     H_    0.223553 0.817296 0.145016 0.271388
H63   H     H_    0.123754 0.745343 0.139381 0.269489
O18   O     O_3   0.756117 0.507484 0.875966 -0.604567
C90   C     C_3   0.799399 0.417880 0.873718 0.125081
H64   H     H_    0.755289 0.362576 0.857058 0.155227
H65   H     H_    0.818792 0.393846 0.910524 0.115034
C91   C     C_3   0.883692 0.428026 0.842761 -0.295335
H66   H     H_    0.865438 0.454753 0.806350 0.257543
H67   H     H_    0.929361 0.480968 0.859636 0.222277
C92   C     C_3   0.931898 0.332498 0.837592 -0.982613
H68   H     H_    0.954044 0.306325 0.873418 0.267226
H69   H     H_    0.991492 0.341789 0.813960 0.268579
H70   H     H_    0.887077 0.278305 0.821050 0.274535
O19   O     O_3   0.419303 0.644565 0.652071 -0.636823
C93   C     C_3   0.326625 0.633593 0.661698 0.127726
H71   H     H_    0.297326 0.706382 0.664188 0.158552
H72   H     H_    0.311098 0.597153 0.696666 0.169645
C94   C     C_3   0.281378 0.580054 0.620353 -0.368558
H73   H     H_    0.293705 0.619743 0.586207 0.246587
H74   H     H_    0.310301 0.507233 0.617002 0.201966
C95   C     C_3   0.180770 0.570762 0.628604 -0.980339
H75   H     H_    0.166773 0.531269 0.662672 0.270706
H76   H     H_    0.150322 0.530540 0.598350 0.266977
H77   H     H_    0.149647 0.642740 0.630399 0.267851
O20   O     O_3   0.536569 0.670357 0.349741 -0.635466
C96   C     C_3   0.627473 0.695903 0.342406 0.120432
H78   H     H_    0.631466 0.775349 0.341144 0.161309
H79   H     H_    0.656142 0.669977 0.307601 0.169124
C97   C     C_3   0.684490 0.660328 0.384424 -0.336925
H80   H     H_    0.658407 0.690523 0.418735 0.260105
H81   H     H_    0.680785 0.580928 0.386560 0.211297
C98   C     C_3   0.782047 0.690250 0.378112 -0.960807
H82   H     H_    0.809515 0.661603 0.343801 0.272195
H83   H     H_    0.821958 0.661195 0.408298 0.278924
H84   H     H_    0.788157 0.769567 0.378054 0.266130
O21   O     O_3   0.447107 0.644683 0.752895 -0.633506
C99   C     C_3   0.497998 0.729396 0.745622 0.077308
H85   H     H_    0.456302 0.790481 0.757752 0.169164
H86   H     H_    0.514727 0.743471 0.707055 0.167912
C100  C     C_3   0.583631 0.727735 0.775625 -0.357799
H87   H     H_    0.566718 0.711543 0.813884 0.239648
H88   H     H_    0.628617 0.671034 0.761770 0.248716
C101  C     C_3   0.633019 0.823454 0.772804 -0.953928
H89   H     H_    0.651698 0.840105 0.734850 0.256941
H90   H     H_    0.694933 0.819665 0.794569 0.279372
H91   H     H_    0.590376 0.881763 0.787242 0.262286
O22   O     O_3   0.519966 0.665731 0.248804 -0.639477
C102  C     C_3   0.441135 0.720656 0.252053 0.088067
H92   H     H_    0.432802 0.749735 0.289117 0.183450
H93   H     H_    0.381081 0.676971 0.242703 0.146111
C103  C     C_3   0.447706 0.804383 0.216616 -0.325537
H94   H     H_    0.511210 0.844181 0.222532 0.236744
H95   H     H_    0.447989 0.776274 0.179156 0.218108
C104  C     C_3   0.369539 0.873148 0.222937 -0.980444
H96   H     H_    0.305030 0.834252 0.219514 0.268086
H97   H     H_    0.373147 0.929916 0.194857 0.272379
H98   H     H_    0.372333 0.907564 0.258955 0.269378
O23   O     O_3   0.271448 0.437842 0.871494 -0.603136
C105  C     C_3   0.223934 0.525048 0.870358 0.125924
H99   H     H_    0.266564 0.584377 0.855758 0.155523
H100  H     H_    0.200197 0.544191 0.907223 0.111549
C106  C     C_3   0.142961 0.513272 0.837639 -0.296668
H101  H     H_    0.165654 0.491969 0.800983 0.252486
H102  H     H_    0.099072 0.455703 0.852341 0.223605
C107  C     C_3   0.089775 0.605950 0.833942 -0.992315
H103  H     H_    0.064183 0.627169 0.870021 0.267532
H104  H     H_    0.032073 0.595104 0.809549 0.270570
H105  H     H_    0.132422 0.664398 0.819013 0.273150
O24   O     O_3   0.745995 0.484140 0.128020 -0.595613
C108  C     C_3   0.792348 0.572356 0.122240 0.121327
H106  H     H_    0.798572 0.605873 0.158356 0.186025
H107  H     H_    0.758123 0.625668 0.098591 0.106136
C109  C     C_3   0.886038 0.553406 0.102141 -0.345861
H108  H     H_    0.922123 0.504175 0.126765 0.242825
H109  H     H_    0.880733 0.518516 0.066327 0.213488
C110  C     C_3   0.939628 0.646151 0.096659 -0.979571
H110  H     H_    0.904641 0.696660 0.072273 0.270912
H111  H     H_    0.006257 0.630254 0.080877 0.259850
H112  H     H_    0.949085 0.680421 0.132362 0.267329

loop_
_geom_bond_atom_site_label_1
_geom_bond_atom_site_label_2
_ccdc_geom_bond_type
C66   C68   A    
O17   C87   S    
C47   O9    S    
C27   C29   A    
C24   O7    A    
C8    C26   A    
C88   H59   S    
C14   C18   A    
C95   H76   S    
C35   C36   A    
C61   O22   S    
C67   O15   S    
C103  H94   S    
C73   H23   S    
C39   C41   A    
C53   C54   A    
C91   H66   S    
C67   C69   A    
C40   C79   S    
C107  H105  S    
C110  H110  S    
C33   C39   A    
C97   H81   S    
C2    C29   S    
C24   O6    A    
C59   O12   S    
C2    O3    A    
C82   H46   S    
C101  H90   S    
C102  C103  S    
C68   O16   S    
C92   H69   S    
C63   O20   S    
C12   C64   A    
C69   N1    S    
C9    C22   A    
C98   H84   S    
C95   H77   S    
C46   N4    A    
C108  H106  S    
C21   O23   S    
C20   H14   S    
C55   H9    S    
C56   C57   A    
C62   C70   A    
C3    C18   A    
C93   H72   S    
C59   N1    A    
C11   C23   S    
C37   C42   A    
C44   H6    S    
N3    Zn1   S    
O14   C74   S    
C1    C30   S    
C62   C64   A    
O3    Zn1   S    
C85   C86   S    
O1    Zn1   S    
C77   H37   S    
C66   H2    S    
C8    O18   S    
C82   H45   S    
C91   H67   S    
C90   H65   S    
C97   C98   S    
C28   H18   S    
C76   H32   S    
C79   H42   S    
C106  H101  S    
C101  H91   S    
O20   C96   S    
C51   C57   A    
C45   C49   A    
C60   O11   S    
C44   N4    A    
C91   C92   S    
O5    Zn1   S    
C44   C52   A    
C40   C42   A    
C95   H75   S    
C7    O17   S    
C96   H78   S    
C48   N2    A    
C84   C85   S    
C85   H53   S    
C88   H60   S    
C70   N2    S    
C81   C82   S    
C19   H13   S    
C25   H15   S    
O22   C102  S    
C86   H55   S    
C89   H62   S    
C46   C50   A    
O24   C108  S    
C84   H50   S    
C109  H109  S    
C100  H88   S    
C10   C21   A    
C43   H5    S    
O7    Zn1   S    
C80   H40   S    
C107  H104  S    
C110  H111  S    
C42   H4    S    
C97   H80   S    
C13   C19   A    
O4    Zn2   S    
C94   H73   S    
C73   H25   S    
C14   C20   A    
C2    O2    A    
C82   C83   S    
C101  H89   S    
C38   C41   A    
C4    C6    A    
C107  H103  S    
C92   H70   S    
C5    C7    A    
C81   H43   S    
C15   C26   A    
C6    C8    A    
C39   C77   S    
C65   C67   A    
C100  H87   S    
C12   C66   A    
C83   H49   S    
C105  C106  S    
C50   C56   A    
C103  H95   S    
C93   H71   S    
C9    C59   A    
C32   C34   A    
C85   H52   S    
C10   C60   A    
C92   H68   S    
C94   H74   S    
C71   H19   S    
C79   H41   S    
C3    C9    A    
C76   H31   S    
C96   C97   S    
C102  H92   S    
C5    C47   A    
C104  H96   S    
C28   C38   A    
C26   H16   S    
C90   C91   S    
C48   O10   S    
C31   C33   A    
C105  H100  S    
O21   C99   S    
C52   C54   A    
C72   H22   S    
C16   C18   A    
C50   C54   A    
C27   H17   S    
C84   H51   S    
C80   H39   S    
O16   C84   S    
C6    C48   A    
C74   H27   S    
C52   C58   A    
C4    C17   A    
C81   H44   S    
O18   C90   S    
C23   O5    A    
C20   C22   A    
C47   N1    A    
C99   H86   S    
C93   C94   S    
C106  H102  S    
C87   H57   S    
C106  C107  S    
C83   H48   S    
C13   C16   A    
C78   H35   S    
O13   C71   S    
C4    C10   A    
C103  C104  S    
C22   O24   S    
C86   H56   S    
C89   H61   S    
C46   H8    S    
C77   C78   S    
C98   H83   S    
C74   C75   S    
C61   C69   A    
C16   C25   A    
C15   C17   A    
C98   H82   S    
C109  H108  S    
O2    Zn2   S    
C108  C109  S    
C72   H21   S    
C35   C37   A    
C29   C31   A    
C31   O13   S    
C61   C63   A    
N4    Zn2   S    
C32   O14   S    
C79   C80   S    
C3    C5    A    
C49   C55   A    
C7    C25   A    
C73   H24   S    
C74   H26   S    
C89   H63   S    
C100  C101  S    
C60   N2    A    
C99   C100  S    
C80   H38   S    
C12   C24   S    
O8    Zn2   S    
C56   H10   S    
C71   C72   S    
C13   C17   A    
C78   H34   S    
C75   C76   S    
C58   H12   S    
C78   H33   S    
C94   C95   S    
C28   C30   A    
C102  H93   S    
C104  H97   S    
C65   H1    S    
C86   H54   S    
C30   C32   A    
C43   C51   A    
C76   H30   S    
O6    Zn2   S    
C27   C37   A    
C1    O4    A    
C49   C53   A    
C36   C38   A    
C105  H99   S    
C33   C35   A    
C62   O21   S    
C71   H20   S    
C23   O8    A    
C72   C73   S    
C34   C36   A    
C99   H85   S    
C45   N3    A    
C57   H11   S    
C43   N3    A    
C110  H112  S    
C64   O19   S    
C41   H3    S    
C77   H36   S    
C11   C65   A    
O19   C93   S    
C104  H98   S    
C87   C88   S    
C1    O1    A    
C90   H64   S    
C55   C58   A    
O23   C105  S    
C96   H79   S    
C68   C70   A    
C14   C15   A    
C34   C40   A    
C45   H7    S    
C88   C89   S    
C108  H107  S    
C51   C53   A    
C75   H28   S    
C11   C63   A    
C75   H29   S    
C87   H58   S    
O15   C81   S    
C83   H47   S    
C19   C21   A    
C109  C110  S    
