data_mof_unit_46240.cif
_audit_creation_date              2012-10-26T21:05:44-0400
_audit_creation_method            fapswitch 2.2
_symmetry_space_group_name_H-M    P1
_symmetry_Int_Tables_number       1
_space_group_crystal_system       triclinic
_cell_length_a                    13.037241
_cell_length_b                    9.100419
_cell_length_c                    7.781967
_cell_angle_alpha                 89.851549
_cell_angle_beta                  94.812693
_cell_angle_gamma                 89.833716
_cell_volume                      920.023630579

loop_
_atom_site_label
_atom_site_type_symbol
_atom_type_description
_atom_site_fract_x
_atom_site_fract_y
_atom_site_fract_z
_atom_type_partial_charge
C1    C     C_R   0.500957 0.220013 0.500290 0.582705
C2    C     C_R   0.862355 0.391448 0.668895 0.220742
C3    C     C_R   0.130957 0.415401 0.539644 0.213171
C4    C     C_R   0.872119 0.561784 0.425825 0.219001
C5    C     C_R   0.027214 0.448948 0.561712 -0.073823
C6    C     C_R   0.979512 0.563670 0.461138 -0.073079
C7    C     C_1   0.501254 0.065348 0.500422 0.025346
C8    C     C_1   0.500971 0.934638 0.499978 0.036221
C9    C     C_R   0.500411 0.779991 0.499926 0.577483
C10   C     C_R   0.300954 0.503258 0.470395 0.627525
C11   C     C_R   0.700060 0.496508 0.528936 0.588962
C12   C     C_R   0.812760 0.483438 0.540728 -0.030090
C13   C     C_R   0.190261 0.520175 0.459451 -0.012442
C14   C     C_R   0.041193 0.676099 0.399701 0.318078
C15   C     C_R   0.969361 0.374835 0.680214 0.312384
C16   C     C_R   0.146843 0.653395 0.397511 0.209178
Cl1   Cl    Cl    0.790999 0.278517 0.801170 -0.408112
Cl2   Cl    Cl    0.224778 0.793154 0.318911 -0.469951
Cl3   Cl    Cl    0.991400 0.856033 0.363494 -0.284018
Cl4   Cl    Cl    0.029659 0.288743 0.866926 -0.298044
Cu1   Cu    Cu3+1 0.500010 0.500000 0.669080 1.167305
Cu2   Cu    Cu3+1 0.499990 0.500000 0.330920 1.207532
H1    H     H_    0.717462 0.527556 0.012653 0.378069
H2    H     H_    0.279935 0.091900 0.434876 0.384827
N1    N     N_1   0.499980 0.500000 0.076820 -0.047804
N2    N     N_1   0.500020 0.500000 0.923180 -0.060942
O1    O     O_R   0.500000 0.288400 0.642760 -0.472555
O2    O     O_2   0.900054 0.665419 0.101233 -0.187110
O3    O     O_3   0.753150 0.482432 0.117146 -0.445356
O4    O     O_2   0.246446 0.224676 0.738112 -0.215488
O5    O     O_2   0.095343 0.123187 0.569508 -0.138914
O6    O     O_3   0.253596 0.192179 0.408099 -0.490785
O7    O     O_R   0.500000 0.711600 0.357240 -0.477993
O8    O     O_R   0.500000 0.288400 0.357240 -0.487083
O9    O     O_R   0.500000 0.711600 0.642760 -0.506881
O10   O     O_R   0.349000 0.500000 0.619590 -0.485794
O11   O     O_R   0.651000 0.500000 0.380410 -0.447308
O12   O     O_R   0.348990 0.500000 0.334020 -0.455386
O13   O     O_R   0.651010 0.500000 0.665980 -0.499578
O14   O     O_2   0.746969 0.748821 0.236937 -0.235302
S1    S     S_3+6 0.818489 0.621289 0.216706 0.113233
S2    S     S_3+6 0.180921 0.233446 0.569970 0.122077

loop_
_geom_bond_atom_site_label_1
_geom_bond_atom_site_label_2
_ccdc_geom_bond_type
C11   O13   A    
C11   C12   S    
H2    O6    S    
C3    S2    S    
C11   O11   A    
Cu1   O9    S    
O5    S2    D    
C4    C12   A    
Cu1   O13   S    
C10   O12   A    
C2    C12   A    
Cu1   O1    S    
C7    C8    T    
Cu1   O10   S    
Cu1   Cu2   S    
C2    Cl1   S    
C9    O7    A    
C2    C15   A    
C5    C6    A    
H1    O3    S    
C4    C6    A    
O14   S1    D    
Cu1   N2    S    
C1    O8    A    
C15   Cl4   S    
Cu2   O8    S    
C14   C16   A    
C5    C15   A    
C6    C14   A    
C4    S1    S    
C9    O9    A    
Cu2   O12   S    
O2    S1    D    
C16   Cl2   S    
C13   C16   A    
C1    O1    A    
Cu2   O7    S    
O6    S2    S    
O4    S2    D    
C10   O10   A    
O3    S1    S    
N1    N2    T    
C1    C7    S    
Cu2   O11   S    
C14   Cl3   S    
C10   C13   S    
C8    C9    S    
C3    C5    A    
Cu2   N1    S    
C3    C13   A    
