data_mof_unit_12428.cif
_audit_creation_date              2012-12-10T19:45:04-0500
_audit_creation_method            fapswitch 2.2
_symmetry_space_group_name_H-M    P1
_symmetry_Int_Tables_number       1
_space_group_crystal_system       triclinic
_cell_length_a                    15.063624
_cell_length_b                    10.800784
_cell_length_c                    13.772339
_cell_angle_alpha                 90.316239
_cell_angle_beta                  88.582278
_cell_angle_gamma                 87.049058
_cell_volume                      2237.03700658

loop_
_atom_site_label
_atom_site_type_symbol
_atom_type_description
_atom_site_fract_x
_atom_site_fract_y
_atom_site_fract_z
_atom_type_partial_charge
C1    C     C_R   0.495491 0.262786 0.500016 0.861843
C2    C     C_R   0.504201 0.737293 0.500050 0.856895
C3    C     C_R   0.055127 0.324534 0.606858 -0.190663
C4    C     C_R   0.944413 0.680875 0.397704 -0.186174
C5    C     C_R   0.279324 0.269874 0.302694 -0.086253
C6    C     C_R   0.718129 0.730961 0.699978 -0.086006
C7    C     C_R   0.327512 0.207151 0.374454 -0.084562
C8    C     C_R   0.671251 0.794680 0.627721 -0.103562
C9    C     C_R   0.400453 0.126187 0.348704 0.145014
C10   C     C_R   0.597141 0.873944 0.652548 0.141657
C11   C     C_R   0.422198 0.105476 0.249922 -0.076991
C12   C     C_R   0.572688 0.891816 0.750943 -0.071570
C13   C     C_R   0.374150 0.168885 0.178371 -0.133408
C14   C     C_R   0.619449 0.827430 0.822978 -0.141056
C15   C     C_R   0.303063 0.251475 0.204754 -0.106404
C16   C     C_R   0.691829 0.746616 0.797483 -0.107259
C17   C     C_R   0.462461 0.935072 0.424724 -0.147021
C18   C     C_R   0.536316 0.065110 0.575773 -0.202236
C19   C     C_R   0.505706 0.871373 0.499880 -0.068681
C20   C     C_R   0.493233 0.128805 0.500497 -0.086723
C21   C     C_R   0.544499 0.936626 0.575610 -0.012588
C22   C     C_R   0.454018 0.063589 0.425019 -0.007803
C23   C     C_R   0.328691 0.505525 0.501197 0.893327
C24   C     C_R   0.671331 0.494183 0.498851 0.914562
C25   C     C_R   0.558377 0.422745 0.791461 -0.005271
C26   C     C_R   0.442195 0.578285 0.208587 -0.003220
C27   C     C_R   0.440451 0.578066 0.796026 0.119644
C28   C     C_R   0.559050 0.421411 0.203864 0.111067
C29   C     C_R   0.440240 0.581075 0.899368 -0.067613
C30   C     C_R   0.559900 0.419515 0.100526 -0.066640
C31   C     C_R   0.500173 0.500991 0.948248 0.087283
C32   C     C_R   0.500336 0.500169 0.051690 0.087908
C33   C     C_R   0.559549 0.421058 0.893878 -0.008700
C34   C     C_R   0.441044 0.580177 0.106102 -0.008819
C35   C     C_R   0.381418 0.661179 0.955290 -0.178683
C36   C     C_R   0.618911 0.339682 0.044577 -0.176870
C37   C     C_R   0.381990 0.660592 0.057004 -0.196158
C38   C     C_R   0.618651 0.340730 0.942914 -0.197656
C39   C     C_R   0.810429 0.583947 0.449126 -0.303652
C40   C     C_R   0.189266 0.419151 0.553286 -0.291096
C41   C     C_R   0.768351 0.488050 0.495987 -0.151569
C42   C     C_R   0.231698 0.513185 0.504490 -0.149302
C43   C     C_R   0.818862 0.390016 0.539480 0.376443
C44   C     C_R   0.181502 0.611451 0.460748 0.323948
C45   C     C_R   0.911327 0.401186 0.548961 -0.026452
C46   C     C_R   0.088577 0.602504 0.453709 -0.031232
C47   C     C_R   0.953319 0.498519 0.500478 0.028767
C48   C     C_R   0.046445 0.505721 0.502776 0.036949
C49   C     C_R   0.902526 0.587978 0.448729 0.123546
C50   C     C_R   0.097145 0.416299 0.554671 0.122405
C51   C     C_R   0.963234 0.318311 0.605481 -0.111068
C52   C     C_R   0.036354 0.686969 0.398820 -0.129149
Cu1   Cu    Cu3+1 0.500010 0.499980 0.597420 1.009840
Cu2   Cu    Cu3+1 0.499990 0.500020 0.402580 1.010217
H1    H     H_    0.770948 0.655897 0.412889 0.154038
H2    H     H_    0.228542 0.347298 0.589889 0.155880
H3    H     H_    0.431446 0.884330 0.367628 0.191804
H4    H     H_    0.567654 0.115810 0.632668 0.197197
H5    H     H_    0.603523 0.361455 0.749522 0.190914
H6    H     H_    0.397264 0.639924 0.250628 0.190377
H7    H     H_    0.334426 0.725199 0.921104 0.161917
H8    H     H_    0.665910 0.275586 0.078662 0.162020
H9    H     H_    0.335964 0.723189 0.097300 0.170055
H10   H     H_    0.664795 0.278307 0.902607 0.167285
H11   H     H_    0.933610 0.249537 0.650821 0.210821
H12   H     H_    0.065702 0.756937 0.354467 0.227235
H13   H     H_    0.093402 0.257644 0.649336 0.152564
H14   H     H_    0.906022 0.748448 0.355972 0.156412
H15   H     H_    0.266164 0.300817 0.149295 0.139626
H16   H     H_    0.727678 0.696426 0.853297 0.138025
H17   H     H_    0.223879 0.333224 0.323072 0.136818
H18   H     H_    0.774474 0.668844 0.680293 0.132542
H19   H     H_    0.308652 0.222423 0.450086 0.091786
H20   H     H_    0.691897 0.781296 0.552395 0.089604
H21   H     H_    0.477532 0.042430 0.228454 0.140137
H22   H     H_    0.516214 0.953259 0.771628 0.143926
H23   H     H_    0.392270 0.154358 0.102469 0.136871
H24   H     H_    0.599267 0.839685 0.898539 0.137261
N1    N     N_R   0.499960 0.499900 0.743810 -0.233712
N2    N     N_R   0.500040 0.500100 0.256190 -0.234932
O1    O     O_R   0.500000 0.319630 0.582270 -0.588762
O2    O     O_R   0.500000 0.680370 0.417730 -0.595767
O3    O     O_R   0.499990 0.319660 0.417730 -0.555020
O4    O     O_R   0.500010 0.680340 0.582270 -0.553340
O5    O     O_R   0.370260 0.499960 0.582280 -0.567132
O6    O     O_R   0.629740 0.500040 0.417720 -0.560697
O7    O     O_R   0.370250 0.499990 0.417740 -0.579846
O8    O     O_R   0.629750 0.500010 0.582260 -0.584413
C53   C     C_2   0.373164 0.656839 0.746016 0.892982
O9    O     O_2   0.298595 0.619821 0.735831 -0.591606
O10   O     O_R   0.391294 0.778308 0.721313 -0.771943
H25   H     H_    0.338943 0.824426 0.690572 0.345106
C54   C     C_2   0.623687 0.338307 0.253674 0.909488
O11   O     O_2   0.698403 0.372323 0.268128 -0.577144
O12   O     O_R   0.603383 0.215740 0.271570 -0.781084
H26   H     H_    0.655362 0.164475 0.298211 0.331976
S1    S     S_3+6 0.769749 0.246519 0.564081 -0.029053
O13   O     O_2   0.836719 0.139477 0.549010 -0.312329
O14   O     O_2   0.734795 0.245819 0.667065 -0.340203
O15   O     O_3   0.686423 0.227506 0.487770 -0.558567
H27   H     H_    0.690494 0.138393 0.469980 0.362025
S2    S     S_3+6 0.231953 0.752031 0.429674 -0.028966
O16   O     O_2   0.314385 0.766012 0.486486 -0.337744
O17   O     O_2   0.255291 0.750950 0.323041 -0.317158
O18   O     O_3   0.162603 0.875751 0.454968 -0.516971
H28   H     H_    0.149957 0.871247 0.525754 0.350495

loop_
_geom_bond_atom_site_label_1
_geom_bond_atom_site_label_2
_ccdc_geom_bond_type
C54   O11   D    
C27   C29   A    
C18   C21   A    
C2    O4    A    
O12   H26   S    
S1    O13   D    
C7    H19   S    
Cu1   Cu2   S    
C6    H18   S    
C23   C42   S    
C4    C52   A    
Cu1   O4    S    
Cu1   N1    S    
C27   N1    A    
Cu2   O7    S    
C9    C22   S    
C45   C51   A    
C1    O1    A    
C34   C37   A    
C46   C52   A    
S2    O18   S    
Cu1   O1    S    
C51   H11   S    
C37   H9    S    
C26   C34   A    
C39   H1    S    
C47   C48   A    
C40   H2    S    
C31   C33   A    
C53   O10   S    
C38   H10   S    
C48   C50   A    
C54   O12   S    
C23   O7    A    
C24   C41   S    
C41   C43   A    
C42   C44   A    
C36   H8    S    
Cu2   O3    S    
S1    O14   D    
C3    C50   A    
C44   C46   A    
Cu2   N2    S    
C45   C47   A    
C10   C21   S    
C15   H15   S    
C13   H23   S    
C16   H16   S    
C47   C49   A    
O10   H25   S    
Cu2   O6    S    
C44   S2    S    
C6    C8    A    
C4    H14   S    
C26   N2    A    
C28   C54   S    
C32   C34   A    
C24   O8    A    
C31   C32   A    
C8    H20   S    
C35   H7    S    
S2    O17   D    
C43   C45   A    
C9    C11   A    
C10   C12   A    
C8    C10   A    
C39   C49   A    
C12   C14   A    
C13   C15   A    
C14   C16   A    
C2    O2    A    
C36   C38   A    
Cu2   O2    S    
S1    O15   S    
C52   H12   S    
C35   C37   A    
C5    C7    A    
C7    C9    A    
C1    C20   S    
C3    C51   A    
C19   C21   A    
C2    C19   S    
C25   N1    A    
C3    H13   S    
C43   S1    S    
C20   C22   A    
C1    O3    A    
O18   H28   S    
C29   C35   A    
C17   C22   A    
C30   C36   A    
C4    C49   A    
C12   H22   S    
C28   C30   A    
C29   C31   A    
C11   H21   S    
C30   C32   A    
C11   C13   A    
C24   O6    A    
C40   C50   A    
C40   C42   A    
O15   H27   S    
C17   C19   A    
C18   H4    S    
C27   C53   S    
Cu1   O8    S    
C18   C20   A    
C14   H24   S    
S2    O16   D    
C28   N2    A    
C5    C15   A    
C6    C16   A    
C46   C48   A    
C39   C41   A    
C5    H17   S    
C23   O5    A    
C17   H3    S    
C33   C38   A    
Cu1   O5    S    
C25   H5    S    
C53   O9    D    
C26   H6    S    
C25   C33   A    
