data_mof_unit_38645.cif
_audit_creation_date              2012-12-10T17:44:22-0500
_audit_creation_method            fapswitch 2.2
_symmetry_space_group_name_H-M    P1
_symmetry_Int_Tables_number       1
_space_group_crystal_system       triclinic
_cell_length_a                    13.684615
_cell_length_b                    15.090671
_cell_length_c                    17.362622
_cell_angle_alpha                 89.23382
_cell_angle_beta                  85.93331
_cell_angle_gamma                 89.277483
_cell_volume                      3575.9634574

loop_
_atom_site_label
_atom_site_type_symbol
_atom_type_description
_atom_site_fract_x
_atom_site_fract_y
_atom_site_fract_z
_atom_type_partial_charge
C1    C     C_R   0.499104 0.671323 0.502383 0.814649
C2    C     C_R   0.500901 0.328623 0.498255 0.817127
C3    C     C_R   0.419317 0.186994 0.524922 -0.294567
C4    C     C_R   0.581079 0.813203 0.479330 -0.297373
C5    C     C_R   0.503167 0.231727 0.496943 -0.089542
C6    C     C_R   0.497031 0.768112 0.506135 -0.093015
C7    C     C_R   0.586778 0.184069 0.466862 0.102931
C8    C     C_R   0.413954 0.815214 0.538047 0.111394
C9    C     C_R   0.590858 0.090779 0.478532 0.063676
C10   C     C_R   0.409485 0.908807 0.527799 0.074472
C11   C     C_R   0.501967 0.046452 0.501894 0.004651
C12   C     C_R   0.498230 0.953309 0.503949 -0.000800
C13   C     C_R   0.416598 0.095289 0.523641 0.092153
C14   C     C_R   0.583905 0.904703 0.482250 0.085934
C15   C     C_R   0.679117 0.039561 0.468127 0.088714
C16   C     C_R   0.321410 0.960350 0.540524 0.091093
C17   C     C_R   0.672896 0.947322 0.466049 -0.235675
C18   C     C_R   0.328162 0.052716 0.542220 -0.245413
C19   C     C_R   0.209964 0.559851 0.454759 0.007082
C20   C     C_R   0.790074 0.439697 0.544803 0.000736
C21   C     C_R   0.203503 0.440051 0.545102 0.011581
C22   C     C_R   0.796535 0.559787 0.454750 0.011972
C23   C     C_R   0.487253 0.502539 0.649472 0.777048
C24   C     C_R   0.512741 0.497438 0.350532 0.779243
C25   C     C_R   0.100364 0.438358 0.545959 -0.004501
C26   C     C_R   0.899713 0.561098 0.453535 -0.003552
C27   C     C_R   0.051864 0.499721 0.499750 0.085996
C28   C     C_R   0.948204 0.499667 0.499700 0.087497
C29   C     C_R   0.106984 0.561027 0.453475 -0.004048
C30   C     C_R   0.893102 0.438138 0.545762 -0.006310
C31   C     C_R   0.044830 0.376979 0.591629 -0.206162
C32   C     C_R   0.955333 0.621900 0.407293 -0.207383
C33   C     C_R   0.942126 0.376826 0.591486 -0.206892
C34   C     C_R   0.058062 0.621592 0.407048 -0.208543
C35   C     C_R   0.480978 0.502709 0.733083 -0.038171
C36   C     C_R   0.518950 0.497088 0.266923 -0.038560
C37   C     C_R   0.530636 0.566276 0.774376 0.074082
C38   C     C_R   0.469003 0.433561 0.225791 0.074187
C39   C     C_R   0.535342 0.553900 0.853921 -0.161074
C40   C     C_R   0.463957 0.445934 0.146273 -0.160837
C41   C     C_R   0.487981 0.482249 0.892462 0.156499
C42   C     C_R   0.511273 0.517528 0.107612 0.156517
C43   C     C_R   0.435849 0.422219 0.851125 -0.173624
C44   C     C_R   0.563732 0.577475 0.148779 -0.173562
C45   C     C_R   0.432005 0.432588 0.771888 -0.225619
C46   C     C_R   0.567913 0.567116 0.227983 -0.226392
C47   C     C_2   0.494190 0.466741 0.975496 -0.219926
C48   C     C_2   0.504770 0.533044 0.024617 -0.220212
Cu1   Cu    Cu3+1 0.402580 0.500010 0.500000 0.930689
Cu2   Cu    Cu3+1 0.597420 0.499990 0.500000 0.930708
H1    H     H_    0.253450 0.606542 0.419529 0.131325
H2    H     H_    0.746574 0.392928 0.579929 0.131011
H3    H     H_    0.241934 0.393493 0.580461 0.122213
H4    H     H_    0.758115 0.606413 0.419446 0.122077
H5    H     H_    0.080800 0.329092 0.627444 0.131813
H6    H     H_    0.919445 0.669543 0.371197 0.132649
H7    H     H_    0.901064 0.328827 0.627192 0.135093
H8    H     H_    0.099308 0.668593 0.370457 0.138406
H9    H     H_    0.606135 0.615887 0.259470 0.138071
H10   H     H_    0.393984 0.383788 0.740282 0.138225
H11   H     H_    0.510213 0.601064 0.003817 0.140939
H12   H     H_    0.488725 0.398724 0.996309 0.141059
H13   H     H_    0.399195 0.366546 0.880112 0.128094
H14   H     H_    0.600371 0.633090 0.119686 0.127974
H15   H     H_    0.420779 0.400549 0.115396 0.122221
H16   H     H_    0.578305 0.599352 0.884911 0.122265
H17   H     H_    0.354363 0.223997 0.545539 0.157243
H18   H     H_    0.646101 0.776606 0.458220 0.158403
H19   H     H_    0.739306 0.907791 0.456679 0.139313
H20   H     H_    0.262529 0.092657 0.554361 0.133912
N1    N     N_R   0.256180 0.500070 0.500030 -0.183986
N2    N     N_R   0.743820 0.499930 0.499970 -0.183432
O1    O     O_R   0.417720 0.629750 0.499980 -0.577479
O2    O     O_R   0.582280 0.370250 0.500020 -0.578026
O3    O     O_R   0.582260 0.629730 0.499990 -0.597768
O4    O     O_R   0.417740 0.370270 0.500010 -0.598074
O5    O     O_R   0.408190 0.500030 0.613590 -0.582873
O6    O     O_R   0.591810 0.499970 0.386410 -0.581521
O7    O     O_R   0.572730 0.500000 0.613600 -0.586607
O8    O     O_R   0.427270 0.500000 0.386400 -0.587273
C49   C     C_3   0.578587 0.647626 0.736398 -0.417344
C50   C     C_3   0.525430 0.732909 0.763905 -0.369844
C51   C     C_3   0.569289 0.814407 0.722172 -0.829967
H21   H     H_    0.647553 0.820907 0.734038 0.250723
H22   H     H_    0.563560 0.809347 0.658953 0.267409
H23   H     H_    0.528809 0.874801 0.742725 0.240985
H24   H     H_    0.446604 0.729192 0.752812 0.223190
H25   H     H_    0.530911 0.740758 0.826992 0.216723
H26   H     H_    0.656454 0.649404 0.750697 0.200311
H27   H     H_    0.578581 0.646220 0.672643 0.214968
C52   C     C_3   0.421029 0.352326 0.263977 -0.416637
C53   C     C_3   0.473247 0.266825 0.235887 -0.370910
C54   C     C_3   0.430727 0.185630 0.278984 -0.831009
H28   H     H_    0.439308 0.190899 0.341846 0.265933
H29   H     H_    0.351758 0.179351 0.269318 0.251618
H30   H     H_    0.470079 0.125020 0.257598 0.241009
H31   H     H_    0.465500 0.258546 0.173123 0.216741
H32   H     H_    0.552606 0.270579 0.245173 0.222664
H33   H     H_    0.421975 0.353551 0.327680 0.215069
H34   H     H_    0.342886 0.350989 0.250374 0.200266
C55   C     C_3   0.657384 0.229957 0.408438 -0.830362
H35   H     H_    0.714307 0.266155 0.437346 0.241375
H36   H     H_    0.691367 0.182518 0.366385 0.227938
H37   H     H_    0.617508 0.278374 0.373140 0.224818
C56   C     C_3   0.344496 0.768312 0.596514 -0.837864
H38   H     H_    0.322374 0.812750 0.645258 0.215385
H39   H     H_    0.280057 0.743057 0.568658 0.244826
H40   H     H_    0.381020 0.711399 0.624253 0.229592
C57   C     C_3   0.780804 0.076857 0.475140 -0.392213
C58   C     C_3   0.849592 0.062763 0.402226 -0.348832
C59   C     C_3   0.946321 0.110638 0.408129 -0.848676
H41   H     H_    0.933197 0.183204 0.413189 0.258264
H42   H     H_    0.983501 0.086003 0.459225 0.248890
H43   H     H_    0.995195 0.098174 0.355482 0.242197
H44   H     H_    0.815165 0.086944 0.349883 0.218247
H45   H     H_    0.865812 0.990958 0.394715 0.209282
H46   H     H_    0.778182 0.147242 0.491898 0.208375
H47   H     H_    0.813559 0.042117 0.524213 0.185736
C60   C     C_3   0.218099 0.923385 0.541171 -0.390531
C61   C     C_3   0.199209 0.882624 0.463132 -0.334164
C62   C     C_3   0.093665 0.851332 0.462109 -0.868877
H48   H     H_    0.079469 0.797318 0.505411 0.262562
H49   H     H_    0.041504 0.907090 0.474939 0.254483
H50   H     H_    0.081054 0.825977 0.403990 0.237929
H51   H     H_    0.212937 0.933133 0.416522 0.220474
H52   H     H_    0.249396 0.825434 0.450625 0.222916
H53   H     H_    0.201155 0.876510 0.589377 0.197886
H54   H     H_    0.162938 0.977445 0.551805 0.184301

loop_
_geom_bond_atom_site_label_1
_geom_bond_atom_site_label_2
_ccdc_geom_bond_type
C25   C31   A    
C38   C40   A    
C45   H10   S    
C17   H19   S    
C55   H35   S    
C46   H9    S    
C27   C29   A    
C15   C57   S    
C19   N1    A    
C59   H41   S    
C8    C56   S    
C47   H12   S    
C49   C50   S    
C53   H32   S    
C39   C41   A    
C20   C30   A    
C44   H14   S    
C26   C32   A    
C56   H39   S    
C54   H28   S    
C13   C18   A    
C21   N1    A    
C35   C37   A    
C7    C55   S    
Cu2   O2    S    
C61   H52   S    
C50   H24   S    
C7    C9    A    
Cu2   N2    S    
C58   C59   S    
C62   H50   S    
C24   O8    A    
C47   C48   D    
C53   H31   S    
C31   C33   A    
C36   C46   A    
C52   H34   S    
C3    C13   A    
C49   H26   S    
C60   H54   S    
C40   C42   A    
C55   H36   S    
Cu2   O7    S    
C41   C43   A    
C14   C17   A    
C37   C49   S    
C42   C44   A    
Cu2   O6    S    
C22   N2    A    
C44   C46   A    
C57   H47   S    
C37   C39   A    
C56   H40   S    
C57   H46   S    
C1    C6    S    
C1    O3    A    
C22   H4    S    
C16   C60   S    
C52   C53   S    
C5    C7    A    
C61   H51   S    
C6    C8    A    
C38   C52   S    
C32   C34   A    
C9    C11   A    
C51   H21   S    
C11   C12   A    
C41   C47   S    
Cu1   O4    S    
C59   H42   S    
C16   C18   A    
C42   C48   S    
C23   O5    A    
C43   C45   A    
C62   H48   S    
C10   C12   A    
C49   H27   S    
C4    C6    A    
C51   H22   S    
C12   C14   A    
Cu1   Cu2   S    
C54   H30   S    
C23   C35   S    
C40   H15   S    
Cu1   N1    S    
C39   H16   S    
Cu1   O1    S    
C2    C5    S    
C35   C45   A    
C58   H45   S    
C2    O4    A    
C61   C62   S    
C4    H18   S    
C24   O6    A    
C15   C17   A    
C21   C25   A    
C33   H7    S    
C30   C33   A    
C3    H17   S    
C3    C5    A    
C2    O2    A    
C60   C61   S    
C25   C27   A    
C56   H38   S    
C26   C28   A    
C18   H20   S    
C24   C36   S    
Cu1   O8    S    
C23   O7    A    
C28   C30   A    
C9    C15   A    
C1    O1    A    
C20   H2    S    
C10   C16   A    
C57   C58   S    
C21   H3    S    
C11   C13   A    
C48   H11   S    
C54   H29   S    
C50   H25   S    
C29   C34   A    
C36   C38   A    
C53   C54   S    
Cu1   O5    S    
C59   H43   S    
C4    C14   A    
C62   H49   S    
C22   C26   A    
C19   H1    S    
C51   H23   S    
C8    C10   A    
C50   C51   S    
C43   H13   S    
C27   C28   A    
C34   H8    S    
C20   N2    A    
C55   H37   S    
C31   H5    S    
C52   H33   S    
Cu2   O3    S    
C58   H44   S    
C32   H6    S    
C60   H53   S    
C19   C29   A    
