data_mof_unit_37268.cif
_audit_creation_date              2012-12-10T20:52:42-0500
_audit_creation_method            fapswitch 2.2
_symmetry_space_group_name_H-M    P1
_symmetry_Int_Tables_number       1
_space_group_crystal_system       triclinic
_cell_length_a                    8.588662
_cell_length_b                    15.651006
_cell_length_c                    15.063437
_cell_angle_alpha                 90.267758
_cell_angle_beta                  97.874598
_cell_angle_gamma                 89.52461
_cell_volume                      2005.66978198

loop_
_atom_site_label
_atom_site_type_symbol
_atom_type_description
_atom_site_fract_x
_atom_site_fract_y
_atom_site_fract_z
_atom_type_partial_charge
C1    C     C_R   0.501145 0.338272 0.499696 0.907351
C2    C     C_R   0.499360 0.661658 0.500032 0.895201
C3    C     C_R   0.501528 0.500092 0.905211 -0.079192
C4    C     C_R   0.499202 0.500734 0.094946 -0.078386
C5    C     C_R   0.599497 0.555931 0.961151 0.518123
C6    C     C_R   0.401320 0.444931 0.039019 0.511956
C7    C     C_1   0.500550 0.499906 0.807217 0.120221
C8    C     C_1   0.499935 0.500550 0.192855 0.111424
C9    C     C_R   0.200869 0.504679 0.477386 0.905410
C10   C     C_R   0.799148 0.495592 0.522646 0.906001
C11   C     C_2   0.036620 0.519158 0.468892 0.159308
C12   C     C_2   0.963413 0.481421 0.531324 0.162210
C13   C     C_R   0.685106 0.954298 0.545150 0.360416
C14   C     C_R   0.489122 0.044232 0.410579 0.347270
C15   C     C_R   0.574953 0.911858 0.482751 -0.268001
C16   C     C_R   0.582692 0.087412 0.480187 -0.282820
C17   C     C_R   0.485664 0.955396 0.411602 0.339146
C18   C     C_R   0.690002 0.043448 0.543351 0.376139
C19   C     C_1   0.544107 0.824403 0.494748 0.127912
C20   C     C_1   0.553090 0.175516 0.492456 0.099099
C21   C     C_1   0.526341 0.249659 0.498955 -0.187082
C22   C     C_1   0.519819 0.750278 0.500218 -0.192888
C23   C     C_R   0.404909 0.444021 0.945330 -0.365584
C24   C     C_R   0.595884 0.556849 0.054902 -0.367032
H1    H     H_    0.330893 0.399604 0.903971 0.173353
H2    H     H_    0.669965 0.601209 0.096371 0.173377
N1    N     N_1   0.499960 0.500020 0.270540 -0.100622
N2    N     N_1   0.500040 0.499980 0.729460 -0.101387
O1    O     O_R   0.500000 0.378020 0.573650 -0.604168
O2    O     O_R   0.500000 0.621980 0.426350 -0.610510
O3    O     O_R   0.500070 0.378020 0.426320 -0.611460
O4    O     O_R   0.499930 0.621980 0.573680 -0.604190
O5    O     O_R   0.271720 0.500000 0.556430 -0.575971
O6    O     O_R   0.728280 0.500000 0.443570 -0.575778
O7    O     O_R   0.271790 0.500000 0.409110 -0.660574
O8    O     O_R   0.728210 0.500000 0.590890 -0.660651
Zn1   Zn    Zn3+2 0.499950 0.500000 0.598370 0.974422
Zn2   Zn    Zn3+2 0.500050 0.500000 0.401630 0.965262
O9    O     O_3   0.967053 0.588833 0.420239 -0.638187
C25   C     C_3   0.001856 0.589229 0.331287 0.149206
H3    H     H_    0.998271 0.523745 0.301565 0.146049
H4    H     H_    0.119037 0.618216 0.329166 0.157129
C26   C     C_3   0.880493 0.644057 0.274119 -0.855356
H5    H     H_    0.881604 0.710228 0.301180 0.255881
H6    H     H_    0.907982 0.645981 0.204237 0.193080
H7    H     H_    0.761624 0.616803 0.274066 0.265539
O10   O     O_3   0.033064 0.412252 0.580781 -0.639707
C27   C     C_3   0.000456 0.414075 0.670184 0.131357
H8    H     H_    0.883701 0.385225 0.673947 0.163478
H9    H     H_    0.004369 0.480247 0.698245 0.147494
C28   C     C_3   0.122872 0.360592 0.728144 -0.829611
H10   H     H_    0.241685 0.387219 0.726347 0.268691
H11   H     H_    0.096969 0.360851 0.798365 0.191912
H12   H     H_    0.120782 0.293706 0.703333 0.250321
O11   O     O_3   0.780719 0.086176 0.612669 -0.586637
C29   C     C_3   0.901293 0.132882 0.579704 0.103836
H13   H     H_    0.932415 0.186898 0.626665 0.173908
H14   H     H_    0.865026 0.161812 0.512524 0.121094
C30   C     C_3   0.047160 0.076653 0.577002 -0.395041
H15   H     H_    0.079860 0.045519 0.643175 0.247711
H16   H     H_    0.020449 0.026498 0.524866 0.204661
C31   C     C_3   0.186161 0.128449 0.554728 -0.847891
H17   H     H_    0.158276 0.158113 0.487509 0.278324
H18   H     H_    0.289197 0.085298 0.554515 0.274726
H19   H     H_    0.216989 0.179161 0.605740 0.257459
O12   O     O_3   0.374468 0.913029 0.352322 -0.593005
C32   C     C_3   0.449340 0.868295 0.287887 0.092300
H20   H     H_    0.564996 0.839850 0.316289 0.123304
H21   H     H_    0.468928 0.912768 0.233229 0.137550
C33   C     C_3   0.342292 0.795865 0.248743 -0.309756
H22   H     H_    0.316601 0.753415 0.303822 0.226132
H23   H     H_    0.229322 0.823122 0.215547 0.226064
C34   C     C_3   0.418249 0.742791 0.180748 -0.952209
H24   H     H_    0.443625 0.783533 0.124365 0.271475
H25   H     H_    0.337069 0.691194 0.153592 0.259333
H26   H     H_    0.529287 0.713029 0.213242 0.266105
O13   O     O_3   0.767762 0.911135 0.617178 -0.551313
C35   C     C_3   0.887794 0.859453 0.588507 0.117319
H27   H     H_    0.999716 0.895266 0.597539 0.147656
H28   H     H_    0.864054 0.838672 0.517004 0.119935
C36   C     C_3   0.910734 0.779745 0.646574 -0.784559
H29   H     H_    0.800827 0.741993 0.639368 0.255708
H30   H     H_    0.006368 0.739408 0.625590 0.209814
H31   H     H_    0.942785 0.797957 0.718059 0.257213
O14   O     O_3   0.381641 0.088182 0.350253 -0.560544
C37   C     C_3   0.460401 0.121837 0.281973 0.106351
H32   H     H_    0.500439 0.069272 0.240324 0.126452
H33   H     H_    0.563803 0.160905 0.309715 0.132821
C38   C     C_3   0.347767 0.179397 0.222079 -0.766642
H34   H     H_    0.307639 0.233108 0.262001 0.254472
H35   H     H_    0.407966 0.205948 0.167713 0.226690
H36   H     H_    0.244040 0.142381 0.191661 0.250720
O15   O     O_3   0.306231 0.388419 0.076395 -0.642855
C39   C     C_3   0.153007 0.423508 0.069120 0.060204
H37   H     H_    0.097556 0.422944 0.997790 0.140231
H38   H     H_    0.154579 0.490385 0.095413 0.122948
C40   C     C_3   0.054279 0.369523 0.124262 -0.315943
H39   H     H_    0.051145 0.302509 0.099332 0.232904
H40   H     H_    0.109081 0.369746 0.195562 0.225129
C41   C     C_3   0.886531 0.404065 0.118421 -0.974460
H41   H     H_    0.886994 0.470765 0.143907 0.257516
H42   H     H_    0.818286 0.364106 0.159789 0.276066
H43   H     H_    0.828015 0.402483 0.047942 0.263972
O16   O     O_3   0.694481 0.612474 0.923717 -0.631571
C42   C     C_3   0.848346 0.578097 0.932095 0.057203
H44   H     H_    0.848193 0.511135 0.906150 0.123660
H45   H     H_    0.902621 0.579137 0.003637 0.137750
C43   C     C_3   0.947409 0.632343 0.877352 -0.308154
H46   H     H_    0.893620 0.631891 0.805865 0.229221
H47   H     H_    0.949508 0.699385 0.902151 0.235472
C44   C     C_3   0.115631 0.598391 0.884012 -0.977132
H48   H     H_    0.173174 0.600092 0.954693 0.263159
H49   H     H_    0.184051 0.638647 0.843019 0.280984
H50   H     H_    0.116251 0.531738 0.858481 0.257585

loop_
_geom_bond_atom_site_label_1
_geom_bond_atom_site_label_2
_ccdc_geom_bond_type
O11   C29   S    
C1    C21   S    
O15   C39   S    
C34   H24   S    
C3    C23   A    
C44   H48   S    
C4    C8    S    
C40   C41   S    
C36   H29   S    
O13   C35   S    
C29   H13   S    
C15   C19   S    
C42   H45   S    
C17   O12   S    
C13   C18   A    
O8    Zn1   S    
C24   H2    S    
C3    C7    S    
C4    C24   A    
C37   H33   S    
N1    Zn2   S    
C1    O3    A    
C43   H46   S    
O2    Zn2   S    
C2    O4    A    
C31   H18   S    
C36   H30   S    
C25   C26   S    
C43   H47   S    
C2    C22   S    
C33   H22   S    
C38   H35   S    
C27   H9    S    
O12   C32   S    
C5    O16   S    
C30   H15   S    
C9    O5    A    
C34   H25   S    
C14   C17   A    
C12   O10   S    
C1    O1    A    
O16   C42   S    
C40   H40   S    
C40   H39   S    
C27   C28   S    
C42   C43   S    
C13   O13   S    
C30   H16   S    
C32   H20   S    
O7    Zn2   S    
C44   H49   S    
O9    C25   S    
C37   H32   S    
C39   C40   S    
O14   C37   S    
C41   H43   S    
O5    Zn1   S    
C7    N2    T    
C28   H10   S    
C28   H11   S    
C39   H38   S    
C26   H5    S    
C31   H17   S    
C9    C11   S    
O10   C27   S    
C16   C20   S    
C6    O15   S    
C19   C22   T    
C33   C34   S    
C41   H42   S    
C10   O6    A    
O4    Zn1   S    
C38   H36   S    
C11   O9    S    
C26   H6    S    
C10   C12   S    
C18   O11   S    
C4    C6    A    
C27   H8    S    
C13   C15   A    
C34   H26   S    
C14   C16   A    
C36   H31   S    
C15   C17   A    
C25   H3    S    
C30   C31   S    
C31   H19   S    
O6    Zn2   S    
C14   O14   S    
C3    C5    A    
C37   C38   S    
C33   H23   S    
C11   C12   D    
C43   C44   S    
O3    Zn2   S    
C42   H44   S    
C29   C30   S    
C2    O2    A    
C32   C33   S    
C28   H12   S    
C35   H27   S    
C35   C36   S    
C5    C24   A    
N2    Zn1   S    
C6    C23   A    
C25   H4    S    
C41   H41   S    
C29   H14   S    
C44   H50   S    
C35   H28   S    
C23   H1    S    
C39   H37   S    
C26   H7    S    
C20   C21   T    
C16   C18   A    
O1    Zn1   S    
C9    O7    A    
C8    N1    T    
C10   O8    A    
C32   H21   S    
C38   H34   S    
