data_mof_unit_33391.cif
_audit_creation_date              2012-10-26T20:17:42-0400
_audit_creation_method            fapswitch 2.2
_symmetry_space_group_name_H-M    P1
_symmetry_Int_Tables_number       1
_space_group_crystal_system       triclinic
_cell_length_a                    27.828241
_cell_length_b                    8.671603
_cell_length_c                    7.416295
_cell_angle_alpha                 103.052632
_cell_angle_beta                  93.822594
_cell_angle_gamma                 92.444174
_cell_volume                      1736.48039039

loop_
_atom_site_label
_atom_site_type_symbol
_atom_type_description
_atom_site_fract_x
_atom_site_fract_y
_atom_site_fract_z
_atom_type_partial_charge
Br1   Br    Br    0.238224 0.370413 0.104616 -0.399864
Br2   Br    Br    0.761777 0.628421 0.895420 -0.400201
Br3   Br    Br    0.634615 0.362421 0.084609 -0.448212
Br4   Br    Br    0.365407 0.638945 0.915188 -0.447766
C1    C     C_R   0.498536 0.199551 0.453099 0.553761
C2    C     C_R   0.871237 0.373047 0.537718 0.029442
C3    C     C_R   0.354433 0.501518 0.509458 -0.016307
C4    C     C_R   0.645571 0.498455 0.490533 -0.016351
C5    C     C_R   0.973176 0.369240 0.539744 0.020349
C6    C     C_R   0.026832 0.630571 0.460131 0.020347
C7    C     C_R   0.975727 0.631307 0.459554 0.020189
C8    C     C_R   0.024281 0.368512 0.540341 0.020187
C9    C     C_R   0.949244 0.500649 0.499397 0.036414
C10   C     C_R   0.050764 0.499168 0.500492 0.036414
C11   C     C_R   0.944835 0.242560 0.578272 -0.142668
C12   C     C_R   0.501464 0.800449 0.546902 0.553821
C13   C     C_R   0.055172 0.757238 0.421570 -0.142674
C14   C     C_R   0.895001 0.244751 0.577042 -0.105542
C15   C     C_R   0.105006 0.755049 0.422802 -0.105549
C16   C     C_R   0.407441 0.501571 0.503672 0.572581
C17   C     C_R   0.592561 0.498442 0.496328 0.572572
C18   C     C_R   0.050149 0.241127 0.579655 -0.141872
C19   C     C_R   0.949860 0.758704 0.420271 -0.141867
C20   C     C_2   0.497815 0.031622 0.426604 -0.127504
C21   C     C_2   0.502184 0.968378 0.573396 -0.127493
C22   C     C_R   0.176704 0.370998 0.540091 0.441140
C23   C     C_R   0.101878 0.498424 0.501020 -0.024924
C24   C     C_R   0.823306 0.628848 0.459873 0.441076
C25   C     C_R   0.179147 0.623758 0.463567 0.435793
C26   C     C_R   0.820861 0.376061 0.536327 0.435934
C27   C     C_R   0.281306 0.550540 0.670529 -0.033691
C28   C     C_R   0.718702 0.449864 0.329431 -0.033688
C29   C     C_R   0.331577 0.554185 0.676068 0.138821
C30   C     C_R   0.668431 0.446289 0.323879 0.138853
C31   C     C_R   0.325634 0.447391 0.341493 -0.115011
C32   C     C_R   0.674371 0.552049 0.658535 -0.115017
C33   C     C_R   0.275503 0.444949 0.337534 0.217147
C34   C     C_R   0.898130 0.501397 0.498881 -0.024923
C35   C     C_R   0.724502 0.554448 0.662488 0.217211
C36   C     C_R   0.253297 0.496584 0.502789 0.211397
C37   C     C_R   0.746710 0.503276 0.497201 0.211353
C38   C     C_R   0.126275 0.369408 0.540551 0.030685
C39   C     C_R   0.873734 0.630425 0.459382 0.030706
C40   C     C_R   0.100013 0.241921 0.579589 -0.104073
C41   C     C_R   0.899995 0.757917 0.420356 -0.104068
C42   C     C_R   0.128771 0.626767 0.462162 0.029433
Cu1   Cu    Cu3+1 0.505380 0.517380 0.684380 1.046351
Cu2   Cu    Cu3+1 0.494620 0.482620 0.315620 1.046321
H1    H     H_    0.462189 0.378408 0.948369 0.251497
H2    H     H_    0.658017 0.593231 0.787924 0.191321
H3    H     H_    0.736307 0.409282 0.202773 0.191550
H4    H     H_    0.263702 0.591506 0.797154 0.191318
H5    H     H_    0.875116 0.144738 0.607614 0.176656
H6    H     H_    0.124890 0.855053 0.392209 0.176671
H7    H     H_    0.033219 0.137825 0.611660 0.105354
H8    H     H_    0.966789 0.862016 0.388288 0.105339
H9    H     H_    0.537810 0.621595 0.051631 0.251608
H10   H     H_    0.117947 0.141449 0.610750 0.170731
H11   H     H_    0.882063 0.858400 0.389221 0.170707
H12   H     H_    0.959743 0.138761 0.610527 0.106685
H13   H     H_    0.040263 0.861023 0.389280 0.106702
H14   H     H_    0.493684 0.959739 0.285244 0.149066
H15   H     H_    0.506315 0.040260 0.714756 0.149037
H16   H     H_    0.341990 0.405852 0.212134 0.190956
N1    N     N_R   0.201874 0.496824 0.501482 -0.386635
N2    N     N_R   0.798134 0.503020 0.498475 -0.386602
N3    N     N_2   0.486510 0.456430 0.038510 -0.230067
N4    N     N_2   0.513490 0.543570 0.961490 -0.229999
O1    O     O_R   0.503500 0.286120 0.619780 -0.507308
O2    O     O_2   0.799567 0.751972 0.422576 -0.426167
O3    O     O_2   0.794722 0.253312 0.572408 -0.434508
O4    O     O_2   0.205285 0.746483 0.427431 -0.434574
O5    O     O_R   0.496500 0.713880 0.380220 -0.507299
O6    O     O_R   0.494410 0.256780 0.308360 -0.491779
O7    O     O_R   0.505590 0.743220 0.691640 -0.491731
O8    O     O_R   0.434810 0.514700 0.655690 -0.465653
O9    O     O_R   0.565190 0.485300 0.344310 -0.465569
O10   O     O_R   0.425720 0.485350 0.344280 -0.495156
O11   O     O_R   0.574280 0.514650 0.655720 -0.495110
O12   O     O_2   0.200445 0.247894 0.577430 -0.426074

loop_
_geom_bond_atom_site_label_1
_geom_bond_atom_site_label_2
_ccdc_geom_bond_type
C11   C14   A    
C19   C41   A    
C12   O7    A    
C11   H12   S    
Cu1   O11   S    
C27   H4    S    
C26   O3    S    
C15   C42   A    
C19   H8    S    
C35   C37   A    
C31   C33   A    
Cu1   O8    S    
C33   C36   A    
C4    C32   A    
C6    C13   A    
C8    C18   A    
C27   C36   A    
C16   O8    A    
C21   H15   S    
Cu2   O10   S    
C1    O6    A    
C5    C9    A    
Cu1   O1    S    
C1    O1    A    
C18   H7    S    
C14   H5    S    
C13   H13   S    
Br2   C35   S    
C18   C40   A    
C40   H10   S    
C28   C37   A    
C2    C34   A    
C31   H16   S    
C10   C23   A    
Br1   C33   S    
C25   O4    S    
C3    C29   A    
C38   C40   A    
C2    C14   A    
C12   O5    A    
Cu2   O6    S    
C23   C42   A    
C20   C21   D    
C6    C10   A    
Br3   C30   S    
C22   O12   S    
N3    N4    D    
C28   C30   A    
Cu2   O9    S    
C24   N2    A    
C28   H3    S    
Cu1   Cu2   S    
C17   O11   A    
C27   C29   A    
C4    C17   S    
C4    C30   A    
C39   C41   A    
C9    C34   A    
C26   N2    A    
C25   N1    A    
C15   H6    S    
C2    C26   A    
C8    C10   A    
C36   N1    S    
H9    N4    S    
Cu1   N4    S    
C32   H2    S    
C22   C38   A    
C12   C21   S    
Br4   C29   S    
C41   H11   S    
C20   H14   S    
H1    N3    S    
C22   N1    A    
C3    C31   A    
Cu2   O5    S    
C32   C35   A    
C24   O2    S    
C37   N2    S    
C24   C39   A    
C16   O10   A    
C25   C42   A    
C5    C11   A    
Cu1   O7    S    
C34   C39   A    
C7    C9    A    
C23   C38   A    
C1    C20   S    
C7    C19   A    
C13   C15   A    
Cu2   N3    S    
C5    C8    A    
C6    C7    A    
C3    C16   S    
C17   O9    A    
