data_mof_unit_56515.cif
_audit_creation_date              2012-12-10T17:02:59-0500
_audit_creation_method            fapswitch 2.2
_symmetry_space_group_name_H-M    P1
_symmetry_Int_Tables_number       1
_space_group_crystal_system       triclinic
_cell_length_a                    9.886909
_cell_length_b                    11.034821
_cell_length_c                    13.468514
_cell_angle_alpha                 94.810026
_cell_angle_beta                  82.325094
_cell_angle_gamma                 110.642941
_cell_volume                      1361.68566566

loop_
_atom_site_label
_atom_site_type_symbol
_atom_type_description
_atom_site_fract_x
_atom_site_fract_y
_atom_site_fract_z
_atom_type_partial_charge
C1    C     C_R   0.554459 0.745131 0.509687 0.783822
C2    C     C_R   0.430352 0.439644 0.967602 0.114034
C3    C     C_R   0.471822 0.437743 0.862673 0.012410
C4    C     C_R   0.538827 0.464367 0.033863 0.034961
C5    C     C_R   0.682757 0.474008 0.994958 0.033249
C6    C     C_R   0.714056 0.448930 0.893251 -0.180421
C7    C     C_R   0.609337 0.427593 0.828715 -0.192897
C8    C     C_R   0.509819 0.484296 0.137436 -0.258053
C9    C     C_R   0.760052 0.523004 0.161422 -0.280724
C10   C     C_R   0.373163 0.443433 0.796003 -0.245564
C11   C     C_2   0.580199 0.883782 0.521584 0.335191
C12   C     C_R   0.421580 0.476068 0.689208 0.822870
C13   C     C_2   0.468660 0.928681 0.532317 0.329763
C14   C     C_2   0.411696 0.115864 0.499447 -0.403889
C15   C     C_2   0.494734 0.067990 0.544302 0.478521
C16   C     C_2   0.913822 0.475754 0.501665 0.549675
C17   C     C_2   0.075906 0.511007 0.505831 0.068699
C18   C     C_R   0.443098 0.254843 0.496252 0.817816
C19   C     C_R   0.576420 0.511575 0.309960 0.793184
C20   C     C_R   0.792846 0.506529 0.058719 0.595988
C21   C     C_R   0.617568 0.508385 0.201457 -0.132260
C22   C     C_R   0.226902 0.421602 0.833927 0.619311
C23   C     C_R   0.181761 0.401816 0.935130 -0.152216
C24   C     C_R   0.281911 0.414927 0.001926 -0.286172
Cu1   Cu    Cu3+1 0.362000 0.479240 0.482530 1.043057
Cu2   Cu    Cu3+1 0.638000 0.520760 0.517470 1.005734
H1    H     H_    0.846002 0.546652 0.209366 0.172809
H2    H     H_    0.319189 0.051196 0.463380 0.180036
H3    H     H_    0.130920 0.597823 0.549055 0.132144
H4    H     H_    0.908153 0.640681 0.572128 0.178435
H5    H     H_    0.820051 0.445737 0.862970 0.225142
H6    H     H_    0.404052 0.483077 0.170052 0.163425
H7    H     H_    0.238587 0.400630 0.079517 0.148447
H8    H     H_    0.068099 0.378749 0.962580 0.219249
H9    H     H_    0.638086 0.398514 0.752941 0.199865
N1    N     N_2   0.845330 0.551960 0.543750 -0.340614
N2    N     N_2   0.154690 0.448120 0.456210 0.006903
O1    O     O_R   0.426290 0.668220 0.490680 -0.558813
O2    O     O_R   0.659360 0.703290 0.520190 -0.539734
O3    O     O_R   0.326580 0.473880 0.629020 -0.505598
O4    O     O_R   0.559660 0.508940 0.658530 -0.592890
O5    O     O_R   0.340640 0.296710 0.479810 -0.559461
O6    O     O_R   0.573710 0.331780 0.509320 -0.492878
O7    O     O_R   0.440340 0.491060 0.341470 -0.612037
O8    O     O_R   0.673420 0.526120 0.370980 -0.599584
F1    F     F_    0.328437 0.847247 0.530095 -0.700157
F2    F     F_    0.719850 0.966579 0.522702 -0.616753
O9    O     O_3   0.834088 0.353094 0.465885 -0.458639
C25   C     C_3   0.834580 0.348680 0.360497 -0.072093
H10   H     H_    0.916909 0.433867 0.322160 0.078442
H11   H     H_    0.854340 0.259848 0.329013 0.164665
H12   H     H_    0.724721 0.333616 0.341007 0.142409
O10   O     O_3   0.081911 0.327109 0.422243 -0.428373
C26   C     C_3   0.145854 0.310299 0.324417 -0.085300
H13   H     H_    0.244237 0.285013 0.325090 0.177161
H14   H     H_    0.168976 0.396202 0.278545 0.098547
H15   H     H_    0.068988 0.226294 0.286294 0.115906
F3    F     F_    0.932581 0.524204 0.021632 -0.693505
F4    F     F_    0.125830 0.417589 0.773461 -0.645132
O11   O     O_3   0.610830 0.149309 0.593047 -0.486786
C27   C     C_3   0.583039 0.122863 0.695907 -0.193247
H16   H     H_    0.675933 0.188466 0.734251 0.194427
H17   H     H_    0.574019 0.021992 0.709025 0.156173
H18   H     H_    0.483220 0.141758 0.730507 0.121323

loop_
_geom_bond_atom_site_label_1
_geom_bond_atom_site_label_2
_ccdc_geom_bond_type
Cu1   O5    S    
C12   O3    A    
C27   H18   S    
C2    C4    A    
C23   C24   A    
C19   O8    A    
C12   O4    A    
Cu1   O1    S    
C17   H3    S    
C15   O11   S    
C14   C18   S    
C9    C20   A    
C11   F2    S    
C24   H7    S    
C1    C11   S    
H4    N1    S    
C4    C8    A    
C23   H8    S    
N2    O10   S    
C16   O9    S    
C13   C15   S    
C2    C3    A    
C3    C10   A    
C17   N2    D    
C18   O6    A    
C10   C22   A    
C11   C13   D    
C9    C21   A    
C6    C7    A    
C10   C12   S    
C1    O1    A    
C5    C6    A    
Cu1   O7    S    
Cu2   N1    S    
O9    C25   S    
C19   C21   S    
Cu2   O6    S    
C6    H5    S    
C3    C7    A    
C18   O5    A    
Cu1   O3    S    
C2    C24   A    
C13   F1    S    
C5    C20   A    
C26   H14   S    
Cu2   O2    S    
C16   C17   S    
C27   H16   S    
C1    O2    A    
C20   F3    S    
C26   H13   S    
C8    H6    S    
Cu2   O4    S    
C19   O7    A    
C9    H1    S    
C25   H10   S    
C22   F4    S    
C27   H17   S    
C22   C23   A    
C4    C5    A    
Cu2   O8    S    
C14   H2    S    
Cu1   Cu2   S    
O10   C26   S    
C7    H9    S    
C16   N1    D    
C14   C15   D    
C25   H12   S    
Cu1   N2    S    
O11   C27   S    
C25   H11   S    
C26   H15   S    
C8    C21   A    
