data_mof_unit_47457.cif
_audit_creation_date              2013-03-05T15:45:31-0500
_audit_creation_method            fapswitch 2.2
_symmetry_space_group_name_H-M    P1
_symmetry_Int_Tables_number       1
_space_group_crystal_system       triclinic
_cell_length_a                    9.828216
_cell_length_b                    10.946737
_cell_length_c                    13.533966
_cell_angle_alpha                 94.48697
_cell_angle_beta                  83.064017
_cell_angle_gamma                 111.367296
_cell_volume                      1345.14551206

loop_
_atom_site_label
_atom_site_type_symbol
_atom_site_description
_atom_site_fract_x
_atom_site_fract_y
_atom_site_fract_z
_atom_type_partial_charge
O1    O     O_R   0.426290 0.668220 0.490680 -0.625480
O2    O     O_R   0.659360 0.703290 0.520190 -0.479868
C1    C     C_R   0.555474 0.746870 0.510485 0.752277
O3    O     O_R   0.326580 0.473880 0.629020 -0.557579
O4    O     O_R   0.559660 0.508940 0.658530 -0.492846
C2    C     C_R   0.423754 0.488241 0.691313 0.861379
Cu1   Cu    Cu3+1 0.362000 0.479240 0.482530 1.137082
Cu2   Cu    Cu3+1 0.638000 0.520760 0.517470 1.185637
O5    O     O_R   0.340640 0.296710 0.479810 -0.489596
O6    O     O_R   0.573710 0.331780 0.509320 -0.601561
O7    O     O_R   0.440340 0.491060 0.341470 -0.555494
O8    O     O_R   0.673420 0.526120 0.370980 -0.549416
C3    C     C_R   0.442118 0.253265 0.495313 0.830292
C4    C     C_R   0.576811 0.517049 0.310769 0.829533
C5    C     C_R   0.700172 0.759156 0.111868 0.268157
H1    H     H_    0.675962 0.843955 0.937402 0.231162
C6    C     C_R   0.620827 0.563957 0.209752 -0.163735
C7    C     C_R   0.246983 0.347602 0.826242 0.312776
C8    C     C_R   0.223374 0.300055 0.922914 0.284582
C9    C     C_R   0.316080 0.365772 0.994413 -0.229825
C10   C     C_R   0.435581 0.481556 0.974243 0.036008
C11   C     C_R   0.468330 0.530799 0.876425 -0.069905
C12   C     C_R   0.524161 0.552015 0.050428 0.074401
C13   C     C_R   0.607352 0.686842 0.039024 -0.064735
C14   C     C_R   0.608904 0.741971 0.949175 -0.118501
C15   C     C_R   0.580514 0.658000 0.865328 0.264778
C16   C     C_R   0.532372 0.492511 0.136561 -0.202812
C17   C     C_R   0.710514 0.695881 0.195567 0.205511
C18   C     C_R   0.377447 0.458696 0.799172 -0.213427
H2    H     H_    0.469820 0.390163 0.149586 0.181049
H3    H     H_    0.285960 0.327654 0.068303 0.205753
H4    H     H_    0.352362 0.850816 0.548803 0.189380
C19   C     C_2   0.581136 0.888343 0.523792 0.208702
C20   C     C_2   0.462648 0.924316 0.544324 -0.240405
C21   C     C_2   0.410484 0.111286 0.494278 0.092647
C22   C     C_2   0.471978 0.061506 0.558326 0.280333
H5    H     H_    0.124916 0.564807 0.574485 0.166706
H6    H     H_    0.847518 0.378415 0.474684 0.173974
N1    N     N_2   0.845330 0.551960 0.543750 -0.050223
C23   C     C_2   0.911816 0.472063 0.507629 0.119208
N2    N     N_2   0.154690 0.448120 0.456210 -0.077786
C24   C     C_2   0.073672 0.501149 0.513760 0.107049
N3    N     N_R   0.807676 0.767210 0.268204 0.154905
O9    O     O_R   0.916770 0.732431 0.282457 -0.220357
O10   O     O_R   0.801490 0.877279 0.308164 -0.235315
N4    N     N_R   0.325565 0.029739 0.417865 0.128676
O11   O     O_R   0.209343 0.048149 0.395973 -0.175600
O12   O     O_R   0.373857 0.949277 0.361546 -0.294481
N5    N     N_R   0.728554 0.984053 0.513577 0.187490
O13   O     O_R   0.836203 0.959670 0.544128 -0.195817
O14   O     O_R   0.757423 0.092801 0.468577 -0.291528
N6    N     N_R   0.099080 0.375319 0.371270 0.255056
O15   O     O_R   0.146940 0.283064 0.335691 -0.212080
O16   O     O_R   0.027768 0.417064 0.314983 -0.314887
N7    N     N_R   0.937827 0.682767 0.553708 0.268872
O17   O     O_R   0.958587 0.762292 0.482339 -0.194898
O18   O     O_R   0.014073 0.723671 0.629847 -0.274053
N8    N     N_R   0.789377 0.894741 0.099173 0.169820
O19   O     O_R   0.930567 0.933880 0.103004 -0.183946
O20   O     O_R   0.727802 0.981084 0.095621 -0.253653
S1    S     S_3+6 0.106350 0.271670 0.744165 0.106222
O21   O     O_2   0.057081 0.374694 0.709902 -0.276320
O22   O     O_2   0.167240 0.209039 0.655897 -0.239807
O23   O     O_3   0.956004 0.155993 0.797559 -0.416671
H7    H     H_    0.899750 0.108257 0.741597 0.422337
N9    N     N_R   0.104224 0.182795 0.951192 0.189480
O24   O     O_R   0.008338 0.187577 0.025096 -0.215325
O25   O     O_R   0.107486 0.069532 0.916465 -0.208670
S2    S     S_3+6 0.747695 0.683874 0.789986 0.083673
O26   O     O_2   0.744552 0.752700 0.699449 -0.211043
O27   O     O_2   0.876465 0.771000 0.843393 -0.197070
O28   O     O_3   0.772809 0.540916 0.759773 -0.449109
H8    H     H_    0.771286 0.503388 0.824343 0.366459
N10   N     N_R   0.535628 0.135670 0.645349 0.151829
O29   O     O_R   0.479361 0.216666 0.693219 -0.348336
O30   O     O_R   0.626150 0.101327 0.689266 -0.291038

loop_
_geom_bond_atom_site_label_1
_geom_bond_atom_site_label_2
_geom_bond_distance
_ccdc_geom_bond_type
N10   O30   1.300978 A    
S2    O28   1.683470 S    
N9    O25   1.301270 A    
N3    O9    1.300245 A    
O6    C3    1.292683 A    
C7    S1    1.795672 S    
Cu2   N1    2.011022 S    
C12   C16   1.403406 A    
O4    Cu2   1.966026 S    
N2    C24   1.301512 D    
C21   N4    1.443617 S    
N2    N6    1.395119 S    
C21   C22   1.361634 D    
Cu2   O8    1.972795 S    
N1    N7    1.394919 S    
O23   H7    0.990476 S    
S1    O21   1.501797 D    
N7    O17   1.298836 A    
C10   C12   1.420918 A    
C19   C20   1.351777 D    
C14   C15   1.391718 A    
N6    O16   1.302749 A    
Cu1   Cu2   2.676957 S    
C7    C18   1.441275 A    
C10   C11   1.424471 A    
C9    C10   1.397260 A    
C16   H2    1.080311 S    
Cu1   O7    1.966027 S    
N3    O10   1.300558 A    
C4    C6    1.457758 S    
C5    C17   1.405408 A    
O4    C2    1.297836 A    
C11   C18   1.447988 A    
C22   N10   1.447699 S    
O3    Cu1   1.972796 S    
Cu2   O6    1.928634 S    
C5    C13   1.414094 A    
H6    C23   1.083298 S    
O8    C4    1.296521 A    
C3    C21   1.468992 S    
C20   C22   1.469343 S    
N7    O18   1.301425 A    
S2    O26   1.496853 D    
C5    N8    1.434000 S    
N4    O12   1.301637 A    
S1    O23   1.682530 S    
S2    O27   1.505743 D    
N10   O29   1.300984 A    
C1    C19   1.475508 S    
C12   C13   1.412965 A    
C19   N5    1.443657 S    
C6    C16   1.392845 A    
H5    C24   1.081341 S    
N1    C23   1.305106 D    
C2    C18   1.499594 S    
N9    O24   1.300529 A    
C13   C14   1.395266 A    
C8    N9    1.427849 S    
O3    C2    1.308406 A    
N5    O13   1.300096 A    
C11   C15   1.432163 A    
H1    C14   1.082776 S    
Cu1   O5    1.929395 S    
C15   S2    1.766676 S    
O5    C3    1.294874 A    
N4    O11   1.300758 A    
C7    C8    1.407740 A    
O2    C1    1.297856 A    
C17   N3    1.432233 S    
N5    O14   1.301592 A    
N8    O19   1.300958 A    
O1    Cu1   1.928632 S    
C6    C17   1.405092 A    
N8    O20   1.301083 A    
O7    C4    1.287797 A    
O28   H8    0.990558 S    
S1    O22   1.501153 D    
O2    Cu2   1.929392 S    
C8    C9    1.382194 A    
Cu1   N2    2.011173 S    
N6    O15   1.299371 A    
C23   C24   1.515735 S    
O1    C1    1.294084 A    
C9    H3    1.079621 S    
H4    C20   1.087277 S    
