data_mof_unit_12111.cif
_audit_creation_date              2012-12-11T14:50:43-0500
_audit_creation_method            fapswitch 2.2
_symmetry_space_group_name_H-M    P1
_symmetry_Int_Tables_number       1
_space_group_crystal_system       triclinic
_cell_length_a                    10.967389
_cell_length_b                    11.288392
_cell_length_c                    18.777364
_cell_angle_alpha                 89.319325
_cell_angle_beta                  88.868263
_cell_angle_gamma                 60.619226
_cell_volume                      2025.30618764

loop_
_atom_site_label
_atom_site_type_symbol
_atom_type_description
_atom_site_fract_x
_atom_site_fract_y
_atom_site_fract_z
_atom_type_partial_charge
C1    C     C_R   0.280925 0.627399 0.616419 0.550631
C2    C     C_3   0.637987 0.585624 0.801282 0.009280
C3    C     C_3   0.708737 0.674408 0.809136 0.003953
C4    C     C_3   0.682338 0.641115 0.673179 0.056858
C5    C     C_3   0.839079 0.611546 0.683753 0.368208
C6    C     C_3   0.647171 0.547422 0.722337 -0.025328
C7    C     C_R   0.795725 0.100982 0.698325 0.259298
C8    C     C_R   0.804627 0.103049 0.773017 0.234553
C9    C     C_R   0.686467 0.134376 0.816375 0.016736
C10   C     C_R   0.558900 0.158310 0.782370 0.268435
C11   C     C_R   0.552013 0.156262 0.708718 0.176426
C12   C     C_R   0.656054 0.618930 0.599551 0.628197
C13   C     C_R   0.664577 0.147719 0.667494 -0.044715
C14   C     C_R   0.277695 0.525396 0.740010 0.214053
C15   C     C_R   0.267871 0.536449 0.816132 0.162967
C16   C     C_R   0.225678 0.660695 0.847727 -0.015959
C17   C     C_R   0.231238 0.761736 0.806834 -0.061232
C18   C     C_R   0.226141 0.758719 0.733120 0.234067
C19   C     C_R   0.256328 0.637490 0.696867 0.015663
C20   C     C_R   0.722182 0.523749 0.267291 0.133196
C21   C     C_R   0.702557 0.542187 0.194161 0.121003
C22   C     C_R   0.638822 0.673703 0.165755 -0.051096
C23   C     C_R   0.629306 0.221260 0.599656 0.547399
C24   C     C_R   0.564567 0.787000 0.211484 0.214075
C25   C     C_R   0.578207 0.770015 0.285048 0.231055
C26   C     C_R   0.655176 0.638173 0.313875 -0.053457
C27   C     C_R   0.554737 0.291316 0.274023 -0.110269
C28   C     C_R   0.563525 0.262566 0.202440 -0.140117
C29   C     C_R   0.660297 0.133497 0.179164 0.081063
C30   C     C_R   0.743961 0.028756 0.227203 0.327241
C31   C     C_R   0.736934 0.057911 0.300107 0.264250
C32   C     C_R   0.641440 0.190709 0.322434 0.051969
C33   C     C_R   0.198917 0.759678 0.283167 0.208840
C34   C     C_R   0.224892 0.649130 0.400456 0.525519
C35   C     C_R   0.217323 0.736074 0.210907 0.235179
C36   C     C_R   0.161752 0.661151 0.179804 -0.078278
C37   C     C_R   0.125654 0.579719 0.222403 -0.111644
C38   C     C_R   0.132446 0.582489 0.296253 0.189499
C39   C     C_R   0.171995 0.671908 0.327682 -0.034325
C40   C     C_R   0.702841 0.097442 0.893820 0.600108
C41   C     C_R   0.727989 0.690872 0.886821 0.606707
C42   C     C_R   0.130236 0.703380 0.911452 0.589985
C43   C     C_R   0.675840 0.102621 0.104579 0.610814
C44   C     C_R   0.691959 0.691045 0.096366 0.582220
C45   C     C_R   0.640917 0.615862 0.390062 0.538418
C46   C     C_R   0.095950 0.707570 0.110975 0.555038
C47   C     C_R   0.617806 0.229826 0.395696 0.519587
C48   C     C_3   0.605259 0.814874 0.772583 0.411406
C49   C     C_3   0.577271 0.790166 0.693692 0.451051
C50   C     C_3   0.857315 0.611244 0.767114 0.283717
Cr1   Cr    Cr6+3 0.392930 0.397900 0.502230 1.157711
Cr2   Cr    Cr6+3 0.398240 0.708600 0.501260 1.139084
Cr3   Cr    Cr6+3 0.708800 0.393470 0.496460 1.148432
Cr4   Cr    Cr6+3 0.937620 0.938540 0.007640 1.172809
Cr5   Cr    Cr6+3 0.625150 0.937450 0.994520 1.168880
Cr6   Cr    Cr6+3 0.937990 0.625080 0.001190 1.171768
H1    H     H_    0.213743 0.854531 0.831681 0.230366
H2    H     H_    0.479933 0.392892 0.292035 0.128949
H3    H     H_    0.497377 0.341095 0.165222 0.145983
H4    H     H_    0.081641 0.522006 0.198984 0.208554
H5    H     H_    0.524869 0.648892 0.814432 0.168084
H6    H     H_    0.546252 0.554443 0.707223 0.126289
O1    O     O_R   0.507430 0.255570 0.581420 -0.438006
O2    O     O_R   0.524460 0.695920 0.424060 -0.479170
O3    O     O_R   0.736530 0.504260 0.414810 -0.456014
O4    O     O_R   0.691460 0.277160 0.422180 -0.484678
O5    O     O_3   0.499990 0.499990 0.499980 -0.346541
O6    O     O_R   0.089490 0.825610 0.930610 -0.512840
O7    O     O_R   0.818370 0.054540 0.929880 -0.458747
O8    O     O_R   0.605870 0.077310 0.915530 -0.432500
O9    O     O_R   0.646440 0.806700 0.917570 -0.477624
O10   O     O_R   0.837200 0.593290 0.915250 -0.412072
O11   O     O_R   0.065330 0.635370 0.931590 -0.425375
O12   O     O_R   0.280190 0.527390 0.578910 -0.423466
O13   O     O_R   0.068300 0.828790 0.091860 -0.441592
O14   O     O_R   0.798730 0.057480 0.079370 -0.439906
O15   O     O_R   0.584680 0.080480 0.076790 -0.475884
O16   O     O_R   0.626790 0.809640 0.067050 -0.472335
O17   O     O_R   0.816010 0.596460 0.076500 -0.451319
O18   O     O_R   0.045680 0.638310 0.081070 -0.506264
O19   O     O_3   0.833590 0.833690 0.001120 -0.328658
O20   O     O_R   0.260310 0.739740 0.584580 -0.492708
O21   O     O_R   0.532250 0.695150 0.573830 -0.447455
O22   O     O_R   0.744930 0.503430 0.576380 -0.455055
O23   O     O_R   0.699250 0.276390 0.571950 -0.468374
O24   O     O_R   0.499020 0.256400 0.419850 -0.481936
O25   O     O_R   0.272400 0.528160 0.429140 -0.492740
O26   O     O_R   0.251910 0.740570 0.423020 -0.462023
O27   O     O_3   0.665199 0.897500 0.771375 -0.703981
H7    H     H_    0.685436 0.908621 0.820710 0.370460
Br1   Br    Br    0.782157 0.364317 0.708506 -0.316047
Br2   Br    Br    0.992090 0.428088 0.803420 -0.234663
Br3   Br    Br    0.996128 0.446569 0.636361 -0.247527
O28   O     O_3   0.908926 0.081564 0.656956 -0.589885
H8    H     H_    0.898002 0.054286 0.608503 0.323542
Br4   Br    Br    0.971580 0.088802 0.812799 -0.238124
O29   O     O_3   0.457313 0.145675 0.821124 -0.596869
H9    H     H_    0.367626 0.183180 0.796517 0.376555
Br5   Br    Br    0.394006 0.143662 0.665580 -0.352254
O30   O     O_3   0.286812 0.415342 0.706782 -0.620301
H10   H     H_    0.244399 0.376166 0.739411 0.391931
Br6   Br    Br    0.300608 0.394621 0.882721 -0.376937
O31   O     O_3   0.478367 0.879281 0.812473 -0.643993
H11   H     H_    0.412637 0.963649 0.787446 0.395738
O32   O     O_3   0.173665 0.881509 0.699231 -0.582185
H12   H     H_    0.107211 0.882281 0.664595 0.383471
Br7   Br    Br    0.854122 0.340228 0.297637 -0.293811
Br8   Br    Br    0.765552 0.386432 0.131610 -0.386788
Br9   Br    Br    0.440767 0.969052 0.178045 -0.258277
O33   O     O_3   0.518768 0.885132 0.327106 -0.589653
H13   H     H_    0.575042 0.866512 0.370631 0.342213
O34   O     O_3   0.828394 0.899045 0.200912 -0.687850
H14   H     H_    0.869819 0.834021 0.240758 0.356424
O35   O     O_3   0.821923 0.955858 0.346745 -0.712827
H15   H     H_    0.808889 0.991878 0.395714 0.334366
Br10  Br    Br    0.197985 0.923467 0.314176 -0.198917
O36   O     O_3   0.441222 0.808473 0.691503 -0.671381
H16   H     H_    0.377313 0.902984 0.675901 0.426841
O37   O     O_3   0.274375 0.800728 0.170869 -0.602509
H17   H     H_    0.312698 0.749414 0.125878 0.327792
O38   O     O_3   0.091285 0.503552 0.335399 -0.614213
H18   H     H_    0.058770 0.544930 0.383093 0.352186
O39   O     O_3   0.587916 0.875158 0.640414 -0.615013
H19   H     H_    0.649279 0.911607 0.653728 0.403388
Br11  Br    Br    0.946199 0.718770 0.786227 -0.521079
O40   O     O_3   0.851360 0.717831 0.650284 -0.690472
H20   H     H_    0.951424 0.691855 0.643809 0.373511
Br12  Br    Br    0.684871 0.439012 0.871565 -0.368735

loop_
_geom_bond_atom_site_label_1
_geom_bond_atom_site_label_2
_ccdc_geom_bond_type
O40   H20   S    
C10   O29   S    
C35   O37   S    
C35   C36   A    
C8    Br4   S    
Cr1   O12   S    
O35   H15   S    
O39   H19   S    
Cr5   O8    S    
C13   C23   S    
C33   C39   A    
Cr6   O17   S    
C40   O8    A    
Cr3   O22   S    
C1    O12   A    
C36   C37   A    
C33   Br10  S    
C37   C38   A    
C3    C41   S    
C38   C39   A    
Cr5   O15   S    
Cr4   O6    S    
C15   C16   A    
C49   O39   S    
C3    C48   S    
C12   O22   A    
C11   Br5   S    
C18   C19   A    
O33   H13   S    
C46   O13   A    
C26   C45   S    
C49   O36   S    
C8    C9    A    
Cr6   O10   S    
C5    O40   S    
C36   C46   S    
Cr5   O19   S    
Cr3   O3    S    
C9    C10   A    
C47   O4    A    
C2    H5    S    
C41   O9    A    
C20   Br7   S    
C23   O1    A    
C21   C22   A    
C29   C43   S    
C42   O6    A    
C2    C6    S    
Cr1   O24   S    
O34   H14   S    
C3    C50   S    
O29   H9    S    
C22   C44   S    
C1    C19   S    
C40   O7    A    
C34   C39   S    
C21   Br8   S    
C47   O24   A    
Cr2   O26   S    
Cr1   O1    S    
C24   C25   A    
C4    C6    S    
Cr2   O2    S    
Cr1   O25   S    
Cr5   O16   S    
C16   C17   A    
C34   O26   A    
C1    O20   A    
C48   O31   S    
C9    C40   S    
C38   O38   S    
C12   O21   A    
C30   O34   S    
Cr2   O21   S    
C29   C30   A    
C31   C32   A    
C17   C18   A    
C50   Br11  S    
Cr1   O5    S    
Cr2   O20   S    
Cr3   O4    S    
O38   H18   S    
Cr2   O5    S    
C25   O33   S    
C41   O10   A    
Cr4   O14   S    
C50   Br2   S    
C48   C49   S    
C48   O27   S    
C45   O3    A    
C32   C47   S    
C22   C24   A    
C5    C50   S    
C4    C12   S    
C16   C42   S    
O31   H11   S    
C28   H3    S    
C43   O14   A    
C7    O28   S    
C28   C29   A    
C42   O11   A    
Cr6   O11   S    
C31   O35   S    
C27   C32   A    
C14   C19   A    
C44   O17   A    
C24   Br9   S    
C4    C5    S    
C27   H2    S    
C5    Br3   S    
O37   H17   S    
C14   O30   S    
C43   O15   A    
O32   H12   S    
C45   O2    A    
Cr6   O18   S    
C4    C49   S    
C6    H6    S    
C44   O16   A    
C2    C3    S    
C25   C26   A    
C18   O32   S    
O36   H16   S    
C46   O18   A    
C11   C13   A    
C30   C31   A    
Cr4   O7    S    
C20   C26   A    
O30   H10   S    
C33   C35   A    
Cr6   O19   S    
C34   O25   A    
C15   Br6   S    
O28   H8    S    
Cr3   O5    S    
C37   H4    S    
C7    C8    A    
C10   C11   A    
Cr4   O13   S    
C7    C13   A    
C20   C21   A    
C23   O23   A    
C27   C28   A    
C14   C15   A    
Cr3   O23   S    
O27   H7    S    
Cr4   O19   S    
Cr5   O9    S    
C6    Br1   S    
C17   H1    S    
C2    Br12  S    
