data_mof_unit_56376.cif
_audit_creation_date              2012-12-10T17:20:53-0500
_audit_creation_method            fapswitch 2.2
_symmetry_space_group_name_H-M    P1
_symmetry_Int_Tables_number       1
_space_group_crystal_system       triclinic
_cell_length_a                    14.340025
_cell_length_b                    10.781391
_cell_length_c                    9.607878
_cell_angle_alpha                 90.526649
_cell_angle_beta                  89.975358
_cell_angle_gamma                 92.381293
_cell_volume                      1484.08453745

loop_
_atom_site_label
_atom_site_type_symbol
_atom_type_description
_atom_site_fract_x
_atom_site_fract_y
_atom_site_fract_z
_atom_type_partial_charge
C1    C     C_R   0.496138 0.262582 0.499493 0.793984
C2    C     C_1   0.771158 0.500362 0.499920 -0.192369
C3    C     C_R   0.350861 0.122751 0.653423 -0.202675
C4    C     C_R   0.285056 0.055161 0.731824 -0.132308
C5    C     C_R   0.286161 0.926323 0.734350 -0.129093
C6    C     C_R   0.353032 0.864271 0.658412 -0.180609
C7    C     C_R   0.421989 0.930962 0.580704 0.090429
C8    C     C_R   0.421043 0.062111 0.578622 0.096591
C9    C     C_R   0.488829 0.128467 0.498298 -0.093831
C10   C     C_R   0.552225 0.066289 0.415772 -0.191508
C11   C     C_R   0.552829 0.938446 0.417061 -0.210537
C12   C     C_R   0.331205 0.499703 0.500053 0.788787
C13   C     C_R   0.490164 0.870666 0.501077 -0.101487
C14   C     C_R   0.620942 0.668258 0.145313 -0.184498
C15   C     C_R   0.676556 0.754994 0.074743 -0.314358
C16   C     C_R   0.672644 0.761067 0.930583 0.467902
C17   C     C_R   0.618625 0.671720 0.858169 -0.191453
C18   C     C_R   0.558064 0.584471 0.926209 0.119448
C19   C     C_R   0.558433 0.583863 0.075492 0.128158
C20   C     C_R   0.444146 0.419058 0.073473 0.521764
C21   C     C_R   0.445676 0.418535 0.924743 -0.167599
C22   C     C_R   0.496944 0.737186 0.500522 0.770606
C23   C     C_R   0.668796 0.500277 0.499960 0.790366
C24   C     C_1   0.228867 0.499924 0.500110 -0.220252
C25   C     C_1   0.143436 0.499997 0.500009 -0.013453
C26   C     C_1   0.042750 0.500101 0.499909 0.000265
C27   C     C_1   0.957301 0.500219 0.499881 0.002712
C28   C     C_1   0.856603 0.500339 0.499895 -0.003760
Cu1   Cu    Cu3+1 0.499990 0.499990 0.640660 0.912403
Cu2   Cu    Cu3+1 0.500010 0.500010 0.359340 0.964148
H1    H     H_    0.603277 0.117247 0.352858 0.148948
H2    H     H_    0.627526 0.675227 0.748665 0.212314
H3    H     H_    0.403593 0.350122 0.867375 0.140059
H4    H     H_    0.344823 0.222252 0.650400 0.137128
H5    H     H_    0.232120 0.102902 0.789207 0.131871
H6    H     H_    0.234018 0.874039 0.793642 0.136950
H7    H     H_    0.348555 0.764064 0.659621 0.155257
H8    H     H_    0.604203 0.892213 0.354745 0.142683
H9    H     H_    0.630882 0.671548 0.254626 0.209109
H10   H     H_    0.723927 0.816338 0.133363 0.147541
N1    N     N_R   0.500820 0.501210 0.147910 -0.216754
N2    N     N_R   0.500850 0.501290 0.852040 -0.192163
O1    O     O_R   0.499990 0.319640 0.618810 -0.587166
O2    O     O_R   0.500000 0.319660 0.381240 -0.515938
O3    O     O_R   0.376050 0.499990 0.618810 -0.570784
O4    O     O_R   0.376060 0.500010 0.381240 -0.531899
O5    O     O_R   0.500000 0.680340 0.618760 -0.600235
O6    O     O_R   0.500010 0.680360 0.381190 -0.586357
O7    O     O_R   0.623940 0.499990 0.618760 -0.565895
O8    O     O_R   0.623950 0.500010 0.381190 -0.578256
O9    O     O_3   0.727168 0.846560 0.855955 -0.613360
C29   C     C_3   0.705405 0.969915 0.892228 0.054433
H11   H     H_    0.759858 0.032904 0.845453 0.170194
H12   H     H_    0.708813 0.987848 0.006278 0.130982
C30   C     C_3   0.610237 0.004328 0.833840 -0.381285
H13   H     H_    0.610892 0.993696 0.718821 0.235119
H14   H     H_    0.554008 0.941481 0.876250 0.224449
C31   C     C_3   0.588374 0.137764 0.871982 -0.841718
H15   H     H_    0.590061 0.151425 0.986716 0.252491
H16   H     H_    0.517487 0.157840 0.834597 0.272818
H17   H     H_    0.639651 0.203832 0.822790 0.256656
O10   O     O_3   0.392961 0.328413 0.144606 -0.550181
C32   C     C_3   0.296694 0.339951 0.119676 0.053140
H18   H     H_    0.278281 0.313413 0.010695 0.116709
H19   H     H_    0.275146 0.436459 0.141161 0.147921
C33   C     C_3   0.241843 0.252485 0.215841 -0.744035
H20   H     H_    0.259840 0.273820 0.326109 0.243225
H21   H     H_    0.165836 0.263115 0.200724 0.194488
H22   H     H_    0.258703 0.154862 0.192363 0.243773

loop_
_geom_bond_atom_site_label_1
_geom_bond_atom_site_label_2
_ccdc_geom_bond_type
C11   H8    S    
C22   O6    A    
C30   H13   S    
C32   H19   S    
Cu2   N1    S    
Cu1   Cu2   S    
Cu1   N2    S    
C9    C10   A    
C12   C24   S    
C1    O2    A    
C33   H21   S    
C24   C25   T    
C16   O9    S    
Cu2   O4    S    
C31   H17   S    
C18   N2    A    
C17   C18   A    
Cu2   O8    S    
C32   C33   S    
C7    C8    A    
Cu1   O7    S    
C29   H11   S    
C11   C13   A    
Cu2   O2    S    
C26   C27   T    
O10   C32   S    
Cu1   O5    S    
C20   N1    A    
C4    C5    A    
C10   H1    S    
Cu2   O6    S    
C29   C30   S    
C29   H12   S    
C13   C22   S    
C33   H20   S    
C6    C7    A    
C30   H14   S    
C3    C8    A    
C20   O10   S    
C5    C6    A    
C14   H9    S    
C6    H7    S    
C22   O5    A    
C15   H10   S    
C23   O7    A    
C33   H22   S    
C21   H3    S    
C10   C11   A    
C31   H16   S    
O9    C29   S    
C5    H6    S    
C19   N1    A    
C7    C13   A    
C1    C9    S    
C20   C21   A    
C12   O4    A    
C18   C19   A    
C30   C31   S    
C2    C23   S    
C17   H2    S    
C4    H5    S    
C14   C15   A    
C8    C9    A    
C23   O8    A    
C2    C28   T    
C21   N2    A    
C3    H4    S    
C25   C26   S    
C32   H18   S    
C31   H15   S    
C14   C19   A    
C1    O1    A    
Cu1   O1    S    
C3    C4    A    
C15   C16   A    
C16   C17   A    
Cu1   O3    S    
C12   O3    A    
C27   C28   S    
