data_mof_unit_36085.cif
_audit_creation_date              2013-03-05T16:43:30-0500
_audit_creation_method            fapswitch 2.2
_symmetry_space_group_name_H-M    P1
_symmetry_Int_Tables_number       1
_space_group_crystal_system       triclinic
_cell_length_a                    10.481098
_cell_length_b                    10.595333
_cell_length_c                    9.90438
_cell_angle_alpha                 89.933613
_cell_angle_beta                  91.003006
_cell_angle_gamma                 90.298843
_cell_volume                      1099.70445273

loop_
_atom_site_label
_atom_site_type_symbol
_atom_site_description
_atom_site_fract_x
_atom_site_fract_y
_atom_site_fract_z
_atom_type_partial_charge
O1    O     O_R   0.500020 0.316790 0.614690 -0.586640
O2    O     O_R   0.500000 0.316760 0.385350 -0.634044
C1    C     C_R   0.500907 0.260602 0.499726 0.872855
O3    O     O_R   0.313960 0.499990 0.614650 -0.622735
O4    O     O_R   0.313940 0.499950 0.385310 -0.580612
C2    C     C_R   0.257405 0.501374 0.499161 0.861505
Zn1   Zn    Zn3+2 0.500010 0.500020 0.653130 0.960738
Zn2   Zn    Zn3+2 0.499990 0.499980 0.346870 0.974293
O5    O     O_R   0.500000 0.683240 0.614650 -0.619561
O6    O     O_R   0.499980 0.683210 0.385310 -0.628415
O7    O     O_R   0.686060 0.500050 0.614690 -0.629650
O8    O     O_R   0.686040 0.500010 0.385350 -0.621509
C3    C     C_R   0.500299 0.739497 0.499771 0.859549
C4    C     C_R   0.742563 0.500522 0.501196 0.847797
C5    C     C_3   0.043314 0.392910 0.552492 -0.192708
C6    C     C_3   0.955803 0.405425 0.426383 -0.185541
H1    H     H_    0.914241 0.326149 0.366841 0.127906
H2    H     H_    0.083710 0.303927 0.593879 0.154109
C7    C     C_3   0.877617 0.501685 0.503529 0.046142
C8    C     C_3   0.962457 0.489268 0.629847 -0.145020
C9    C     C_3   0.044273 0.599431 0.576271 -0.176436
C10   C     C_3   0.956444 0.612011 0.450340 -0.197054
C11   C     C_3   0.037261 0.515873 0.372905 -0.129705
C12   C     C_3   0.122270 0.502984 0.498719 0.030092
H3    H     H_    0.926929 0.478862 0.734181 0.147368
H4    H     H_    0.085343 0.678351 0.636847 0.146127
H5    H     H_    0.915892 0.701009 0.409207 0.133387
H6    H     H_    0.073556 0.530286 0.269751 0.174141
C13   C     C_R   0.611579 0.064941 0.537707 0.071984
C14   C     C_R   0.502471 0.128842 0.495908 -0.005930
C15   C     C_R   0.401671 0.065122 0.430849 -0.173249
H7    H     H_    0.321517 0.115807 0.386777 0.133542
C16   C     C_R   0.401329 0.934562 0.431046 -0.196048
H8    H     H_    0.321119 0.883434 0.386760 0.144519
C17   C     C_R   0.501411 0.871434 0.496923 -0.048824
C18   C     C_R   0.610293 0.936149 0.539813 0.088505
C19   C     C_3   0.685773 0.930293 0.668973 -0.458274
C20   C     C_3   0.689648 0.073815 0.664819 -0.442562
H9    H     H_    0.629626 0.892127 0.754195 0.231069
H10   H     H_    0.780823 0.886433 0.655387 0.187616
H11   H     H_    0.638462 0.119627 0.748383 0.269554
H12   H     H_    0.786590 0.112596 0.646380 0.184634
C21   C     C_R   0.472530 0.392437 0.070195 0.134746
N1    N     N_R   0.499140 0.499140 0.142800 -0.086725
C22   C     C_R   0.536851 0.603774 0.072400 -0.096622
H13   H     H_    0.564997 0.688323 0.126458 0.152567
C23   C     C_R   0.536014 0.604081 0.928778 -0.107860
H14   H     H_    0.563107 0.688960 0.875642 0.151146
N2    N     N_R   0.499140 0.499180 0.857150 -0.118535
C24   C     C_R   0.477282 0.390934 0.928151 0.077326
C25   C     C_3   0.360610 0.310097 0.917328 0.032278
C26   C     C_3   0.352701 0.314508 0.071296 0.195375
H15   H     H_    0.281612 0.357426 0.861026 0.139833
H16   H     H_    0.367296 0.223695 0.126284 0.122525
N3    N     N_R   0.387402 0.183414 0.866865 0.201266
O9    O     O_R   0.471396 0.111722 0.927162 -0.450985
O10   O     O_R   0.319071 0.137666 0.767372 -0.410558
O11   O     O_3   0.245926 0.384029 0.113552 -0.621703
C27   C     C_3   0.134148 0.307814 0.105827 0.067220
H17   H     H_    0.097489 0.296160 0.209462 0.158558
H18   H     H_    0.149457 0.210647 0.065536 0.138458
C28   C     C_3   0.033081 0.372773 0.016599 -0.353039
H19   H     H_    0.017507 0.470745 0.051956 0.225530
H20   H     H_    0.067005 0.377732 0.911227 0.214909
C29   C     C_3   0.906173 0.301421 0.017231 -0.936340
H21   H     H_    0.918720 0.203788 0.979113 0.270001
H22   H     H_    0.835881 0.350510 0.950692 0.264469
H23   H     H_    0.867853 0.297751 0.120955 0.263248

loop_
_geom_bond_atom_site_label_1
_geom_bond_atom_site_label_2
_geom_bond_distance
_ccdc_geom_bond_type
C13   C20   1.492234 S    
C5    H2    1.110571 S    
C21   N1    1.365509 A    
C15   C16   1.383312 A    
C21   C24   1.408724 A    
C3    C17   1.398161 S    
C19   C20   1.521517 S    
O2    C1    1.278885 A    
C1    C14   1.396784 S    
C13   C14   1.388664 A    
C15   H7    1.084453 S    
C7    C8    1.528123 S    
C29   H22   1.110785 S    
C14   C15   1.398905 A    
Zn2   O8    1.980344 S    
C29   H23   1.110138 S    
C2    C12   1.416487 S    
N3    O9    1.302378 A    
N3    O10   1.300646 A    
C24   C25   1.491688 S    
C27   H17   1.108811 S    
C23   N2    1.369575 A    
O1    Zn1   1.978796 S    
C22   H13   1.081203 S    
N1    C22   1.369220 A    
C29   H21   1.110840 S    
Zn1   O7    1.993355 S    
C13   C18   1.364735 A    
C28   H19   1.109695 S    
C26   O11   1.412759 S    
O3    Zn1   1.980343 S    
O4    C2    1.283118 A    
O3    C2    1.279172 A    
C5    C12   1.527288 S    
C16   C17   1.398494 A    
C9    H4    1.110320 S    
O8    C4    1.282058 A    
C20   H12   1.111996 S    
C6    C11   1.543665 S    
C25   N3    1.463106 S    
C10   H5    1.110415 S    
C22   C23   1.422368 A    
C6    C7    1.525785 S    
C5    C8    1.543082 S    
C19   H9    1.111940 S    
O7    C4    1.279676 A    
C21   C26   1.499632 S    
C27   H18   1.117951 S    
O4    Zn2   1.993355 S    
C11   H6    1.106561 S    
C8    H3    1.109708 S    
C11   C12   1.525558 S    
C25   C26   1.529434 S    
C23   H14   1.080674 S    
Zn2   N1    2.021080 S    
C7    C10   1.526515 S    
C16   H8    1.084198 S    
C8    C9    1.543813 S    
Zn1   N2    2.020882 S    
C20   H11   1.107989 S    
Zn2   O6    1.978796 S    
N2    C24   1.365075 A    
C9    C12   1.528083 S    
Zn1   O5    1.977901 S    
C19   H10   1.111849 S    
O5    C3    1.283916 A    
C10   C11   1.541692 S    
C18   C19   1.493686 S    
C27   C28   1.533048 S    
C28   H20   1.109526 S    
C28   C29   1.526632 S    
O1    C1    1.285700 A    
O11   C27   1.420436 S    
C9    C10   1.543231 S    
C4    C7    1.415290 S    
C5    C6    1.542628 S    
O2    Zn2   1.977900 S    
C17   C18   1.388701 A    
C26   H16   1.114999 S    
C6    H1    1.109686 S    
C25   H15   1.111530 S    
O6    C3    1.281514 A    
