data_mof_unit_31446.cif
_audit_creation_date              2012-12-11T21:14:45-0500
_audit_creation_method            fapswitch 2.2
_symmetry_space_group_name_H-M    P1
_symmetry_Int_Tables_number       1
_space_group_crystal_system       triclinic
_cell_length_a                    8.246868
_cell_length_b                    18.772053
_cell_length_c                    27.005968
_cell_angle_alpha                 99.217623
_cell_angle_beta                  92.597092
_cell_angle_gamma                 88.154788
_cell_volume                      4121.26692144

loop_
_atom_site_label
_atom_site_type_symbol
_atom_type_description
_atom_site_fract_x
_atom_site_fract_y
_atom_site_fract_z
_atom_type_partial_charge
Ba1   Ba    Ba6+2 0.160810 0.465630 0.521640 1.663171
Ba2   Ba    Ba6+2 0.649380 0.534380 0.478400 1.656929
Br1   Br    Br    0.445438 0.868494 0.597508 -0.684774
C1    C     C_3   0.576486 0.208711 0.658662 -0.373595
C2    C     C_R   0.077191 0.095154 0.451332 0.029976
C3    C     C_R   0.226281 0.072028 0.430369 -0.079211
C4    C     C_3   0.963748 0.269451 0.620106 0.421518
C5    C     C_R   0.287867 0.002256 0.432410 -0.089573
C6    C     C_R   0.200372 0.953816 0.454773 0.027213
C7    C     C_R   0.050817 0.976384 0.476136 0.018499
C8    C     C_R   0.259605 0.883092 0.455407 -0.092860
C9    C     C_R   0.169951 0.833053 0.476070 -0.010001
C10   C     C_R   0.021744 0.856247 0.499056 0.016973
C11   C     C_R   0.962754 0.928091 0.498941 0.009980
C12   C     C_3   0.478787 0.274444 0.646649 0.529377
C13   C     C_R   0.222453 0.760164 0.473898 0.019571
C14   C     C_R   0.126579 0.711764 0.493036 -0.297109
C15   C     C_R   0.985668 0.734259 0.518448 0.019148
C16   C     C_3   0.995872 0.194537 0.633842 -0.326101
C17   C     C_R   0.932794 0.807937 0.522337 -0.060869
C18   C     C_R   0.841092 0.070688 0.496331 0.004547
C19   C     C_R   0.783330 0.142853 0.496885 -0.000591
C20   C     C_R   0.874838 0.191854 0.475105 -0.052914
C21   C     C_R   0.016154 0.165503 0.449846 -0.045370
C22   C     C_R   0.792572 0.834621 0.547868 -0.011650
C23   C     C_3   0.467639 0.314416 0.395151 0.317649
C24   C     C_R   0.727479 0.904213 0.544991 0.012983
C25   C     C_R   0.813943 0.951338 0.520652 -0.027053
C26   C     C_R   0.752226 0.022217 0.518605 0.013625
C27   C     C_R   0.576357 0.927851 0.565256 0.264429
C28   C     C_3   0.840043 0.619022 0.630771 0.291301
C29   C     C_R   0.513996 0.996900 0.561546 -0.088606
C30   C     C_R   0.601517 0.044659 0.539032 -0.010129
C31   C     C_R   0.634331 0.165811 0.519396 -0.038018
C32   C     C_R   0.541451 0.115027 0.537929 -0.105468
C33   C     C_R   0.584995 0.239299 0.523798 -0.019033
C34   C     C_3   0.469055 0.233241 0.378050 -0.391491
C35   C     C_R   0.681620 0.287998 0.505342 -0.293641
C36   C     C_R   0.822944 0.265637 0.480157 0.037139
C37   C     C_R   0.280471 0.456778 0.173496 0.595753
C38   C     C_R   0.209752 0.582346 0.177193 0.576153
C39   C     C_2   0.060394 0.560447 0.273175 -0.082132
C40   C     C_3   0.824826 0.636977 0.687347 -0.356938
C41   C     C_3   0.051355 0.581503 0.329240 -0.048080
C42   C     C_1   0.282112 0.497552 0.336874 0.001423
C43   C     C_2   0.317524 0.497144 0.289320 -0.096798
C44   C     C_2   0.196343 0.526560 0.253874 0.199455
C45   C     C_3   0.846978 0.733418 0.377538 0.376928
C46   C     C_R   0.306748 0.514086 0.099147 -0.080590
C47   C     C_R   0.321833 0.452390 0.122832 -0.035318
C48   C     C_R   0.377551 0.387371 0.095389 -0.059483
C49   C     C_R   0.248721 0.579223 0.126554 -0.024114
C50   C     C_2   0.159460 0.535647 0.358671 -0.286121
C51   C     C_2   0.644882 0.468579 0.636606 -0.283991
C52   C     C_3   0.965639 0.382932 0.369642 0.295390
C53   C     C_R   0.459052 0.442024 0.970821 0.020253
C54   C     C_R   0.371423 0.569439 0.973184 0.020691
C55   C     C_R   0.437099 0.504068 0.946826 0.051282
C56   C     C_3   0.813558 0.807511 0.362710 -0.366413
C57   C     C_R   0.530493 0.379181 0.943460 -0.098920
C58   C     C_R   0.574011 0.376663 0.894160 -0.045476
C59   C     C_R   0.549375 0.436692 0.869705 -0.032003
C60   C     C_R   0.481583 0.500636 0.895876 -0.081770
C61   C     C_R   0.458757 0.561075 0.871136 -0.031716
C62   C     C_R   0.502947 0.556589 0.820620 0.592255
C63   C     C_R   0.591088 0.433397 0.819385 0.623999
C64   C     C_3   0.972490 0.367172 0.312738 -0.361277
C65   C     C_2   0.740356 0.452685 0.724096 -0.081882
C66   C     C_3   0.749679 0.425416 0.668848 -0.042220
C67   C     C_3   0.378286 0.695491 0.351116 0.337599
C68   C     C_1   0.520351 0.508279 0.656046 0.044873
C69   C     C_2   0.483811 0.513427 0.704143 -0.060855
C70   C     C_2   0.602924 0.487042 0.741704 0.214711
C71   C     C_R   0.410783 0.444761 0.021183 0.021116
C72   C     C_R   0.349520 0.510662 0.048044 0.049484
C73   C     C_R   0.330798 0.573201 0.024443 0.020529
C74   C     C_R   0.420729 0.383472 0.045829 -0.097978
C75   C     C_R   0.232432 0.640513 0.103082 -0.060123
C76   C     C_3   0.289970 0.688300 0.603775 0.311466
C77   C     C_R   0.348811 0.628958 0.947029 -0.098976
C78   C     C_3   0.393012 0.719194 0.300338 -0.334218
C79   C     C_R   0.391754 0.624772 0.897342 -0.056902
C80   C     C_R   0.272392 0.637730 0.053346 -0.101252
C81   C     C_3   0.207912 0.748207 0.639520 -0.296164
C82   C     C_R   0.989812 0.047499 0.474758 0.005853
H1    H     H_    0.721136 0.675416 0.696294 0.154260
H2    H     H_    0.354764 0.712095 0.575481 0.070578
H3    H     H_    0.494388 0.167647 0.668285 0.143116
H4    H     H_    0.136531 0.724534 0.666358 0.116299
H5    H     H_    0.126474 0.781746 0.618247 0.096454
H6    H     H_    0.300296 0.782989 0.661675 0.176154
H7    H     H_    0.560349 0.314532 0.635654 -0.059167
H8    H     H_    0.662901 0.224951 0.690914 0.125618
H9    H     H_    0.594977 0.331415 0.403502 0.015374
H10   H     H_    0.397608 0.326389 0.429833 0.057197
H11   H     H_    0.542204 0.219013 0.344181 0.132012
H12   H     H_    0.804743 0.587337 0.703129 0.057219
H13   H     H_    0.523153 0.205321 0.408356 0.054678
H14   H     H_    0.343009 0.214770 0.369004 0.119218
H15   H     H_    0.646822 0.184327 0.626123 0.072350
H16   H     H_    0.942453 0.191057 0.670320 0.123930
H17   H     H_    0.806566 0.734449 0.416330 0.073830
H18   H     H_    0.980487 0.723376 0.377025 -0.082319
H19   H     H_    0.682477 0.822210 0.364800 0.149580
H20   H     H_    0.882919 0.848686 0.388634 0.065024
H21   H     H_    0.851937 0.807569 0.323830 0.119382
H22   H     H_    0.247661 0.690987 0.357694 -0.057741
H23   H     H_    0.938056 0.661385 0.705252 0.122442
H24   H     H_    0.441615 0.642139 0.350205 0.083814
H25   H     H_    0.361990 0.673791 0.270344 0.126554
H26   H     H_    0.519078 0.734849 0.295347 0.150712
H27   H     H_    0.020099 0.271419 0.583823 0.083964
H28   H     H_    0.309375 0.765907 0.297005 0.114453
H29   H     H_    0.296228 0.108137 0.412762 0.065332
H30   H     H_    0.403632 0.985994 0.416117 0.071759
H31   H     H_    0.166601 0.655843 0.490115 0.067598
H32   H     H_    0.375135 0.867618 0.439027 0.105876
H33   H     H_    0.083080 0.199512 0.429829 0.101759
H34   H     H_    0.084360 0.402305 0.385944 0.011445
H35   H     H_    0.730754 0.800719 0.569077 0.155519
H36   H     H_    0.397378 0.013666 0.577120 0.113288
H37   H     H_    0.424871 0.130378 0.553717 0.104470
H38   H     H_    0.830484 0.277835 0.615286 -0.132300
H39   H     H_    0.642675 0.344125 0.508973 0.069378
H40   H     H_    0.434444 0.475975 0.275990 0.117790
H41   H     H_    0.388623 0.338717 0.112263 0.123901
H42   H     H_    0.833429 0.435059 0.749494 0.125591
H43   H     H_    0.627644 0.326828 0.875142 0.131364
H44   H     H_    0.557010 0.330665 0.959078 0.072013
H45   H     H_    0.871882 0.425726 0.379578 0.088710
H46   H     H_    0.459757 0.330810 0.027820 0.071902
H47   H     H_    0.967398 0.580928 0.249010 0.116463
H48   H     H_    0.188857 0.691597 0.123288 0.122628
H49   H     H_    0.296459 0.679976 0.963578 0.070914
H50   H     H_    0.127995 0.182570 0.637099 0.163374
H51   H     H_    0.371490 0.672115 0.879378 0.124764
H52   H     H_    0.365779 0.534870 0.716244 0.125595
H53   H     H_    0.257570 0.687917 0.039027 0.070227
H54   H     H_    0.154954 0.546575 0.399308 0.078070
H55   H     H_    0.653268 0.454454 0.596226 0.081658
H56   H     H_    0.073258 0.328001 0.301676 0.144774
H57   H     H_    0.940785 0.153260 0.604353 0.057675
H58   H     H_    0.723353 0.598764 0.613320 0.023069
H59   H     H_    0.936039 0.576639 0.622704 0.072422
H60   H     H_    0.992399 0.417558 0.297647 0.072349
H61   H     H_    0.855991 0.344276 0.296184 0.129571
H62   H     H_    0.195975 0.652599 0.583904 0.002092
I1    I     I_    0.368732 0.323205 0.714061 -0.352397
N1    N     N_R   0.227816 0.521666 0.200610 -0.423899
N2    N     N_R   0.566380 0.492773 0.794783 -0.422387
O1    O     O_2   0.106080 0.324280 0.466820 -0.462740
O2    O     O_2   0.720259 0.540490 0.325107 -0.496836
O3    O     O_3   0.761995 0.680736 0.344031 -0.589249
O4    O     O_3   0.859130 0.413620 0.470620 -0.489889
O5    O     O_3   0.459240 0.537930 0.559910 -0.478453
O6    O     O_2   0.583120 0.462390 0.379940 -0.461856
O7    O     O_3   0.395522 0.348890 0.356863 -0.628673
O8    O     O_2   0.559624 0.756616 0.480184 -0.471374
O9    O     O_3   0.450145 0.746777 0.388299 -0.610413
O10   O     O_2   0.289890 0.402545 0.193303 -0.595010
O11   O     O_2   0.647698 0.376823 0.797277 -0.578577
O12   O     O_3   0.403823 0.652774 0.631767 -0.626346
O13   O     O_2   0.161214 0.639623 0.200553 -0.618615
O14   O     O_2   0.486694 0.609845 0.799923 -0.599219
O15   O     O_3   0.376230 0.370290 0.556910 -0.461801
O16   O     O_2   0.250361 0.244287 0.518712 -0.495272
O17   O     O_3   0.927685 0.319451 0.387150 -0.639751
O18   O     O_3   0.353874 0.252641 0.610737 -0.599573
O19   O     O_2   0.227190 0.537650 0.620070 -0.476112
O20   O     O_3   0.971110 0.406970 0.583250 -0.490634
O21   O     O_2   0.084409 0.461084 0.674963 -0.468138
O22   O     O_3   0.031253 0.321774 0.657981 -0.542278
O23   O     O_2   0.704230 0.675760 0.533200 -0.441677
O24   O     O_3   0.951180 0.586390 0.529420 -0.495591
O25   O     O_3   0.434080 0.629720 0.443130 -0.481302
O26   O     O_3   0.879810 0.681734 0.612750 -0.637870
O27   O     O_3   0.351080 0.462080 0.440130 -0.479323
O28   O     O_3   0.839200 0.593040 0.416790 -0.481702
P1    P     P_3+3 0.929380 0.335110 0.452880 0.971780
P2    P     P_3+3 0.398530 0.559060 0.613740 1.002699
P3    P     P_3+3 0.960269 0.406948 0.647221 0.994559
P4    P     P_3+3 0.880940 0.664900 0.547160 0.977467
P5    P     P_3+3 0.841684 0.595989 0.352733 0.949218
P6    P     P_3+3 0.394295 0.276300 0.552415 0.947766
P7    P     P_3+3 0.398948 0.442325 0.376718 0.957147
P8    P     P_3+3 0.415708 0.723485 0.446956 0.956823

loop_
_geom_bond_atom_site_label_1
_geom_bond_atom_site_label_2
_ccdc_geom_bond_type
C23   H9    S    
O17   P1    S    
C45   O3    S    
C7    C82   A    
Ba2   O5    S    
C70   N2    S    
Ba1   P1    S    
C43   H40   S    
C81   H5    S    
C52   O17   S    
O24   P4    S    
C76   H2    S    
O27   P7    S    
O4    P1    S    
C52   H34   S    
C42   C43   D    
O26   P4    S    
C51   C66   S    
C56   H20   S    
C28   C40   S    
C56   H19   S    
C54   C73   A    
C25   C26   A    
O7    P7    S    
C63   N2    Am   
C67   H22   S    
Ba2   O23   S    
C74   H46   S    
C2    C3    A    
C31   C32   A    
Ba1   P2    S    
C20   C36   A    
C38   N1    Am   
C17   C22   A    
C15   P4    S    
C16   H50   S    
C26   C30   A    
Ba1   O20   S    
C62   N2    Am   
C77   H49   S    
C4    H27   S    
C23   O7    S    
C67   O9    S    
Ba2   P4    S    
Ba1   O19   S    
C28   H59   S    
Ba1   O5    S    
C67   C78   S    
C3    H29   S    
C5    H30   S    
C12   H7    S    
Ba1   O27   S    
C41   C50   S    
C51   H55   S    
C51   C68   D    
C78   H26   S    
C4    O22   S    
C13   C14   A    
O18   P6    S    
C71   C74   A    
O3    P5    S    
C64   H60   S    
C20   C21   A    
C46   C72   A    
C33   P6    S    
C81   H6    S    
C6    C7    A    
C38   C49   A    
O12   P2    S    
O28   P5    S    
O22   P3    S    
C40   H23   S    
C2    C82   A    
C52   H45   S    
C42   C50   D    
Ba2   O4    S    
C10   C11   A    
C24   C27   A    
C28   H58   S    
O15   P6    S    
C54   C77   A    
Ba1   O4    S    
C39   C41   S    
C49   C75   A    
O8    P8    D    
C73   C80   A    
C34   H13   S    
O21   P3    D    
C14   C15   A    
C28   O26   S    
C61   C62   A    
C9    C13   A    
C19   C31   A    
C18   C82   A    
Ba1   O24   S    
C56   H21   S    
C53   C71   A    
C71   C72   A    
C59   C63   A    
C44   N1    S    
O16   P6    D    
C77   C79   A    
C7    C11   A    
C65   C66   S    
C3    C5    A    
C65   C70   D    
O6    P7    D    
C45   H18   S    
C18   C26   A    
C1    H8    S    
C63   O11   D    
C57   C58   A    
C68   P2    S    
Br1   C27   S    
C72   C73   A    
C48   C74   A    
C59   C60   A    
C67   H24   S    
Ba2   O25   S    
O1    P1    D    
C65   H42   S    
Ba1   O15   S    
C46   C49   A    
C45   H17   S    
C64   H61   S    
C47   C48   A    
C5    C6    A    
C9    C10   A    
O2    P5    D    
C6    C8    A    
C41   P5    S    
C61   C79   A    
C76   H62   S    
C69   H52   S    
Ba2   O27   S    
O23   P4    D    
C46   C47   A    
C16   H57   S    
C4    C16   S    
C38   O13   D    
O20   P3    S    
C76   C81   S    
C12   O18   S    
C81   H4    S    
C76   O12   S    
C8    H32   S    
C22   H35   S    
C34   H14   S    
O5    P2    S    
O9    P8    S    
C45   C56   S    
C23   H10   S    
C43   C44   S    
Ba2   O6    S    
O19   P2    D    
C10   C17   A    
C50   H54   S    
C40   H1    S    
C29   H36   S    
C37   O10   D    
C32   H37   S    
C55   C60   A    
C4    H38   S    
C69   C70   S    
C48   H41   S    
C57   H44   S    
C75   C80   A    
C15   C17   A    
C36   P1    S    
C8    C9    A    
C23   C34   S    
C12   I1    S    
C1    H3    S    
C22   C24   A    
C21   H33   S    
C29   C30   A    
C1    C12   S    
C1    H15   S    
C52   C64   S    
C13   P8    S    
Ba2   O24   S    
O25   P8    S    
C27   C29   A    
C16   H16   S    
C42   P7    S    
C54   C55   A    
C35   C36   A    
C2    C21   A    
C37   C47   A    
Ba1   Ba2   S    
C62   O14   D    
C33   C35   A    
C30   C32   A    
C53   C55   A    
C37   N1    Am   
Ba1   O1    S    
C58   H43   S    
C31   C33   A    
C39   C44   D    
C79   H51   S    
C58   C59   A    
C75   H48   S    
C60   C61   A    
C53   C57   A    
C68   C69   D    
C78   H25   S    
C34   H11   S    
C40   H12   S    
C78   H28   S    
C24   C25   A    
C19   C20   A    
C39   H47   S    
Ba2   O28   S    
C11   C25   A    
C18   C19   A    
C80   H53   S    
C35   H39   S    
C14   H31   S    
C66   P3    S    
C64   H56   S    
