data_mof_unit_12308.cif
_audit_creation_date              2012-12-10T18:14:41-0500
_audit_creation_method            fapswitch 2.2
_symmetry_space_group_name_H-M    P1
_symmetry_Int_Tables_number       1
_space_group_crystal_system       triclinic
_cell_length_a                    10.767753
_cell_length_b                    9.632307
_cell_length_c                    27.889064
_cell_angle_alpha                 90.158388
_cell_angle_beta                  91.54458
_cell_angle_gamma                 89.816281
_cell_volume                      2891.53012394

loop_
_atom_site_label
_atom_site_type_symbol
_atom_type_description
_atom_site_fract_x
_atom_site_fract_y
_atom_site_fract_z
_atom_type_partial_charge
C1    C     C_R   0.260360 0.500665 0.503258 0.800029
C2    C     C_R   0.420811 0.420883 0.276771 0.392532
C3    C     C_R   0.497678 0.513324 0.253017 0.013519
C4    C     C_R   0.494200 0.509194 0.101660 -0.208022
C5    C     C_R   0.392246 0.565915 0.126149 -0.063448
C6    C     C_R   0.290054 0.621015 0.099513 0.430420
C7    C     C_R   0.597461 0.454406 0.127920 -0.054358
C8    C     C_R   0.501170 0.503798 0.354277 -0.370856
C9    C     C_R   0.496083 0.497677 0.645557 -0.191070
C10   C     C_R   0.378626 0.524918 0.974047 -0.045028
C11   C     C_R   0.603826 0.484354 0.975828 -0.042864
C12   C     C_R   0.500471 0.500482 0.407640 0.908521
C13   C     C_R   0.490690 0.503676 0.949524 -0.051474
C14   C     C_R   0.264338 0.519527 0.947499 0.336576
C15   C     C_R   0.262908 0.517645 0.896908 0.361390
C16   C     C_R   0.375601 0.506599 0.872351 -0.104625
C17   C     C_R   0.489657 0.501642 0.898700 -0.210019
C18   C     C_R   0.602732 0.494827 0.874141 -0.116310
C19   C     C_R   0.598840 0.499439 0.823532 0.692509
C20   C     C_R   0.377527 0.497304 0.821783 0.620717
C21   C     C_R   0.424454 0.595533 0.720449 -0.316777
C22   C     C_R   0.422825 0.594484 0.670090 0.374182
C23   C     C_R   0.738901 0.499957 0.503035 0.758550
C24   C     C_R   0.562893 0.395743 0.672152 0.257297
C25   C     C_R   0.550724 0.387070 0.722479 0.377524
C26   C     C_R   0.487506 0.492575 0.746744 0.194958
C27   C     C_R   0.384786 0.546985 0.024532 0.046038
C28   C     C_R   0.492922 0.507264 0.050799 0.051142
C29   C     C_R   0.599840 0.465647 0.026323 0.044651
C30   C     C_R   0.288032 0.611452 0.049294 -0.260849
C31   C     C_R   0.698153 0.396896 0.103057 0.433328
C32   C     C_R   0.717072 0.488184 0.950979 0.336475
C33   C     C_R   0.716503 0.486212 0.900428 0.363532
C34   C     C_R   0.499503 0.499733 0.592333 0.907537
C35   C     C_R   0.697634 0.402612 0.052815 -0.261750
C36   C     C_3   0.069048 0.642995 0.526907 0.442261
C37   C     C_3   0.072827 0.379409 0.537134 0.359152
C38   C     C_3   0.926617 0.630062 0.532845 -0.473399
C39   C     C_3   0.929211 0.370450 0.531607 -0.454741
C40   C     C_3   0.065791 0.486751 0.454717 -0.631324
C41   C     C_3   0.121010 0.502792 0.506323 0.030324
C42   C     C_3   0.876613 0.500560 0.505471 0.088670
C43   C     C_3   0.924136 0.503054 0.454072 -0.411793
C44   C     C_3   0.607538 0.083350 0.473819 0.120783
C45   C     C_3   0.613447 0.916818 0.477847 0.148754
C46   C     C_3   0.516179 0.083081 0.551316 0.539593
C47   C     C_3   0.499804 0.916173 0.551346 0.652404
C48   C     C_3   0.382973 0.084666 0.477974 0.766235
C49   C     C_3   0.388648 0.916664 0.473035 0.725949
C50   C     C_R   0.396880 0.567627 0.176750 0.651603
C51   C     C_R   0.595527 0.456735 0.178460 0.597134
C52   C     C_R   0.575443 0.604214 0.279765 0.295528
C53   C     C_R   0.585798 0.589333 0.330060 0.381108
C54   C     C_R   0.411797 0.429258 0.326943 0.323679
Cu1   Cu    Cu3+1 0.499860 0.642410 0.500020 1.090705
Cu2   Cu    Cu3+1 0.499860 0.357590 0.500020 1.052717
H1    H     H_    0.772257 0.351038 0.034702 0.186060
H2    H     H_    0.084555 0.723612 0.499290 0.087358
H3    H     H_    0.111136 0.281279 0.522563 0.136325
H4    H     H_    0.903658 0.620110 0.571359 0.193993
H5    H     H_    0.886730 0.361154 0.567127 0.174270
H6    H     H_    0.882174 0.727200 0.519236 0.145141
H7    H     H_    0.903815 0.275142 0.510932 0.144377
H8    H     H_    0.106268 0.563828 0.430092 0.171266
H9    H     H_    0.086241 0.382118 0.441286 0.193477
H10   H     H_    0.898530 0.604174 0.437676 0.198551
H11   H     H_    0.880788 0.418335 0.432223 0.176455
H12   H     H_    0.696286 0.122907 0.490069 0.115528
H13   H     H_    0.696868 0.894678 0.500340 0.104534
H14   H     H_    0.373717 0.674923 0.739406 0.183386
H15   H     H_    0.212266 0.661251 0.029831 0.184947
N1    N     N_R   0.496854 0.513129 0.201431 -0.458503
N2    N     N_R   0.487781 0.495895 0.798556 -0.451841
N3    N     N_3   0.500250 0.143650 0.501060 -0.251465
N4    N     N_3   0.500250 0.856350 0.501060 -0.246409
O1    O     O_R   0.317570 0.620260 0.500030 -0.511856
O2    O     O_R   0.317570 0.379740 0.500030 -0.524872
O3    O     O_R   0.499900 0.620250 0.430280 -0.504522
O4    O     O_R   0.499900 0.379750 0.430280 -0.473232
O5    O     O_R   0.682190 0.620260 0.500010 -0.556421
O6    O     O_R   0.682190 0.379740 0.500010 -0.629999
O7    O     O_R   0.499860 0.620280 0.569750 -0.474094
O8    O     O_R   0.499860 0.379720 0.569750 -0.535782
O9    O     O_2   0.302676 0.623097 0.201435 -0.457184
O10   O     O_2   0.270327 0.487679 0.795823 -0.451773
O11   O     O_2   0.691121 0.403388 0.204786 -0.462710
O12   O     O_2   0.705049 0.509421 0.799176 -0.439691
O13   O     O_3   0.313040 0.368160 0.348969 -0.564553
C55   C     C_3   0.204526 0.446756 0.338354 -0.311053
H16   H     H_    0.181446 0.449828 0.299302 0.238209
H17   H     H_    0.213173 0.554120 0.352623 0.121523
H18   H     H_    0.124298 0.397422 0.355467 0.160125
O14   O     O_3   0.642027 0.708677 0.258379 -0.685462
H19   H     H_    0.616587 0.716694 0.224142 0.337185
O15   O     O_3   0.796326 0.335486 0.128096 -0.655718
H20   H     H_    0.859314 0.302709 0.105332 0.320453
O16   O     O_3   0.829647 0.502810 0.975581 -0.611204
C56   C     C_3   0.852018 0.645448 0.983177 -0.263615
H21   H     H_    0.778264 0.694022 0.004924 0.158831
H22   H     H_    0.860746 0.701317 0.948552 0.176857
H23   H     H_    0.941312 0.656965 0.003549 0.210409
O17   O     O_3   0.639586 0.303767 0.649031 -0.569276
C57   C     C_3   0.763090 0.350550 0.654808 -0.280572
H24   H     H_    0.825554 0.270755 0.639833 0.189739
H25   H     H_    0.791527 0.363980 0.693211 0.210809
H26   H     H_    0.776419 0.449452 0.635093 0.144077
O18   O     O_3   0.826693 0.476135 0.876247 -0.647876
H27   H     H_    0.893926 0.443922 0.898464 0.362230
O19   O     O_3   0.600925 0.278450 0.748978 -0.693994
H28   H     H_    0.629822 0.204778 0.727065 0.362687
O20   O     O_3   0.130293 0.680279 0.570810 -0.470927
C58   C     C_3   0.096814 0.816890 0.584611 -0.156563
H29   H     H_    0.102356 0.892744 0.554809 0.128393
H30   H     H_    0.161362 0.852916 0.613497 0.192922
H31   H     H_    0.002282 0.819198 0.599513 0.120235
O21   O     O_3   0.108921 0.399952 0.585987 -0.519276
C59   C     C_3   0.120637 0.271853 0.610140 -0.293020
H32   H     H_    0.204172 0.215273 0.598334 0.212009
H33   H     H_    0.036821 0.205770 0.604848 0.122229
H34   H     H_    0.132669 0.292587 0.649125 0.210025
O22   O     O_3   0.344125 0.333153 0.250211 -0.549133
C60   C     C_3   0.392338 0.197239 0.253781 -0.207530
H35   H     H_    0.389440 0.157786 0.291199 0.190843
H36   H     H_    0.488795 0.191580 0.240426 0.169717
H37   H     H_    0.333843 0.127664 0.230942 0.192147
O23   O     O_3   0.604538 0.129569 0.425978 -0.633424
H38   H     H_    0.690867 0.125866 0.414302 0.309015
O24   O     O_3   0.641684 0.846563 0.435069 -0.613691
H39   H     H_    0.611636 0.898843 0.406649 0.409346
O25   O     O_3   0.635962 0.114155 0.570651 -0.771701
H40   H     H_    0.655511 0.211931 0.563968 0.385342
O26   O     O_3   0.593168 0.852604 0.580925 -0.680989
H41   H     H_    0.677807 0.880889 0.572626 0.313149
O27   O     O_3   0.279781 0.127946 0.504796 -0.772803
H42   H     H_    0.266601 0.066739 0.532453 0.334189
O28   O     O_3   0.278675 0.861070 0.491268 -0.719913
H43   H     H_    0.205175 0.903820 0.475305 0.272937
O29   O     O_3   0.370789 0.143081 0.431190 -0.466608
C61   C     C_3   0.248986 0.140886 0.411021 -0.065574
H44   H     H_    0.180885 0.075950 0.429370 0.064967
H45   H     H_    0.252924 0.107026 0.373047 0.175360
H46   H     H_    0.212900 0.246533 0.411730 0.182440
O30   O     O_3   0.400659 0.882884 0.423029 -0.548164
C62   C     C_3   0.303540 0.805510 0.400521 -0.199108
H47   H     H_    0.217265 0.866843 0.395609 0.095573
H48   H     H_    0.283577 0.708523 0.419732 0.174566
H49   H     H_    0.333574 0.775754 0.364169 0.171042
O31   O     O_3   0.428485 0.142402 0.581898 -0.704516
H50   H     H_    0.457271 0.126469 0.615581 0.360301
O32   O     O_3   0.386077 0.882257 0.571982 -0.642360
H51   H     H_    0.392871 0.904244 0.606699 0.351660
O33   O     O_3   0.192875 0.683806 0.122812 -0.660532
H52   H     H_    0.128561 0.714441 0.098976 0.317866
O34   O     O_3   0.346568 0.683509 0.644337 -0.647222
H53   H     H_    0.300014 0.742139 0.667007 0.317189
O35   O     O_3   0.151731 0.525557 0.871016 -0.645823
H54   H     H_    0.085602 0.560471 0.891911 0.363508
O36   O     O_3   0.152694 0.506247 0.970497 -0.609665
C63   C     C_3   0.131532 0.364114 0.978992 -0.267795
H55   H     H_    0.206806 0.317766 0.002009 0.160849
H56   H     H_    0.121065 0.305374 0.944704 0.176925
H57   H     H_    0.043550 0.353595 0.998415 0.216396
O37   O     O_3   0.671553 0.667766 0.356001 -0.510238
C64   C     C_3   0.792445 0.620210 0.346073 -0.200906
H58   H     H_    0.814185 0.624790 0.307447 0.214762
H59   H     H_    0.806354 0.512247 0.359084 0.115761
H60   H     H_    0.860501 0.689414 0.364508 0.161370

loop_
_geom_bond_atom_site_label_1
_geom_bond_atom_site_label_2
_ccdc_geom_bond_type
C10   C27   A    
C21   C26   A    
O23   H38   S    
C1    O2    A    
O15   H20   S    
C33   O18   S    
Cu1   Cu2   S    
O24   H39   S    
C58   H30   S    
C30   H15   S    
C50   O9    S    
Cu2   O6    S    
C37   O21   S    
O21   C59   S    
C44   O23   S    
O14   H19   S    
C23   C42   S    
C14   O36   S    
C48   O27   S    
C64   H58   S    
O30   C62   S    
C38   C42   S    
C36   H2    S    
C59   H33   S    
C5    C6    A    
C61   H46   S    
C31   O15   S    
C9    C22   A    
C16   C17   A    
C45   O24   S    
C15   C16   A    
C12   O4    A    
C11   C13   A    
C26   N2    S    
C32   O16   S    
C18   C19   A    
C50   N1    A    
C40   C43   S    
C46   O31   S    
O37   C64   S    
O26   H41   S    
C12   O3    A    
O18   H27   S    
C63   H56   S    
C23   O5    A    
C55   H17   S    
C25   O19   S    
C6    O33   S    
C21   C22   A    
C27   C30   A    
C36   C41   S    
C62   H49   S    
C51   O11   S    
C58   H29   S    
C4    C28   A    
O16   C56   S    
C39   C42   S    
C39   H5    S    
Cu2   N3    S    
C45   H13   S    
C48   N3    S    
C19   N2    A    
C7    C31   A    
C24   C25   A    
C62   H48   S    
C34   O8    A    
C10   C14   A    
C59   H34   S    
C8    C54   A    
Cu1   O3    S    
C53   O37   S    
C4    C7    A    
C25   C26   A    
Cu2   O2    S    
C55   H18   S    
C7    C51   A    
C63   H55   S    
C47   O32   S    
C16   C20   A    
C20   O10   S    
C36   O20   S    
C49   N4    S    
C17   C18   A    
O34   H53   S    
C63   H57   S    
C52   O14   S    
C57   H25   S    
O31   H50   S    
Cu1   O7    S    
C44   N3    S    
Cu2   O4    S    
C15   O35   S    
C37   H3    S    
C38   H4    S    
Cu1   O1    S    
C1    C41   S    
C40   C41   S    
C6    C30   A    
C49   O28   S    
C11   C32   A    
C56   H21   S    
C56   H22   S    
C40   H9    S    
C2    C54   A    
O36   C63   S    
C31   C35   A    
C5    C50   A    
C44   H12   S    
C51   N1    A    
C60   H36   S    
C28   C29   A    
C46   N3    S    
C52   C53   A    
Cu2   O8    S    
C22   O34   S    
C2    O22   S    
C46   C47   S    
O35   H54   S    
C23   O6    A    
O20   C58   S    
C14   C15   A    
C1    O1    A    
C64   H60   S    
C44   C45   S    
C62   H47   S    
C10   C13   A    
C8    C53   A    
C46   O25   S    
C47   O26   S    
C61   H44   S    
O22   C60   S    
C9    C24   A    
O27   H42   S    
C48   O29   S    
C56   H23   S    
C39   H7    S    
C29   C35   A    
C19   O12   S    
C40   H8    S    
C13   C17   A    
C21   H14   S    
C45   N4    S    
C32   C33   A    
C60   H37   S    
C36   C38   S    
O25   H40   S    
C60   H35   S    
Cu1   N4    S    
C37   C39   S    
C59   H32   S    
C3    C52   A    
C54   O13   S    
Cu1   O5    S    
C61   H45   S    
C9    C34   S    
C43   H10   S    
C48   C49   S    
C49   O30   S    
C64   H59   S    
C20   N2    A    
C3    N1    S    
C57   H26   S    
C24   O17   S    
C37   C41   S    
O17   C57   S    
C18   C33   A    
O29   C61   S    
C47   N4    S    
C4    C5    A    
O13   C55   S    
C11   C29   A    
C43   H11   S    
C35   H1    S    
C42   C43   S    
C57   H24   S    
O32   H51   S    
O28   H43   S    
C2    C3    A    
O33   H52   S    
C34   O7    A    
C38   H6    S    
C55   H16   S    
O19   H28   S    
C58   H31   S    
C8    C12   S    
C27   C28   A    
