data_mof_unit_62224.cif
_audit_creation_date              2012-12-10T17:57:23-0500
_audit_creation_method            fapswitch 2.2
_symmetry_space_group_name_H-M    P1
_symmetry_Int_Tables_number       1
_space_group_crystal_system       triclinic
_cell_length_a                    30.752798
_cell_length_b                    29.383223
_cell_length_c                    30.762981
_cell_angle_alpha                 89.92925
_cell_angle_beta                  89.997634
_cell_angle_gamma                 89.92314
_cell_volume                      27797.8855037

loop_
_atom_site_label
_atom_site_type_symbol
_atom_type_description
_atom_site_fract_x
_atom_site_fract_y
_atom_site_fract_z
_atom_type_partial_charge
C1    C     C_R   0.309214 0.999760 0.690678 0.810840
C2    C     C_R   0.690781 0.000234 0.690672 0.810999
C3    C     C_R   0.809259 0.499677 0.690642 0.797212
C4    C     C_R   0.190665 0.500094 0.690755 0.807622
C5    C     C_R   0.809250 0.999647 0.190652 0.810658
C6    C     C_R   0.190676 0.999900 0.190775 0.796887
C7    C     C_R   0.309302 0.500326 0.190612 0.804384
C8    C     C_R   0.690613 0.499953 0.190703 0.809882
C9    C     C_R   0.377008 0.962855 0.595996 -0.199058
C10   C     C_R   0.623544 0.036625 0.595317 -0.200279
C11   C     C_R   0.872268 0.468100 0.590838 -0.188289
C12   C     C_R   0.123815 0.463592 0.595194 -0.199275
C13   C     C_R   0.873283 0.966607 0.091961 -0.214473
C14   C     C_R   0.123044 0.962909 0.095995 -0.197040
C15   C     C_R   0.369576 0.527623 0.087830 -0.196788
C16   C     C_R   0.628797 0.469096 0.089752 -0.212735
C17   C     C_R   0.404944 0.000436 0.591557 -0.150250
C18   C     C_R   0.595042 0.999450 0.591549 -0.149811
C19   C     C_R   0.905670 0.500640 0.592038 -0.078076
C20   C     C_R   0.093070 0.499032 0.593437 -0.150598
C21   C     C_R   0.905314 0.000667 0.091736 -0.154999
C22   C     C_R   0.093474 0.999369 0.093115 -0.088501
C23   C     C_R   0.406052 0.499242 0.092214 -0.118230
C24   C     C_R   0.593186 0.498908 0.093041 -0.148880
C25   C     C_R   0.397022 0.039260 0.616517 0.115669
C26   C     C_R   0.602363 0.960927 0.617192 0.116131
C27   C     C_R   0.903551 0.535594 0.622656 -0.023834
C28   C     C_R   0.092061 0.530948 0.626985 0.093895
C29   C     C_R   0.901782 0.036766 0.120990 0.122918
C30   C     C_R   0.093483 0.032392 0.125751 0.041600
C31   C     C_R   0.407463 0.467859 0.126229 0.008775
C32   C     C_R   0.587436 0.523734 0.131193 0.146326
C33   C     C_3   0.427114 0.067571 0.643660 0.749332
C34   C     C_3   0.571820 0.933609 0.644824 0.747849
C35   C     C_3   0.937307 0.553254 0.653685 0.772553
C36   C     C_3   0.091639 0.581973 0.626023 0.754893
C37   C     C_3   0.934855 0.057346 0.150882 0.738384
C38   C     C_3   0.095270 0.083518 0.123713 0.765769
C39   C     C_3   0.442823 0.458189 0.158650 0.725720
C40   C     C_3   0.578625 0.573305 0.138582 0.748969
C41   C     C_3   0.392522 0.067174 0.679327 -0.577134
C42   C     C_3   0.606383 0.934057 0.680513 -0.575774
C43   C     C_3   0.902648 0.552476 0.689138 -0.442055
C44   C     C_3   0.125537 0.581074 0.662266 -0.597915
C45   C     C_3   0.900409 0.056499 0.186693 -0.574560
C46   C     C_3   0.128465 0.081994 0.160453 -0.483596
C47   C     C_3   0.408122 0.458856 0.194074 -0.433330
C48   C     C_3   0.612630 0.571931 0.174748 -0.592194
C49   C     C_R   0.159291 0.972185 0.877673 0.125547
C50   C     C_R   0.840647 0.972423 0.877821 0.124886
C51   C     C_R   0.659511 0.472497 0.877912 0.124506
C52   C     C_R   0.340441 0.527479 0.877894 0.125596
C53   C     C_R   0.659075 0.028044 0.377446 0.124712
C54   C     C_R   0.340971 0.971934 0.377468 0.123852
C55   C     C_R   0.159355 0.472280 0.377743 0.124677
C56   C     C_R   0.840577 0.472527 0.377896 0.125202
C57   C     C_R   0.157507 0.000926 0.842008 -0.087436
C58   C     C_R   0.842484 0.000971 0.842020 -0.087924
C59   C     C_R   0.657500 0.500911 0.842015 -0.088597
C60   C     C_R   0.342514 0.499142 0.842008 -0.088514
C61   C     C_R   0.657520 0.999084 0.342006 -0.087498
C62   C     C_R   0.342468 0.000965 0.342012 -0.087466
C63   C     C_R   0.157504 0.500924 0.342009 -0.087677
C64   C     C_R   0.842488 0.500971 0.342022 -0.087991
C65   C     C_R   0.121600 0.030647 0.838609 -0.200823
C66   C     C_R   0.878419 0.030548 0.838517 -0.201411
C67   C     C_R   0.621361 0.530298 0.838395 -0.202752
C68   C     C_R   0.378744 0.469889 0.838376 -0.201901
C69   C     C_R   0.621855 0.969132 0.338834 -0.202249
C70   C     C_R   0.378044 0.031043 0.338850 -0.202311
C71   C     C_R   0.121527 0.530546 0.338544 -0.201348
C72   C     C_R   0.878497 0.530440 0.338448 -0.201392
C73   C     C_R   0.089440 0.030945 0.871220 -0.206891
C74   C     C_R   0.910566 0.030873 0.871141 -0.208100
C75   C     C_R   0.589207 0.530605 0.871009 -0.207916
C76   C     C_R   0.410905 0.469605 0.870979 -0.208236
C77   C     C_R   0.589700 0.968831 0.371448 -0.207184
C78   C     C_R   0.410188 0.031366 0.371476 -0.207013
C79   C     C_R   0.089368 0.530845 0.371155 -0.206931
C80   C     C_R   0.910644 0.530767 0.371072 -0.209307
C81   C     C_R   0.092288 0.000372 0.906500 -0.093669
C82   C     C_R   0.907674 0.000471 0.906543 -0.094258
C83   C     C_R   0.592295 0.500363 0.906523 -0.094987
C84   C     C_R   0.407734 0.499740 0.906497 -0.096582
C85   C     C_R   0.592299 0.999623 0.406498 -0.095179
C86   C     C_R   0.407666 0.000477 0.406527 -0.095306
C87   C     C_R   0.092288 0.500370 0.406505 -0.094237
C88   C     C_R   0.907674 0.500470 0.406549 -0.095747
C89   C     C_R   0.250013 0.915387 0.750026 0.791587
C90   C     C_R   0.749999 0.084613 0.749992 0.791938
C91   C     C_R   0.749992 0.915388 0.749985 0.798415
C92   C     C_R   0.249996 0.084612 0.749950 0.798321
C93   C     C_R   0.750013 0.415388 0.750026 0.793483
C94   C     C_R   0.249984 0.584612 0.749982 0.794183
C95   C     C_R   0.249997 0.415387 0.749985 0.793340
C96   C     C_R   0.749988 0.584612 0.749958 0.797426
C97   C     C_R   0.750023 0.915387 0.250013 0.791932
C98   C     C_R   0.249973 0.084613 0.249968 0.794551
C99   C     C_R   0.250007 0.915387 0.249998 0.792169
C100  C     C_R   0.749979 0.084612 0.249970 0.799140
C101  C     C_R   0.250020 0.415388 0.250020 0.799296
C102  C     C_R   0.749980 0.584612 0.249974 0.793708
C103  C     C_R   0.750010 0.415387 0.250001 0.795040
C104  C     C_R   0.249976 0.584613 0.249968 0.793233
C105  C     C_R   0.127657 0.971215 0.907945 0.123574
C106  C     C_R   0.872262 0.971477 0.908111 0.122691
C107  C     C_R   0.627890 0.471524 0.908198 0.120539
C108  C     C_R   0.372070 0.528480 0.908170 0.121659
C109  C     C_R   0.627436 0.029001 0.407713 0.121963
C110  C     C_R   0.372598 0.971005 0.407746 0.121269
C111  C     C_R   0.127725 0.471307 0.408019 0.122157
C112  C     C_R   0.872189 0.471579 0.408190 0.122842
C113  C     C_3   0.149123 0.934790 0.933916 -0.477898
C114  C     C_3   0.850780 0.935219 0.934204 -0.478271
C115  C     C_3   0.649653 0.435546 0.934484 -0.479019
C116  C     C_3   0.350172 0.564267 0.934499 -0.479692
C117  C     C_3   0.648610 0.065713 0.433391 -0.476409
C118  C     C_3   0.351549 0.934117 0.433388 -0.475157
C119  C     C_3   0.149277 0.435011 0.434080 -0.478281
C120  C     C_3   0.850613 0.435460 0.434381 -0.479148
C121  C     C_3   0.185100 0.935536 0.899008 -0.465626
C122  C     C_3   0.814819 0.935938 0.899281 -0.465264
C123  C     C_3   0.685620 0.436284 0.899565 -0.463203
C124  C     C_3   0.314200 0.563504 0.899590 -0.464584
C125  C     C_3   0.684589 0.064975 0.398486 -0.467170
C126  C     C_3   0.315581 0.934830 0.398472 -0.465804
C127  C     C_3   0.185252 0.435757 0.399171 -0.465006
C128  C     C_3   0.814654 0.436179 0.399455 -0.465596
C129  C     C_R   0.940062 0.000075 0.940124 0.821268
C130  C     C_R   0.059929 0.000039 0.940113 0.822301
C131  C     C_R   0.440048 0.499998 0.940142 0.822258
C132  C     C_R   0.559945 0.500037 0.940134 0.817141
C133  C     C_R   0.440069 0.000075 0.440109 0.816538
C134  C     C_R   0.559930 0.999959 0.440110 0.816547
C135  C     C_R   0.940059 0.500075 0.440129 0.822508
C136  C     C_R   0.059932 0.500038 0.440117 0.820454
C137  C     C_R   0.440020 0.000033 0.560122 0.881683
C138  C     C_R   0.559977 0.999931 0.560118 0.881416
C139  C     C_R   0.940167 0.500051 0.560167 0.813494
C140  C     C_R   0.060646 0.499903 0.559391 0.837553
C141  C     C_R   0.940103 0.000056 0.060132 0.873103
C142  C     C_R   0.060798 0.999963 0.059257 0.848004
C143  C     C_R   0.440374 0.499941 0.060302 0.858005
C144  C     C_R   0.560550 0.499890 0.059387 0.867616
C145  C     C_R   0.190723 0.000079 0.809226 0.797539
C146  C     C_R   0.809278 0.000089 0.809229 0.797549
C147  C     C_R   0.690721 0.500075 0.809229 0.797464
C148  C     C_R   0.309281 0.499936 0.809230 0.796960
C149  C     C_R   0.690726 0.999931 0.309225 0.797920
C150  C     C_R   0.309273 0.000080 0.309225 0.797330
C151  C     C_R   0.190722 0.500079 0.309227 0.797404
C152  C     C_R   0.809278 0.500091 0.309230 0.796814
C153  C     C_1   0.250040 0.864107 0.750073 -0.188120
C154  C     C_1   0.750011 0.135893 0.750005 -0.186406
C155  C     C_1   0.749973 0.864110 0.749963 -0.187314
C156  C     C_1   0.249972 0.135890 0.749889 -0.184725
C157  C     C_1   0.750046 0.364109 0.750074 -0.188388
C158  C     C_1   0.249978 0.635890 0.749989 -0.188765
C159  C     C_1   0.249992 0.364106 0.749957 -0.184516
C160  C     C_1   0.749950 0.635893 0.749907 -0.186406
C161  C     C_1   0.750055 0.864107 0.250045 -0.186554
C162  C     C_1   0.249962 0.135891 0.249961 -0.184468
C163  C     C_1   0.250001 0.864109 0.249987 -0.189145
C164  C     C_1   0.749943 0.135890 0.249934 -0.187088
C165  C     C_1   0.250050 0.364108 0.250063 -0.184433
C166  C     C_1   0.749974 0.635891 0.249971 -0.187099
C167  C     C_1   0.750009 0.364107 0.249995 -0.185260
C168  C     C_1   0.249934 0.635893 0.249924 -0.186554
C169  C     C_1   0.250033 0.821629 0.750078 0.001681
C170  C     C_1   0.750022 0.178371 0.750024 0.002160
C171  C     C_1   0.749958 0.821633 0.749946 0.003086
C172  C     C_1   0.249973 0.178367 0.749875 0.004494
C173  C     C_1   0.750050 0.321632 0.750083 0.001478
C174  C     C_1   0.249980 0.678366 0.750008 0.002057
C175  C     C_1   0.249988 0.321629 0.749931 0.004132
C176  C     C_1   0.749943 0.678371 0.749898 0.003516
C177  C     C_1   0.750049 0.821629 0.250040 0.002356
C178  C     C_1   0.249967 0.178368 0.249973 0.007526
C179  C     C_1   0.249987 0.821632 0.249974 0.000644
C180  C     C_1   0.749946 0.178367 0.249938 0.003490
C181  C     C_1   0.250042 0.321631 0.250061 0.006741
C182  C     C_1   0.749981 0.678368 0.249979 0.002915
C183  C     C_1   0.749999 0.321629 0.249988 0.003932
C184  C     C_1   0.249931 0.678371 0.249921 0.002098
C185  C     C_1   0.250013 0.771237 0.750061 0.005458
C186  C     C_1   0.750035 0.228762 0.750051 0.005045
C187  C     C_1   0.749948 0.771241 0.749924 0.006897
C188  C     C_1   0.249979 0.228759 0.749884 0.007702
C189  C     C_1   0.750044 0.271240 0.750070 0.004907
C190  C     C_1   0.249995 0.728758 0.750038 0.005796
C191  C     C_1   0.249984 0.271237 0.749902 0.007341
C192  C     C_1   0.749943 0.728763 0.749908 0.006782
C193  C     C_1   0.750025 0.771237 0.250019 0.005740
C194  C     C_1   0.249990 0.228760 0.250004 0.010912
C195  C     C_1   0.249965 0.771241 0.249954 0.004355
C196  C     C_1   0.749964 0.228759 0.249955 0.007202
C197  C     C_1   0.250015 0.271238 0.250033 0.010467
C198  C     C_1   0.750002 0.728759 0.249999 0.006131
C199  C     C_1   0.749981 0.271237 0.249972 0.007168
C200  C     C_1   0.249946 0.728763 0.249936 0.004717
C201  C     C_R   0.366004 0.038828 0.649014 -0.029933
C202  C     C_R   0.633364 0.961406 0.649707 -0.029156
C203  C     C_R   0.872429 0.534914 0.655047 -0.059948
C204  C     C_R   0.123223 0.530339 0.659400 0.021010
C205  C     C_R   0.870818 0.036059 0.153526 -0.023835
C206  C     C_R   0.124316 0.031399 0.158473 -0.034545
C207  C     C_R   0.376239 0.468590 0.158545 -0.028615
C208  C     C_R   0.618592 0.522793 0.163568 0.020455
C209  C     C_R   0.341619 0.999840 0.656962 -0.045508
C210  C     C_R   0.658373 0.000098 0.656944 -0.046136
C211  C     C_R   0.841771 0.500124 0.656875 -0.023407
C212  C     C_R   0.157048 0.498760 0.658189 -0.059437
C213  C     C_R   0.841737 0.999955 0.156898 -0.053370
C214  C     C_R   0.157058 0.998607 0.158257 -0.027785
C215  C     C_R   0.341930 0.499609 0.156827 -0.058585
C216  C     C_R   0.656935 0.498038 0.158023 -0.073566
C217  C     C_R   0.344939 0.962876 0.628289 -0.195738
C218  C     C_R   0.655625 0.036607 0.627594 -0.195893
C219  C     C_R   0.839890 0.468371 0.622812 -0.188616
C220  C     C_R   0.156209 0.463874 0.627122 -0.202457
C221  C     C_R   0.841040 0.966747 0.124087 -0.196009
C222  C     C_R   0.155278 0.962940 0.128079 -0.192383
C223  C     C_R   0.337140 0.527186 0.119731 -0.186704
C224  C     C_R   0.661067 0.469263 0.121831 -0.194784
Cu1   Cu    Cu3+1 0.280900 0.000000 0.780900 0.962176
Cu2   Cu    Cu3+1 0.719100 0.000000 0.780900 0.960921
Cu3   Cu    Cu3+1 0.780900 0.500000 0.780900 0.962795
Cu4   Cu    Cu3+1 0.219100 0.500000 0.780900 0.971878
Cu5   Cu    Cu3+1 0.780900 0.000000 0.280900 0.957880
Cu6   Cu    Cu3+1 0.219100 0.000000 0.280900 0.964214
Cu7   Cu    Cu3+1 0.280900 0.500000 0.280900 0.960612
Cu8   Cu    Cu3+1 0.719100 0.500000 0.280900 0.970741
Cu9   Cu    Cu3+1 0.219090 0.000000 0.719100 0.965388
Cu10  Cu    Cu3+1 0.780910 0.000000 0.719100 0.964600
Cu11  Cu    Cu3+1 0.719090 0.500000 0.719100 0.962246
Cu12  Cu    Cu3+1 0.280910 0.500000 0.719100 0.960144
Cu13  Cu    Cu3+1 0.719090 0.000000 0.219100 0.965020
Cu14  Cu    Cu3+1 0.280910 0.000000 0.219100 0.965905
Cu15  Cu    Cu3+1 0.219090 0.500000 0.219100 0.964298
Cu16  Cu    Cu3+1 0.780910 0.500000 0.219100 0.959885
Cu17  Cu    Cu3+1 1.000000 0.957530 0.999990 0.950727
Cu18  Cu    Cu3+1 0.000000 0.042470 0.999990 1.010072
Cu19  Cu    Cu3+1 0.500000 0.457530 0.999990 0.962470
Cu20  Cu    Cu3+1 0.500000 0.542470 0.999990 1.000575
Cu21  Cu    Cu3+1 0.500000 0.957530 0.499990 0.996550
Cu22  Cu    Cu3+1 0.500000 0.042470 0.499990 0.997170
Cu23  Cu    Cu3+1 0.000000 0.457530 0.499990 0.953343
Cu24  Cu    Cu3+1 1.000000 0.542470 0.499990 1.016528
H1    H     H_    0.324182 0.933382 0.632158 0.142484
H2    H     H_    0.676836 0.065809 0.630925 0.142244
H3    H     H_    0.814745 0.442590 0.622165 0.142655
H4    H     H_    0.180903 0.437544 0.627119 0.147738
H5    H     H_    0.816969 0.939862 0.124566 0.146391
H6    H     H_    0.179130 0.935784 0.128884 0.141245
H7    H     H_    0.309538 0.549890 0.116519 0.149823
H8    H     H_    0.689433 0.447737 0.118022 0.155647
H9    H     H_    0.380650 0.933230 0.575389 0.162278
H10   H     H_    0.620348 0.065949 0.574178 0.161244
H11   H     H_    0.871682 0.442194 0.565818 0.146395
H12   H     H_    0.124057 0.437079 0.570752 0.156877
H13   H     H_    0.873725 0.939608 0.068017 0.157317
H14   H     H_    0.122474 0.935633 0.072339 0.150998
H15   H     H_    0.366585 0.550464 0.060314 0.145266
H16   H     H_    0.632687 0.447501 0.061489 0.150816
H17   H     H_    0.402162 0.048396 0.709228 0.198386
H18   H     H_    0.597005 0.953524 0.710049 0.198266
H19   H     H_    0.621088 0.900146 0.687045 0.201849
H20   H     H_    0.377288 0.100943 0.685216 0.201729
H21   H     H_    0.908928 0.527100 0.715263 0.216502
H22   H     H_    0.157912 0.594638 0.652709 0.178369
H23   H     H_    0.113211 0.593729 0.694010 0.214135
H24   H     H_    0.892823 0.586754 0.700856 0.165760
H25   H     H_    0.907800 0.032748 0.213887 0.197743
H26   H     H_    0.161457 0.093959 0.151014 0.202600
H27   H     H_    0.116364 0.095833 0.191827 0.174532
H28   H     H_    0.889201 0.090848 0.196904 0.201893
H29   H     H_    0.402258 0.425089 0.209313 0.205123
H30   H     H_    0.642200 0.592564 0.168116 0.175264
H31   H     H_    0.598808 0.576305 0.207877 0.215374
H32   H     H_    0.411264 0.487530 0.217426 0.179293
H33   H     H_    0.118797 0.053870 0.811375 0.155567
H34   H     H_    0.881260 0.053631 0.811185 0.155703
H35   H     H_    0.618373 0.553269 0.810985 0.156564
H36   H     H_    0.381793 0.446991 0.810972 0.156691
H37   H     H_    0.619241 0.945736 0.311776 0.156178
H38   H     H_    0.380603 0.054505 0.311785 0.156495
H39   H     H_    0.118668 0.553694 0.311257 0.155357
H40   H     H_    0.881398 0.553442 0.311060 0.155552
H41   H     H_    0.062310 0.054338 0.868580 0.152295
H42   H     H_    0.937730 0.054135 0.868407 0.152247
H43   H     H_    0.561900 0.553748 0.868198 0.155593
H44   H     H_    0.438270 0.446543 0.868168 0.155749
H45   H     H_    0.562764 0.945257 0.368985 0.156234
H46   H     H_    0.437068 0.055016 0.369009 0.156586
H47   H     H_    0.062183 0.554162 0.368463 0.151931
H48   H     H_    0.937867 0.553946 0.368282 0.151723
H49   H     H_    0.160089 0.947195 0.966229 0.197193
H50   H     H_    0.869964 0.903138 0.934717 0.206935
H51   H     H_    0.839806 0.947782 0.966471 0.195467
H52   H     H_    0.129933 0.902766 0.934309 0.206260
H53   H     H_    0.660517 0.448360 0.966686 0.191881
H54   H     H_    0.339363 0.551286 0.966689 0.193275
H55   H     H_    0.368974 0.596536 0.935205 0.207145
H56   H     H_    0.630726 0.403355 0.935162 0.208014
H57   H     H_    0.629161 0.097622 0.433535 0.206997
H58   H     H_    0.371115 0.902286 0.433510 0.207105
H59   H     H_    0.340423 0.946099 0.465803 0.196580
H60   H     H_    0.659680 0.053573 0.465800 0.196203
H61   H     H_    0.160212 0.447533 0.466362 0.194258
H62   H     H_    0.869714 0.403327 0.434980 0.207101
H63   H     H_    0.839672 0.448150 0.466613 0.194119
H64   H     H_    0.130164 0.402937 0.434554 0.207334
H65   H     H_    0.216909 0.948052 0.911254 0.210552
H66   H     H_    0.813439 0.904384 0.879435 0.196247
H67   H     H_    0.783007 0.948600 0.911469 0.209743
H68   H     H_    0.186482 0.904058 0.879047 0.195896
H69   H     H_    0.717324 0.449202 0.911698 0.209201
H70   H     H_    0.282549 0.550410 0.911722 0.209631
H71   H     H_    0.312432 0.595222 0.879932 0.195800
H72   H     H_    0.687261 0.404630 0.879879 0.196503
H73   H     H_    0.685714 0.096339 0.378276 0.196084
H74   H     H_    0.314581 0.903529 0.378240 0.196448
H75   H     H_    0.283621 0.946910 0.410807 0.210024
H76   H     H_    0.716500 0.052726 0.410824 0.209651
H77   H     H_    0.217031 0.448390 0.411385 0.209464
H78   H     H_    0.813192 0.404570 0.379694 0.196161
H79   H     H_    0.782876 0.448967 0.411609 0.209449
H80   H     H_    0.186711 0.404228 0.379288 0.196468
O1    O     O_R   0.321180 0.000000 0.731010 -0.578988
O2    O     O_R   0.678820 0.000000 0.731010 -0.578944
O3    O     O_R   0.821180 0.500000 0.731010 -0.577998
O4    O     O_R   0.178820 0.500000 0.731010 -0.566213
O5    O     O_R   0.821180 0.000000 0.231010 -0.579995
O6    O     O_R   0.178820 0.000000 0.231010 -0.572803
O7    O     O_R   0.321180 0.500000 0.231010 -0.580830
O8    O     O_R   0.678820 0.500000 0.231010 -0.564937
O9    O     O_R   0.268980 0.000000 0.678820 -0.577702
O10   O     O_R   0.731020 0.000000 0.678820 -0.577969
O11   O     O_R   0.768980 0.500000 0.678820 -0.580940
O12   O     O_R   0.231020 0.500000 0.678820 -0.584302
O13   O     O_R   0.768980 0.000000 0.178820 -0.578500
O14   O     O_R   0.231020 0.000000 0.178820 -0.578446
O15   O     O_R   0.268980 0.500000 0.178820 -0.579759
O16   O     O_R   0.731020 0.500000 0.178820 -0.586133
O17   O     O_R   0.276100 0.938030 0.776090 -0.564551
O18   O     O_R   0.723900 0.061970 0.776090 -0.561087
O19   O     O_R   0.723900 0.938030 0.776090 -0.565773
O20   O     O_R   0.276100 0.061970 0.776090 -0.562065
O21   O     O_R   0.776100 0.438030 0.776090 -0.562846
O22   O     O_R   0.223900 0.561970 0.776090 -0.564327
O23   O     O_R   0.223900 0.438030 0.776090 -0.559915
O24   O     O_R   0.776100 0.561970 0.776090 -0.562518
O25   O     O_R   0.776100 0.938030 0.276090 -0.562063
O26   O     O_R   0.223900 0.061970 0.276090 -0.562868
O27   O     O_R   0.223900 0.938030 0.276090 -0.563989
O28   O     O_R   0.776100 0.061970 0.276090 -0.565872
O29   O     O_R   0.276100 0.438030 0.276090 -0.565116
O30   O     O_R   0.723900 0.561970 0.276090 -0.561984
O31   O     O_R   0.723900 0.438030 0.276090 -0.562721
O32   O     O_R   0.276100 0.561970 0.276090 -0.561169
O33   O     O_R   0.223900 0.938040 0.723900 -0.563182
O34   O     O_R   0.776100 0.061960 0.723900 -0.567566
O35   O     O_R   0.776100 0.938040 0.723900 -0.559698
O36   O     O_R   0.223900 0.061960 0.723900 -0.563866
O37   O     O_R   0.723900 0.438040 0.723900 -0.564256
O38   O     O_R   0.276100 0.561960 0.723900 -0.561969
O39   O     O_R   0.276100 0.438040 0.723900 -0.567055
O40   O     O_R   0.723900 0.561960 0.723900 -0.563103
O41   O     O_R   0.723900 0.938040 0.223900 -0.566911
O42   O     O_R   0.276100 0.061960 0.223900 -0.562349
O43   O     O_R   0.276100 0.938040 0.223900 -0.563702
O44   O     O_R   0.723900 0.061960 0.223900 -0.559494
O45   O     O_R   0.223900 0.438040 0.223900 -0.558641
O46   O     O_R   0.776100 0.561960 0.223900 -0.565265
O47   O     O_R   0.776100 0.438040 0.223900 -0.563420
O48   O     O_R   0.223900 0.561960 0.223900 -0.567846
O49   O     O_R   0.231010 0.000000 0.821180 -0.577927
O50   O     O_R   0.768990 0.000000 0.821180 -0.578539
O51   O     O_R   0.731010 0.500000 0.821180 -0.578686
O52   O     O_R   0.268990 0.500000 0.821180 -0.578692
O53   O     O_R   0.731010 0.000000 0.321180 -0.578430
O54   O     O_R   0.268990 0.000000 0.321180 -0.578603
O55   O     O_R   0.231010 0.500000 0.321180 -0.578525
O56   O     O_R   0.768990 0.500000 0.321180 -0.579126
O57   O     O_R   0.178810 0.000000 0.768990 -0.580146
O58   O     O_R   0.821190 0.000000 0.768990 -0.580014
O59   O     O_R   0.678810 0.500000 0.768990 -0.579966
O60   O     O_R   0.321190 0.500000 0.768990 -0.580139
O61   O     O_R   0.678810 0.000000 0.268990 -0.579727
O62   O     O_R   0.321190 0.000000 0.268990 -0.579643
O63   O     O_R   0.178810 0.500000 0.268990 -0.579764
O64   O     O_R   0.821190 0.500000 0.268990 -0.579712
O65   O     O_R   0.954900 0.964110 0.954900 -0.590900
O66   O     O_R   0.045100 0.035890 0.954900 -0.591177
O67   O     O_R   0.045100 0.964110 0.954900 -0.591425
O68   O     O_R   0.954900 0.035890 0.954900 -0.590678
O69   O     O_R   0.454900 0.464110 0.954900 -0.587837
O70   O     O_R   0.545100 0.535890 0.954900 -0.588673
O71   O     O_R   0.545100 0.464110 0.954900 -0.593231
O72   O     O_R   0.454900 0.535890 0.954900 -0.592999
O73   O     O_R   0.454900 0.964110 0.454900 -0.595027
O74   O     O_R   0.545100 0.035890 0.454900 -0.594992
O75   O     O_R   0.545100 0.964110 0.454900 -0.590139
O76   O     O_R   0.454900 0.035890 0.454900 -0.590037
O77   O     O_R   0.954900 0.464110 0.454900 -0.589664
O78   O     O_R   0.045100 0.535890 0.454900 -0.586066
O79   O     O_R   0.045100 0.464110 0.454900 -0.591514
O80   O     O_R   0.954900 0.535890 0.454900 -0.590482
O81   O     O_R   0.454900 0.964130 0.545070 -0.586591
O82   O     O_R   0.545100 0.035870 0.545070 -0.586274
O83   O     O_R   0.545100 0.964130 0.545070 -0.555319
O84   O     O_R   0.454900 0.035870 0.545070 -0.554548
O85   O     O_R   0.954900 0.464130 0.545070 -0.588465
O86   O     O_R   0.045100 0.535870 0.545070 -0.536699
O87   O     O_R   0.045100 0.464130 0.545070 -0.595343
O88   O     O_R   0.954900 0.535870 0.545070 -0.571935
O89   O     O_R   0.954900 0.964130 0.045070 -0.598532
O90   O     O_R   0.045100 0.035870 0.045070 -0.573155
O91   O     O_R   0.045100 0.964130 0.045070 -0.595835
O92   O     O_R   0.954900 0.035870 0.045070 -0.548723
O93   O     O_R   0.454900 0.464130 0.045070 -0.592549
O94   O     O_R   0.545100 0.535870 0.045070 -0.543418
O95   O     O_R   0.545100 0.464130 0.045070 -0.596558
O96   O     O_R   0.454900 0.535870 0.045070 -0.575562
O97   O     O_3   0.466409 0.045686 0.654692 -0.729819
H81   H     H_    0.459330 0.015313 0.666983 0.321185
O98   O     O_3   0.532854 0.956339 0.655410 -0.730844
H82   H     H_    0.540381 0.986814 0.667120 0.320760
O99   O     O_3   0.564393 0.890295 0.627353 -0.699063
H83   H     H_    0.548239 0.873054 0.649910 0.336543
O100  O     O_3   0.433896 0.110690 0.625399 -0.699450
H84   H     H_    0.449752 0.128598 0.647648 0.336419
O101  O     O_3   0.971138 0.522256 0.661686 -0.695031
H85   H     H_    0.990737 0.523740 0.636108 0.338300
O102  O     O_3   0.106200 0.601136 0.586594 -0.712446
H86   H     H_    0.134157 0.586381 0.578603 0.302878
O103  O     O_3   0.051432 0.599691 0.639160 -0.654033
H87   H     H_    0.055696 0.632980 0.642409 0.346848
O104  O     O_3   0.952738 0.597140 0.643560 -0.677558
H88   H     H_    0.927465 0.616525 0.635615 0.300586
O105  O     O_3   0.971447 0.029551 0.158655 -0.748203
H89   H     H_    0.961078 0.998770 0.167044 0.302207
O106  O     O_3   0.113389 0.100216 0.084939 -0.710785
H90   H     H_    0.088942 0.106319 0.064746 0.357091
O107  O     O_3   0.055954 0.105300 0.134894 -0.701691
H91   H     H_    0.044224 0.090412 0.161411 0.327932
O108  O     O_3   0.946445 0.101378 0.137785 -0.678686
H92   H     H_    0.963080 0.114664 0.162307 0.341906
O109  O     O_3   0.461492 0.415044 0.153099 -0.694304
H93   H     H_    0.479889 0.417078 0.126659 0.339481
O110  O     O_3   0.589349 0.601617 0.103148 -0.714858
H94   H     H_    0.619219 0.593778 0.093378 0.301606
O111  O     O_3   0.536252 0.580884 0.153687 -0.691240
H95   H     H_    0.535047 0.613325 0.162535 0.335005
O112  O     O_3   0.474395 0.492706 0.162501 -0.704540
H96   H     H_    0.459147 0.522368 0.165399 0.325723

loop_
_geom_bond_atom_site_label_1
_geom_bond_atom_site_label_2
_ccdc_geom_bond_type
C13   H13   S    
O98   H82   S    
C57   C145  S    
C51   C123  S    
O97   H81   S    
C41   H17   S    
C34   C42   S    
C110  C118  S    
C79   C87   A    
C185  C190  T    
C179  C195  S    
O103  H87   S    
Cu6   O6    S    
C46   H26   S    
C177  C193  S    
C64   C152  S    
C188  C191  T    
Cu4   O52   S    
C39   C47   S    
C86   C110  A    
C139  O88   A    
Cu13  O13   S    
Cu2   O18   S    
C2    O10   A    
C194  C197  T    
C29   C37   S    
Cu10  O10   S    
C30   C38   S    
Cu24  O88   S    
C66   H34   S    
C39   O112  S    
Cu9   O57   S    
C214  C222  A    
C79   H47   S    
C80   H48   S    
C50   C122  S    
Cu6   Cu14  S    
C42   H18   S    
Cu11  O40   S    
C6    O14   A    
C101  O45   A    
C206  C214  A    
C34   O99   S    
Cu21  Cu22  S    
C218  H2    S    
C23   C143  S    
C204  C212  A    
C73   C81   A    
C98   C162  S    
Cu17  O65   S    
C222  H6    S    
C122  H66   S    
C115  C123  S    
C67   H35   S    
C89   O33   A    
C112  C120  S    
Cu1   O49   S    
C165  C181  T    
C212  C220  A    
C27   C35   S    
C21   C29   A    
C131  O72   A    
C40   O110  S    
C11   H11   S    
Cu7   O29   S    
C216  C224  A    
C141  O89   A    
Cu7   O55   S    
Cu24  O78   S    
C116  H54   S    
Cu21  O75   S    
C5    C213  S    
C48   C208  S    
Cu22  O76   S    
C13   C21   A    
C134  O75   A    
Cu15  O63   S    
Cu5   O5    S    
C63   C71   A    
C113  H52   S    
C119  H64   S    
C220  H4    S    
C99   O43   A    
C114  H51   S    
C120  H63   S    
C36   C44   S    
Cu5   Cu13  S    
Cu6   O26   S    
C32   C40   S    
C224  H8    S    
C8    O8    A    
C53   C109  A    
C40   C48   S    
C143  O93   A    
C62   C150  S    
C55   C111  A    
C87   C136  S    
C7    O15   A    
C88   C135  S    
C8    C216  S    
C102  O46   A    
C45   H28   S    
C126  H74   S    
C2    O2    A    
C17   C25   A    
C127  H80   S    
C209  C217  A    
C80   C88   A    
C103  O31   A    
C52   C124  S    
C108  C116  S    
C146  O50   A    
Cu12  O12   S    
C56   C128  S    
C132  O70   A    
O107  H91   S    
C12   H12   S    
C43   H21   S    
C15   H15   S    
C87   C111  A    
C90   O34   A    
C51   C107  A    
C17   C137  S    
C60   C148  S    
Cu13  O61   S    
C12   C220  A    
C210  C218  A    
Cu19  Cu20  S    
C144  O94   A    
Cu6   O54   S    
C59   C147  S    
C103  C167  S    
C123  H69   S    
C69   C77   A    
C166  C182  T    
Cu12  O39   S    
Cu15  O45   S    
C38   O107  S    
C181  C197  S    
C71   C79   A    
C67   C75   A    
C133  O76   A    
O99   H83   S    
C154  C170  T    
C148  O60   A    
C27   C203  A    
C149  O61   A    
C10   C18   A    
C25   C201  A    
Cu23  O79   S    
C150  O54   A    
C148  O52   A    
C145  O57   A    
C66   C74   A    
Cu22  O74   S    
C136  O79   A    
C49   C57   A    
C54   C110  A    
Cu5   O25   S    
Cu17  Cu18  S    
C101  O29   A    
C52   C60   A    
C59   C67   A    
C53   C61   A    
C103  O47   A    
C184  C200  S    
C55   C63   A    
C142  O90   A    
C97   O25   A    
C56   C64   A    
C115  H56   S    
Cu4   O22   S    
C32   C208  A    
C35   C43   S    
C20   C28   A    
C16   C224  A    
C85   C134  S    
C77   C85   A    
C102  C166  S    
C95   O39   A    
C203  C211  A    
C217  H1    S    
C196  C199  T    
C201  C209  A    
C158  C174  T    
C3    C211  S    
C33   O100  S    
C81   C105  A    
C37   O108  S    
Cu23  O87   S    
C1    C209  S    
C92   C156  S    
Cu10  O58   S    
C94   O38   A    
Cu8   O31   S    
C156  C172  T    
C104  O48   A    
Cu5   O53   S    
Cu3   O21   S    
Cu14  O42   S    
O100  H84   S    
C117  H60   S    
C151  O63   A    
C49   C121  S    
C118  H59   S    
C22   C142  S    
C128  H79   S    
C82   C129  S    
C96   O40   A    
C60   C68   A    
C187  C192  T    
C53   C125  S    
C99   C163  S    
C19   C139  S    
C55   C127  S    
C97   C161  S    
C140  O87   A    
C91   O19   A    
C14   C22   A    
C42   C202  S    
C90   C154  S    
Cu17  O89   S    
C38   O106  S    
C11   C219  A    
C114  H50   S    
C9    C217  A    
C46   C206  S    
C113  H49   S    
Cu10  O34   S    
C125  H76   S    
C120  H62   S    
Cu1   O1    S    
C98   O26   A    
C180  C196  S    
Cu23  O77   S    
C68   C76   A    
C211  C219  A    
C46   H27   S    
Cu2   Cu10  S    
C138  O82   A    
C1    O1    A    
C72   C80   A    
Cu2   O19   S    
C163  C179  T    
C54   C126  S    
C36   O102  S    
C61   C149  S    
C150  O62   A    
C45   H25   S    
Cu16  O16   S    
C76   H44   S    
C6    O6    A    
C77   H45   S    
O110  H94   S    
C47   H29   S    
C113  C121  S    
O109  H93   S    
C157  C173  T    
C44   C204  S    
C73   H41   S    
C42   H19   S    
C135  O77   A    
C35   O104  S    
C137  O84   A    
C25   C33   S    
C68   H36   S    
C119  C127  S    
Cu16  O47   S    
C69   H37   S    
Cu17  O67   S    
C9    H9    S    
C18   C26   A    
C147  O51   A    
C76   C84   A    
C109  C117  S    
C121  H68   S    
Cu24  O86   S    
C178  C194  S    
C11   C19   A    
C122  H67   S    
Cu16  O64   S    
C44   H22   S    
Cu14  O14   S    
Cu12  O38   S    
C85   C109  A    
C3    O11   A    
C120  C128  S    
Cu19  O71   S    
C133  O73   A    
C97   O41   A    
C193  C198  T    
C130  O66   A    
Cu9   O9    S    
Cu11  O59   S    
Cu7   O32   S    
C18   C138  S    
C93   O21   A    
C121  H65   S    
C213  C221  A    
C95   O23   A    
C4    O12   A    
C136  O78   A    
Cu17  O91   S    
C22   C30   A    
Cu18  O92   S    
C164  C180  T    
C205  C213  A    
O112  H96   S    
C94   C158  S    
C219  H3    S    
C129  O68   A    
C74   C82   A    
Cu6   O27   S    
C152  O56   A    
Cu21  O81   S    
C143  O96   A    
C4    O4    A    
C146  O58   A    
Cu19  O95   S    
O108  H92   S    
C50   C58   A    
C139  O85   A    
C13   C221  A    
C49   C105  A    
C36   O103  S    
C54   C62   A    
Cu13  O44   S    
C126  H75   S    
C34   O98   S    
C96   O24   A    
O104  H88   S    
C86   C133  S    
Cu8   O30   S    
C6    C214  S    
C7    O7    A    
C170  C186  S    
C207  C215  A    
C100  C164  S    
C9    C17   A    
C101  C165  S    
Cu11  O37   S    
C63   C151  S    
C43   H24   S    
C174  C190  S    
C44   H23   S    
Cu15  O15   S    
Cu18  O66   S    
Cu9   O36   S    
C95   C159  S    
C98   O42   A    
C40   O111  S    
C41   C201  S    
C47   H32   S    
C100  O28   A    
C48   H31   S    
C105  C113  S    
C94   O22   A    
C45   C205  S    
C116  C124  S    
C140  O86   A    
C123  H72   S    
C92   O36   A    
C124  H71   S    
C37   O105  S    
C57   C65   A    
Cu15  O48   S    
Cu8   O56   S    
C29   C205  A    
Cu19  O69   S    
C47   C207  S    
C3    O3    A    
C131  O69   A    
C125  H73   S    
Cu1   Cu9   S    
C20   C140  S    
C186  C189  T    
C21   C141  S    
C83   C132  S    
C129  O65   A    
C38   C46   S    
C147  O59   A    
C75   C83   A    
C81   C130  S    
C104  O32   A    
C92   O20   A    
C24   C144  S    
C145  O49   A    
Cu19  O93   S    
C84   C108  A    
Cu8   O8    S    
C15   C223  A    
C134  O74   A    
Cu18  O90   S    
Cu24  O80   S    
C88   C112  A    
C91   O35   A    
C28   C36   S    
C151  O55   A    
C119  H61   S    
C153  C169  T    
C142  O91   A    
C50   C106  A    
C41   H20   S    
C65   H33   S    
C89   O17   A    
C7    C215  S    
C23   C31   A    
C8    O16   A    
Cu21  O83   S    
Cu22  O84   S    
C37   C45   S    
C70   C78   A    
C71   H39   S    
C16   C24   A    
C72   H40   S    
C152  O64   A    
C24   C32   A    
C137  O81   A    
Cu5   O28   S    
Cu16  O46   S    
Cu20  O94   S    
C106  C114  S    
C127  H77   S    
C111  C119  S    
C26   C202  A    
C175  C191  S    
C176  C192  S    
C5    O5    A    
C30   C206  A    
C65   C73   A    
Cu7   Cu15  S    
C173  C189  S    
C74   H42   S    
Cu3   O24   S    
Cu14  O43   S    
C58   C66   A    
C102  O30   A    
C31   C39   S    
C70   H38   S    
C10   H10   S    
C14   H14   S    
Cu23  O85   S    
Cu3   O3    S    
C78   C86   A    
C82   C106  A    
C208  C216  A    
C159  C175  T    
C160  C176  T    
C62   C70   A    
C12   C20   A    
C202  C210  A    
Cu20  O70   S    
C26   C34   S    
Cu14  O62   S    
C167  C183  T    
C2    C210  S    
C162  C178  T    
Cu10  O35   S    
C28   C204  A    
Cu1   O20   S    
C33   C41   S    
C141  O92   A    
C75   H43   S    
C31   C207  A    
Cu18  O68   S    
C116  H55   S    
C168  C184  T    
C149  O53   A    
C183  C199  S    
C93   O37   A    
C16   H16   S    
C138  O83   A    
C35   O101  S    
C91   C155  S    
C155  C171  T    
C104  C168  S    
C89   C153  S    
C100  O44   A    
Cu13  O41   S    
C33   O97   S    
C115  H53   S    
C221  H5    S    
C93   C157  S    
C39   O109  S    
C107  C115  S    
Cu21  O73   S    
C96   C160  S    
Cu7   O7    S    
Cu22  O82   S    
C43   C203  S    
C90   O18   A    
C51   C59   A    
C1    O9    A    
C135  O80   A    
C19   C27   A    
C10   C218  A    
Cu2   O50   S    
C195  C200  T    
Cu11  O11   S    
C61   C69   A    
Cu20  O96   S    
Cu9   O33   S    
C14   C222  A    
C99   O27   A    
C117  H57   S    
C215  C223  A    
Cu23  Cu24  S    
C58   C146  S    
C48   H30   S    
Cu3   Cu11  S    
Cu4   O23   S    
C84   C131  S    
C4    C212  S    
C171  C187  S    
C5    O13   A    
C132  O71   A    
C124  H70   S    
C169  C185  S    
O106  H90   S    
Cu4   O4    S    
O105  H89   S    
C117  C125  S    
C172  C188  S    
C130  O67   A    
C118  H58   S    
C15   C23   A    
C78   H46   S    
C83   C107  A    
Cu1   O17   S    
C64   C72   A    
O111  H95   S    
Cu2   O2    S    
Cu4   Cu12  S    
Cu12  O60   S    
C144  O95   A    
O102  H86   S    
C114  C122  S    
C223  H7    S    
C52   C108  A    
Cu3   O51   S    
O101  H85   S    
Cu8   Cu16  S    
C182  C198  S    
C118  C126  S    
Cu20  O72   S    
C161  C177  T    
C56   C112  A    
C128  H78   S    
