data_mof_unit_29148.cif
_audit_creation_date              2012-12-11T16:05:09-0500
_audit_creation_method            fapswitch 2.2
_symmetry_space_group_name_H-M    P1
_symmetry_Int_Tables_number       1
_space_group_crystal_system       triclinic
_cell_length_a                    10.708489
_cell_length_b                    10.637281
_cell_length_c                    16.927556
_cell_angle_alpha                 98.750442
_cell_angle_beta                  98.854587
_cell_angle_gamma                 61.308768
_cell_volume                      1664.47883839

loop_
_atom_site_label
_atom_site_type_symbol
_atom_type_description
_atom_site_fract_x
_atom_site_fract_y
_atom_site_fract_z
_atom_type_partial_charge
C1    C     C_R   0.354682 0.775362 0.398790 0.551594
C2    C     C_3   0.392192 0.688957 0.250509 -0.141140
C3    C     C_3   0.347771 0.811515 0.318891 0.075677
C4    C     C_R   0.404885 0.373566 0.357014 0.553484
C5    C     C_3   0.424283 0.876750 0.284318 0.148301
C6    C     C_3   0.284406 0.970752 0.236327 -0.061132
C7    C     C_3   0.207691 0.901583 0.270563 -0.110925
C8    C     C_3   0.250688 0.780048 0.201635 -0.140991
C9    C     C_3   0.327657 0.847880 0.168178 0.013821
C10   C     C_3   0.457920 0.258710 0.773027 0.093804
C11   C     C_3   0.401310 0.399750 0.734072 -0.112803
C12   C     C_3   0.769293 0.477127 0.271887 -0.147624
C13   C     C_3   0.336982 0.332957 0.661887 -0.041772
C14   C     C_3   0.398285 0.190721 0.700731 -0.093319
C15   C     C_3   0.257568 0.256312 0.739814 0.193134
C16   C     C_R   0.777143 0.376133 0.402238 0.556189
C17   C     C_3   0.193465 0.397132 0.698900 -0.123537
C18   C     C_3   0.259491 0.458709 0.772051 0.184205
C19   C     C_3   0.319291 0.320718 0.813026 0.136442
C20   C     C_1   0.842408 0.330687 0.706377 -0.044511
C21   C     C_1   0.887649 0.297361 0.773612 0.002467
C22   C     C_1   0.338701 0.811270 0.709922 -0.034658
C23   C     C_3   0.813974 0.349104 0.321330 0.034655
C24   C     C_1   0.313458 0.838573 0.778630 -0.003798
C25   C     C_R   0.894371 0.309990 0.091405 0.565274
C26   C     C_R   0.321557 0.302348 0.119436 0.546794
C27   C     C_R   0.296156 0.888026 0.087249 0.542212
C28   C     C_R   0.356881 0.770935 0.627293 0.539795
C29   C     C_R   0.939933 0.276778 0.855822 0.604412
C30   C     C_R   0.308114 0.294172 0.891978 0.593785
C31   C     C_R   0.279960 0.884678 0.859081 0.583043
C32   C     C_R   0.366407 0.344675 0.584182 0.552437
C33   C     C_R   0.777644 0.377787 0.628975 0.541389
C34   C     C_3   0.754376 0.274731 0.252027 -0.165956
C35   C     C_1   0.372619 0.360320 0.272596 -0.049526
C36   C     C_1   0.347880 0.342260 0.201616 -0.028666
C37   C     C_3   0.710762 0.401987 0.201454 -0.197582
C38   C     C_3   0.710402 0.085874 0.765357 -0.268006
C39   C     C_3   0.606264 0.953754 0.288286 -0.275920
C40   C     C_3   0.904804 0.194568 0.220948 -0.114496
C41   C     C_3   0.960236 0.271687 0.290970 0.219064
C42   C     C_3   0.917428 0.396046 0.241603 0.251611
C43   C     C_3   0.859345 0.323114 0.171753 0.059786
C44   C     C_3   0.469320 0.756698 0.215242 -0.123312
Cr1   Cr    Cr6+3 0.608340 0.611040 0.520430 1.025112
Cr2   Cr    Cr6+3 0.287650 0.601120 0.489350 1.016788
Cr3   Cr    Cr6+3 0.604040 0.287870 0.490280 1.003879
Cr4   Cr    Cr6+3 0.054020 0.052700 0.970850 1.037818
Cr5   Cr    Cr6+3 0.059230 0.375120 0.993390 1.082739
Cr6   Cr    Cr6+3 0.374950 0.061200 0.992340 1.045381
H1    H     H_    0.720960 0.591318 0.296788 0.153262
H2    H     H_    0.954794 0.081394 0.194535 0.126180
H3    H     H_    0.436522 0.574019 0.259827 0.104836
H4    H     H_    0.570802 0.703777 0.186460 0.116093
H5    H     H_    0.626130 0.254871 0.854692 0.261077
H6    H     H_    0.813604 0.036137 0.802856 0.175380
H7    H     H_    0.720514 0.141752 0.718280 0.154519
H8    H     H_    0.686692 0.997701 0.736709 0.156159
H9    H     H_    0.164171 0.146267 0.689014 0.313497
H10   H     H_    0.155101 0.663115 0.769118 0.331655
H11   H     H_    0.090124 0.291152 0.377856 0.330171
H12   H     H_    0.244799 0.085238 0.226677 0.170536
H13   H     H_    0.017823 0.501577 0.289152 0.320713
H14   H     H_    0.465846 0.009650 0.375649 0.285330
H15   H     H_    0.675353 0.989709 0.330612 0.161229
H16   H     H_    0.538855 0.038156 0.246827 0.163907
H17   H     H_    0.677193 0.853343 0.253481 0.147970
H18   H     H_    0.104583 0.954204 0.297711 0.161613
H19   H     H_    0.180373 0.738285 0.165658 0.145317
H20   H     H_    0.461500 0.459165 0.730355 0.120139
H21   H     H_    0.450158 0.081013 0.669350 0.125920
H22   H     H_    0.084960 0.451324 0.667015 0.133303
H23   H     H_    0.611022 0.450812 0.160984 0.116358
H24   H     H_    0.687508 0.223909 0.258609 0.129770
N1    N     N_2   0.598745 0.186326 0.815119 -0.495725
N2    N     N_2   0.517409 0.927522 0.332783 -0.503958
O1    O     O_R   0.751220 0.499230 0.435170 -0.526013
O2    O     O_R   0.412990 0.180750 0.091610 -0.532676
O3    O     O_R   0.366620 0.943130 0.065760 -0.506739
O4    O     O_R   0.477220 0.727600 0.436870 -0.492424
O5    O     O_R   0.160510 0.906330 0.879210 -0.496668
O6    O     O_R   0.930190 0.179050 0.889450 -0.522416
O7    O     O_R   0.909140 0.398170 0.896710 -0.507176
O8    O     O_R   0.186190 0.363460 0.918830 -0.485657
O9    O     O_R   0.401670 0.173200 0.913310 -0.493099
O10   O     O_R   0.356120 0.936130 0.900470 -0.485039
O11   O     O_3   0.162740 0.163010 0.985530 -0.283026
O12   O     O_R   0.297880 0.469080 0.560050 -0.497343
O13   O     O_R   0.258650 0.745120 0.411470 -0.524862
O14   O     O_R   0.297070 0.467240 0.395960 -0.493441
O15   O     O_R   0.488830 0.252610 0.387790 -0.529911
O16   O     O_R   0.724400 0.302390 0.420980 -0.516632
O17   O     O_R   0.752100 0.501210 0.612190 -0.504830
O18   O     O_R   0.478040 0.729440 0.600970 -0.495592
O19   O     O_R   0.259530 0.747110 0.588490 -0.514306
O20   O     O_3   0.185745 0.178274 0.745182 -0.726366
O21   O     O_3   0.189524 0.596137 0.811581 -0.682447
O22   O     O_3   0.086223 0.210190 0.341799 -0.732729
O23   O     O_R   0.489720 0.254590 0.564810 -0.514278
O24   O     O_3   0.003857 0.458344 0.234548 -0.672816
O25   O     O_R   0.725220 0.304230 0.585080 -0.502757
O26   O     O_3   0.500010 0.500010 0.500020 -0.275418
O27   O     O_R   0.171830 0.913880 0.057510 -0.514321
O28   O     O_R   0.940690 0.186050 0.054730 -0.515818
O29   O     O_R   0.920470 0.405720 0.075010 -0.467917
O30   O     O_R   0.196690 0.370460 0.084120 -0.467953

loop_
_geom_bond_atom_site_label_1
_geom_bond_atom_site_label_2
_ccdc_geom_bond_type
C11   C18   S    
Cr3   O25   S    
C34   C37   S    
C14   H21   S    
Cr5   O11   S    
C13   C32   S    
H11   O22   S    
Cr1   O17   S    
Cr6   O3    S    
C26   O30   A    
C6    C9    S    
C11   H20   S    
C25   O29   A    
C7    C8    S    
Cr2   O13   S    
C15   C19   S    
Cr2   O26   S    
C12   C23   S    
C8    H19   S    
C26   O2    A    
C28   O19   A    
C34   C40   S    
Cr5   O8    S    
C29   O7    A    
C3    C7    S    
C5    C6    S    
Cr4   O28   S    
Cr3   O23   S    
Cr4   O5    S    
C28   O18   A    
C16   O1    A    
Cr3   O16   S    
C12   C37   S    
C12   C42   S    
Cr6   O9    S    
C7    H18   S    
C38   H8    S    
C40   C43   S    
Cr2   O19   S    
C35   C36   T    
C2    C44   S    
C8    C9    S    
C23   C41   S    
C18   O21   S    
Cr2   O12   S    
C4    O15   A    
H5    N1    S    
C41   C42   S    
C4    C35   S    
C31   O10   A    
C22   C28   S    
C13   C14   S    
C39   H15   S    
C25   C43   S    
C39   H17   S    
Cr1   O18   S    
Cr6   O2    S    
C4    O14   A    
C38   N1    S    
H10   O21   S    
C10   C14   S    
C15   O20   S    
C18   C19   S    
Cr5   O29   S    
C40   H2    S    
Cr4   O27   S    
C21   C29   S    
C1    C3    S    
C37   C43   S    
H13   O24   S    
C42   O24   S    
C38   H7    S    
C10   N1    S    
C10   C19   S    
C23   C34   S    
C17   C18   S    
H14   N2    S    
Cr4   O11   S    
C39   N2    S    
C30   O9    A    
C6    C7    S    
Cr6   O11   S    
C34   H24   S    
C20   C33   S    
C26   C36   S    
C40   C41   S    
C5    C44   S    
C16   O16   A    
C16   C23   S    
C39   H16   S    
C33   O25   A    
H9    O20   S    
C12   H1    S    
C9    C27   S    
C15   C17   S    
C37   H23   S    
C9    C44   S    
C1    O13   A    
C14   C15   S    
Cr3   O15   S    
Cr1   O26   S    
C2    C8    S    
C3    C5    S    
C2    H3    S    
C33   O17   A    
C25   O28   A    
Cr5   O30   S    
Cr2   O14   S    
C27   O3    A    
C31   O5    A    
C32   O23   A    
C13   C17   S    
C6    H12   S    
C5    N2    S    
C2    C3    S    
C24   C31   S    
C29   O6    A    
C11   C13   S    
Cr5   O7    S    
C27   O27   A    
Cr4   O6    S    
Cr1   O4    S    
C22   C24   T    
C30   O8    A    
C10   C11   S    
Cr6   O10   S    
C44   H4    S    
C38   H6    S    
C20   C21   T    
C17   H22   S    
C42   C43   S    
Cr3   O26   S    
C1    O4    A    
C41   O22   S    
Cr1   O1    S    
C19   C30   S    
C32   O12   A    
