data_mof_unit_10060.cif
_audit_creation_date              2013-03-05T16:44:37-0500
_audit_creation_method            fapswitch 2.2
_symmetry_space_group_name_H-M    P1
_symmetry_Int_Tables_number       1
_space_group_crystal_system       triclinic
_cell_length_a                    27.751826
_cell_length_b                    10.687612
_cell_length_c                    9.838047
_cell_angle_alpha                 90.07063
_cell_angle_beta                  89.915605
_cell_angle_gamma                 89.985921
_cell_volume                      2917.96663279

loop_
_atom_site_label
_atom_site_type_symbol
_atom_site_description
_atom_site_fract_x
_atom_site_fract_y
_atom_site_fract_z
_atom_type_partial_charge
O1    O     O_R   0.500010 0.316790 0.614690 -0.618173
O2    O     O_R   0.500000 0.316760 0.385350 -0.621595
C1    C     C_R   0.499977 0.260279 0.499714 0.899669
O3    O     O_R   0.428760 0.500040 0.614660 -0.626701
O4    O     O_R   0.428750 0.500000 0.385310 -0.617906
C2    C     C_R   0.406033 0.500508 0.500223 0.872441
Zn1   Zn    Zn3+2 0.500000 0.500020 0.653130 0.941242
Zn2   Zn    Zn3+2 0.500000 0.499980 0.346870 0.959181
O5    O     O_R   0.500000 0.683240 0.614650 -0.622584
O6    O     O_R   0.499990 0.683210 0.385310 -0.606287
O7    O     O_R   0.571250 0.500000 0.614690 -0.627170
O8    O     O_R   0.571240 0.499960 0.385340 -0.628075
C3    C     C_R   0.498420 0.739720 0.499678 0.888681
C4    C     C_R   0.593983 0.500065 0.499890 0.877781
C5    C     C_R   0.178100 0.406143 0.542512 0.520915
O9    O     O_2   0.203396 0.305067 0.583375 -0.563424
N1    N     N_R   0.201702 0.511786 0.501936 -0.354619
C6    C     C_R   0.177544 0.614640 0.456017 0.465298
C7    C     C_R   0.277866 0.504073 0.380917 -0.133534
C8    C     C_R   0.327742 0.498694 0.379334 -0.245528
C9    C     C_R   0.328663 0.513210 0.625546 -0.274141
C10   C     C_R   0.278420 0.518407 0.628333 0.052751
C11   C     C_R   0.253069 0.513530 0.504230 0.292648
C12   C     C_R   0.101876 0.507975 0.496545 -0.051718
C13   C     C_R   0.127759 0.402452 0.541244 -0.022055
C14   C     C_R   0.103053 0.295503 0.582607 -0.140359
C15   C     C_R   0.127180 0.614888 0.452981 -0.017458
C16   C     C_R   0.353454 0.503609 0.501529 -0.041131
H1    H     H_    0.348328 0.518270 0.720477 0.153108
H2    H     H_    0.122229 0.212434 0.615049 0.189591
C17   C     C_R   0.646608 0.500376 0.499407 -0.040683
C18   C     C_R   0.974891 0.400169 0.548270 0.044761
C19   C     C_R   0.974306 0.609310 0.441020 0.044374
C20   C     C_R   0.949389 0.504311 0.494844 0.070453
C21   C     C_R   0.948253 0.300934 0.606783 -0.216933
C22   C     C_R   0.898328 0.301792 0.607892 -0.136753
C23   C     C_R   0.873010 0.401832 0.551816 -0.021323
C24   C     C_R   0.898321 0.503522 0.495437 -0.051802
C25   C     C_R   0.872427 0.604491 0.439811 -0.021079
C26   C     C_R   0.822045 0.602152 0.442137 0.504075
N2    N     N_R   0.798385 0.502277 0.497253 -0.356692
C27   C     C_R   0.822618 0.402933 0.551352 0.504697
C28   C     C_R   0.721877 0.491895 0.375460 -0.098283
C29   C     C_R   0.671843 0.491501 0.375937 -0.217213
C30   C     C_R   0.672072 0.509783 0.622221 -0.219296
C31   C     C_R   0.722124 0.510571 0.621348 -0.098088
C32   C     C_R   0.747021 0.501575 0.498045 0.315857
O10   O     O_2   0.797932 0.305248 0.603480 -0.557032
C33   C     C_R   0.025912 0.399015 0.542909 0.045424
C34   C     C_R   0.050820 0.506522 0.495284 0.069154
C35   C     C_R   0.025318 0.612638 0.446608 0.046147
C36   C     C_R   0.053137 0.293350 0.582998 -0.217927
H3    H     H_    0.653018 0.483913 0.279921 0.156919
H4    H     H_    0.741198 0.484503 0.280063 0.142826
H5    H     H_    0.879627 0.223391 0.653618 0.191624
H6    H     H_    0.964749 0.221662 0.655447 0.143038
H7    H     H_    0.037124 0.206006 0.613259 0.141605
O11   O     O_2   0.202299 0.716536 0.414817 -0.576526
C37   C     C_R   0.101869 0.719915 0.408939 -0.150731
H8    H     H_    0.346076 0.491335 0.282497 0.157185
H9    H     H_    0.258218 0.499637 0.286188 0.134661
H10   H     H_    0.120568 0.803842 0.376806 0.190187
C38   C     C_R   0.947091 0.707508 0.382705 -0.217337
C39   C     C_R   0.897168 0.705113 0.382763 -0.136389
O12   O     O_2   0.796804 0.699187 0.390834 -0.557691
C40   C     C_R   0.051949 0.719289 0.406226 -0.219750
H11   H     H_    0.963117 0.787295 0.333706 0.142799
H12   H     H_    0.653414 0.517004 0.718681 0.154343
H13   H     H_    0.878009 0.782906 0.337425 0.191701
H14   H     H_    0.741643 0.518449 0.716213 0.142627
H15   H     H_    0.035448 0.805462 0.374252 0.142068
C41   C     C_R   0.527973 0.062718 0.590876 0.126067
C42   C     C_R   0.501069 0.128644 0.496158 -0.113188
C43   C     C_R   0.477604 0.066651 0.389891 -0.261327
H16   H     H_    0.458130 0.118632 0.312876 0.162579
C44   C     C_R   0.475392 0.937371 0.389876 -0.029378
C45   C     C_R   0.498420 0.871860 0.496461 -0.151165
C46   C     C_R   0.526884 0.935054 0.590420 0.118371
C47   C     C_3   0.527209 0.927930 0.742142 -0.475391
C48   C     C_3   0.528285 0.069708 0.742525 -0.470826
H17   H     H_    0.493273 0.888732 0.784301 0.205342
H18   H     H_    0.560857 0.884963 0.781720 0.204962
H19   H     H_    0.494907 0.111692 0.784946 0.204560
H20   H     H_    0.562524 0.109051 0.782538 0.209937
C49   C     C_R   0.458802 0.473446 0.071454 0.243318
N3    N     N_R   0.499670 0.499140 0.142800 -0.105711
C50   C     C_R   0.539271 0.538597 0.071921 -0.130738
H21   H     H_    0.571225 0.567813 0.126066 0.150113
C51   C     C_R   0.539285 0.538533 0.927825 -0.141195
H22   H     H_    0.571252 0.567694 0.873528 0.148933
N4    N     N_R   0.499670 0.499180 0.857150 -0.108537
C52   C     C_R   0.458719 0.474079 0.928772 0.203800
C53   C     C_3   0.430125 0.356251 0.922475 -0.503685
C54   C     C_3   0.430612 0.354885 0.076812 -0.515590
H23   H     H_    0.393612 0.371716 0.879414 0.194607
H24   H     H_    0.450492 0.277711 0.876118 0.212496
H25   H     H_    0.394322 0.368578 0.122163 0.196483
H26   H     H_    0.451638 0.275865 0.120013 0.212946
C55   C     C_R   0.444724 0.875309 0.286948 0.149103
C56   C     C_R   0.461348 0.859958 0.153090 -0.115940
C57   C     C_R   0.432726 0.798227 0.057190 -0.150872
C58   C     C_R   0.387154 0.753725 0.093644 -0.123414
C59   C     C_R   0.370165 0.770567 0.226202 -0.115559
C60   C     C_R   0.398999 0.830039 0.323145 -0.141474
H27   H     H_    0.496639 0.893909 0.123857 0.128601
H28   H     H_    0.445870 0.784312 0.954762 0.126148
H29   H     H_    0.365018 0.706233 0.019194 0.130109
H30   H     H_    0.334656 0.737456 0.253845 0.157706
H31   H     H_    0.385713 0.841241 0.426027 0.125507
C61   C     C_R   0.253339 0.527265 0.761222 0.115573
C62   C     C_R   0.263094 0.439419 0.863836 -0.110563
C63   C     C_R   0.239517 0.447053 0.989245 -0.155980
C64   C     C_R   0.206321 0.542829 0.013725 -0.098193
C65   C     C_R   0.196750 0.631298 0.912835 -0.118116
C66   C     C_R   0.220213 0.623936 0.787170 -0.168688
H32   H     H_    0.288576 0.364317 0.846209 0.135336
H33   H     H_    0.246942 0.378482 0.067318 0.135141
H34   H     H_    0.188107 0.548686 0.110925 0.139195
H35   H     H_    0.171253 0.705895 0.932163 0.142492
H36   H     H_    0.212960 0.694388 0.711002 0.160258

loop_
_geom_bond_atom_site_label_1
_geom_bond_atom_site_label_2
_geom_bond_distance
_ccdc_geom_bond_type
C50   H21   1.081067 S    
C53   C54   1.518540 S    
N2    C27   1.365627 A    
C62   C63   1.397978 A    
C12   C15   1.408245 A    
C4    C17   1.460429 S    
C48   H20   1.111534 S    
C65   C66   1.398563 A    
C49   N3    1.362511 A    
C44   C55   1.480149 S    
Zn1   O7    2.012610 S    
C25   C39   1.394153 A    
C56   H27   1.083151 S    
N1    C11   1.425891 S    
C43   C44   1.383075 A    
C22   C23   1.394065 A    
O3    Zn1   2.013487 S    
C37   C40   1.385710 A    
C63   H33   1.082256 S    
O7    C4    1.292859 A    
C5    C13   1.397700 A    
C54   H26   1.111627 S    
C5    O9    1.350164 S    
C5    N1    1.365232 A    
C42   C43   1.398759 A    
C23   C27   1.398531 A    
O5    C3    1.283555 A    
C61   C62   1.406028 A    
C52   C53   1.489908 S    
C41   C46   1.364773 A    
C29   H3    1.083085 S    
C6    O11   1.350154 S    
C2    C16   1.459558 S    
C40   H15   1.076007 S    
C10   C61   1.483110 S    
C59   H30   1.081615 S    
C8    H8    1.082150 S    
C65   H35   1.082325 S    
C19   C38   1.415401 A    
C64   H34   1.082707 S    
C55   C60   1.403780 A    
C53   H23   1.111284 S    
O1    Zn1   1.994016 S    
C9    C10   1.395666 A    
C48   H19   1.109851 S    
C63   C64   1.397422 A    
C49   C52   1.403746 A    
N1    C6    1.365169 A    
C3    C45   1.412651 S    
C10   C11   1.410930 A    
C12   C34   1.417045 A    
C24   C25   1.408043 A    
C38   H11   1.076056 S    
C17   C29   1.404319 A    
C57   C58   1.397746 A    
C12   C13   1.408187 A    
O3    C2    1.291297 A    
C43   H16   1.084835 S    
N4    C52   1.363174 A    
C47   H17   1.110844 S    
N3    C50   1.367694 A    
C8    C16   1.399813 A    
C54   H25   1.110506 S    
C34   C35   1.420701 A    
C13   C14   1.393890 A    
C45   C46   1.391223 A    
C9    H1    1.083685 S    
C38   C39   1.385699 A    
O1    C1    1.281624 A    
C21   C22   1.385551 A    
C18   C20   1.420601 A    
C7    C11   1.397407 A    
C28   C29   1.388552 A    
C18   C21   1.415406 A    
C23   C24   1.408161 A    
C14   C36   1.385443 A    
C47   H18   1.111653 S    
C49   C54   1.490281 S    
C28   H4    1.082995 S    
C55   C56   1.404139 A    
Zn2   O8    2.013487 S    
C33   C36   1.415368 A    
Zn1   N4    2.007197 S    
C30   H12   1.083038 S    
C19   C20   1.420788 A    
N2    C32   1.425476 S    
C58   H29   1.082613 S    
C27   O10   1.350170 S    
C39   H13   1.083649 S    
C44   C45   1.414829 A    
C62   H32   1.083242 S    
C26   N2    1.365749 A    
C9    C16   1.403451 A    
O8    C4    1.292469 A    
C14   H2    1.083629 S    
C53   H24   1.109099 S    
C26   O12   1.350166 S    
C50   C51   1.417629 A    
C51   N4    1.367759 A    
C25   C26   1.398579 A    
C64   C65   1.397391 A    
C57   H28   1.081263 S    
Zn1   O5    1.994899 S    
C31   C32   1.398336 A    
C37   H10   1.083625 S    
C21   H6    1.076118 S    
C20   C24   1.417269 A    
O2    Zn2   1.994900 S    
C6    C15   1.398047 A    
C41   C42   1.387689 A    
O6    C3    1.277033 A    
O4    Zn2   2.012612 S    
C66   H36   1.082010 S    
C19   C35   1.417294 A    
C7    C8    1.385387 A    
O2    C1    1.277480 A    
C41   C48   1.493747 S    
C22   H5    1.083651 S    
C15   C37   1.393854 A    
C46   C47   1.494720 S    
O4    C2    1.293619 A    
C7    H9    1.081438 S    
C56   C57   1.399029 A    
Zn2   N3    2.007694 S    
C58   C59   1.397485 A    
C1    C42   1.407579 S    
C18   C33   1.416900 A    
C31   H14   1.082978 S    
C36   H7    1.076122 S    
C47   C48   1.515562 S    
C30   C31   1.389084 A    
Zn2   O6    1.994015 S    
C33   C34   1.420667 A    
C17   C30   1.404146 A    
C59   C60   1.398190 A    
C60   H31   1.083199 S    
C51   H22   1.081034 S    
C28   C32   1.397953 A    
C61   C66   1.405679 A    
C35   C40   1.415598 A    
