data_mof_unit_34204.cif
_audit_creation_date              2012-12-11T15:47:04-0500
_audit_creation_method            fapswitch 2.2
_symmetry_space_group_name_H-M    P1
_symmetry_Int_Tables_number       1
_space_group_crystal_system       triclinic
_cell_length_a                    11.538679
_cell_length_b                    11.52162
_cell_length_c                    19.57108
_cell_angle_alpha                 90.439512
_cell_angle_beta                  90.006926
_cell_angle_gamma                 59.988115
_cell_volume                      2252.92255063

loop_
_atom_site_label
_atom_site_type_symbol
_atom_type_description
_atom_site_fract_x
_atom_site_fract_y
_atom_site_fract_z
_atom_type_partial_charge
C1    C     C_R   0.640379 0.117318 0.599315 0.545469
C2    C     C_1   0.652856 0.149651 0.668688 0.004496
C3    C     C_R   0.674979 0.637930 0.198988 0.021736
C4    C     C_R   0.612389 0.746056 0.598690 0.543004
C5    C     C_R   0.578721 0.624788 0.235547 0.031755
C6    C     C_R   0.571557 0.635215 0.304947 0.009401
C7    C     C_R   0.775140 0.646340 0.306363 -0.173808
C8    C     C_R   0.780300 0.637989 0.235035 -0.172022
C9    C     C_3   0.430859 0.694749 0.226121 -0.264359
C10   C     C_3   0.420820 0.707456 0.302953 -0.232266
C11   C     C_R   0.661605 0.660805 0.340718 0.019063
C12   C     C_1   0.641085 0.703991 0.668047 0.004822
C13   C     C_R   0.152618 0.186465 0.189296 -0.034402
C14   C     C_R   0.214316 0.249053 0.221306 0.001123
C15   C     C_R   0.236569 0.235593 0.290258 0.011184
C16   C     C_R   0.240966 0.145266 0.598230 0.545133
C17   C     C_R   0.152906 0.080796 0.297434 0.183690
C18   C     C_R   0.133942 0.092266 0.226613 -0.101123
C19   C     C_3   0.182234 0.391883 0.222275 -0.265918
C20   C     C_3   0.204049 0.377916 0.298697 -0.257138
C21   C     C_R   0.199877 0.158956 0.330593 -0.000562
C22   C     C_R   0.687431 0.195393 0.199267 -0.004762
C23   C     C_1   0.126660 0.198849 0.859252 0.003693
C24   C     C_R   0.789747 0.084722 0.232454 0.015936
C25   C     C_R   0.784530 0.065915 0.301016 0.135817
C26   C     C_R   0.581743 0.280204 0.309821 -0.167599
C27   C     C_R   0.587793 0.299004 0.239397 -0.161745
C28   C     C_R   0.646048 0.113635 0.403414 0.538577
C29   C     C_3   0.851131 0.939273 0.215365 -0.242431
C30   C     C_3   0.843508 0.917859 0.291116 0.107622
C31   C     C_R   0.674780 0.157433 0.339696 -0.013904
C32   C     C_R   0.081796 0.231157 0.928552 0.546592
C33   C     C_R   0.684014 0.604365 0.929454 0.545763
C34   C     C_1   0.171536 0.170214 0.727731 -0.030039
C35   C     C_R   0.708510 0.206692 0.930071 0.546489
C36   C     C_R   0.084034 0.234746 0.124830 0.549839
C37   C     C_R   0.684903 0.607369 0.127122 0.543424
C38   C     C_R   0.710365 0.212927 0.128219 0.549051
C39   C     C_R   0.618726 0.734818 0.404066 0.539753
C40   C     C_R   0.244117 0.140612 0.401191 0.527779
C41   C     C_1   0.670582 0.646341 0.860077 0.003995
C42   C     C_1   0.654695 0.683709 0.728445 -0.030432
C43   C     C_1   0.663545 0.666584 0.799669 -0.030807
C44   C     C_1   0.150123 0.182308 0.798929 -0.030505
C45   C     C_1   0.195334 0.160800 0.667427 0.004707
C46   C     C_1   0.678798 0.191269 0.860721 0.003688
C47   C     C_1   0.658528 0.167188 0.729044 -0.030097
C48   C     C_1   0.665822 0.180880 0.800319 -0.030356
Cr1   Cr    Cr6+3 0.404720 0.198220 0.499960 1.028525
Cr2   Cr    Cr6+3 0.698290 0.897110 0.500380 1.049861
Cr3   Cr    Cr6+3 0.396970 0.904720 0.499610 1.040503
Cr4   Cr    Cr6+3 0.926290 0.152010 0.028150 1.024357
Cr5   Cr    Cr6+3 0.921440 0.451830 0.027490 1.024900
Cr6   Cr    Cr6+3 0.626370 0.446880 0.028730 1.026333
H1    H     H_    0.851450 0.656421 0.333456 0.124420
H2    H     H_    0.391345 0.792608 0.199860 0.141014
H3    H     H_    0.372649 0.813764 0.319850 0.208475
H4    H     H_    0.089498 0.038690 0.202759 0.168975
H5    H     H_    0.077224 0.463922 0.208680 0.154931
H6    H     H_    0.110815 0.439523 0.328783 0.138367
H7    H     H_    0.513286 0.391438 0.216359 0.129476
H8    H     H_    0.004014 0.750858 0.309256 0.306380
H9    H     H_    0.379486 0.648153 0.326439 0.147213
H10   H     H_    0.094051 0.032300 0.379855 0.344680
H11   H     H_    0.258879 0.405513 0.194803 0.134036
H12   H     H_    0.291390 0.386133 0.315414 0.144807
H13   H     H_    0.500095 0.357053 0.339641 0.127944
H14   H     H_    0.954963 0.896258 0.195392 0.167031
H15   H     H_    0.784165 0.916587 0.184197 0.094554
H16   H     H_    0.773331 0.882264 0.305042 0.123554
H17   H     H_    0.862480 0.637481 0.208269 0.118543
H18   H     H_    0.395743 0.627958 0.205081 0.138269
O1    O     O_R   0.267750 0.231960 0.575440 -0.504317
O2    O     O_R   0.596230 0.579400 0.952760 -0.504849
O3    O     O_R   0.639160 0.321170 0.958690 -0.493472
O4    O     O_R   0.527290 0.186640 0.570530 -0.495182
O5    O     O_R   0.821370 0.124220 0.104400 -0.520447
O6    O     O_R   0.037020 0.167050 0.097880 -0.513541
O7    O     O_R   0.056310 0.349620 0.102920 -0.515492
O8    O     O_R   0.797790 0.564880 0.097980 -0.508159
O9    O     O_R   0.596000 0.584270 0.104310 -0.518674
O10   O     O_R   0.638950 0.325690 0.099180 -0.504062
O11   O     O_3   0.824700 0.350240 0.028120 -0.253369
O12   O     O_R   0.685950 0.784660 0.430010 -0.507257
O13   O     O_R   0.728110 0.003450 0.576380 -0.501434
O14   O     O_R   0.682980 0.789190 0.570500 -0.494988
O15   O     O_R   0.499300 0.771880 0.575540 -0.503758
O16   O     O_R   0.285350 0.030870 0.569740 -0.493158
O17   O     O_R   0.270960 0.227070 0.423890 -0.515281
O18   O     O_R   0.530270 0.182120 0.430040 -0.508799
O19   O     O_R   0.731320 0.998570 0.424830 -0.485143
O20   O     O_3   0.969977 0.846360 0.321293 -0.637957
O21   O     O_3   0.115023 0.000955 0.331853 -0.660716
O22   O     O_R   0.502510 0.767000 0.423980 -0.519705
O23   O     O_R   0.288320 0.026340 0.429250 -0.499874
O24   O     O_3   0.499990 0.000020 0.499980 -0.258649
O25   O     O_R   0.821590 0.119350 0.952850 -0.505312
O26   O     O_R   0.037230 0.162540 0.957390 -0.494280
O27   O     O_R   0.056530 0.344750 0.951370 -0.504781
O28   O     O_R   0.798000 0.560370 0.957490 -0.493818

loop_
_geom_bond_atom_site_label_1
_geom_bond_atom_site_label_2
_ccdc_geom_bond_type
C25   C31   A    
C10   H9    S    
C9    H18   S    
C7    H1    S    
Cr1   O18   S    
Cr2   O12   S    
C7    C8    A    
C4    O15   A    
Cr5   O27   S    
C7    C11   A    
C35   O3    A    
C26   C27   A    
C13   C18   A    
C26   H13   S    
C20   H12   S    
Cr5   O7    S    
C39   O12   A    
C5    C6    A    
C4    O14   A    
C22   C38   S    
Cr4   O25   S    
C1    C2    S    
C24   C29   S    
C12   C42   T    
C27   H7    S    
Cr2   O13   S    
Cr6   O2    S    
C18   H4    S    
C19   C20   S    
H8    O20   S    
C40   O17   A    
C4    C12   S    
C9    C10   S    
Cr3   O24   S    
C26   C31   A    
C13   C14   A    
C38   O10   A    
C41   C43   T    
C37   O9    A    
Cr4   O6    S    
Cr6   O11   S    
C30   H16   S    
C29   H15   S    
Cr5   O28   S    
C1    O13   A    
C15   C20   S    
C37   O8    A    
C46   C48   T    
C16   O1    A    
Cr5   O8    S    
C34   C44   S    
C24   C25   A    
C13   C36   S    
C30   O20   S    
C3    C8    A    
Cr3   O15   S    
C6    C11   A    
C34   C45   T    
C19   H5    S    
C17   C21   A    
C23   C44   T    
Cr3   O16   S    
Cr4   O11   S    
C39   O22   A    
C5    C9    S    
C29   C30   S    
C29   H14   S    
Cr2   O19   S    
C47   C48   S    
C10   H3    S    
C17   C18   A    
Cr1   O4    S    
C9    H2    S    
C11   C39   S    
C22   C27   A    
Cr1   O1    S    
C17   O21   S    
C42   C43   S    
C40   O23   A    
Cr4   O5    S    
Cr6   O10   S    
C25   C30   S    
C8    H17   S    
C1    O4    A    
C14   C19   S    
C28   C31   S    
Cr1   O17   S    
C3    C5    A    
C36   O7    A    
C16   C45   S    
H10   O21   S    
C38   O5    A    
C2    C47   T    
C32   O27   A    
Cr5   O11   S    
C33   O28   A    
C33   C41   S    
C23   C32   S    
C36   O6    A    
Cr2   O24   S    
C21   C40   S    
Cr4   O26   S    
C32   O26   A    
C19   H11   S    
C28   O19   A    
C22   C24   A    
Cr1   O24   S    
C6    C10   S    
Cr2   O14   S    
Cr3   O22   S    
Cr6   O3    S    
C33   O2    A    
C15   C21   A    
C3    C37   S    
C16   O16   A    
C14   C15   A    
C28   O18   A    
C20   H6    S    
C35   O25   A    
C35   C46   S    
Cr6   O9    S    
Cr3   O23   S    
