data_mof_unit_17190.cif
_audit_creation_date              2013-03-05T16:01:51-0500
_audit_creation_method            fapswitch 2.2
_symmetry_space_group_name_H-M    P1
_symmetry_Int_Tables_number       1
_space_group_crystal_system       triclinic
_cell_length_a                    20.159789
_cell_length_b                    7.312285
_cell_length_c                    13.583264
_cell_angle_alpha                 89.998351
_cell_angle_beta                  103.046797
_cell_angle_gamma                 90.003313
_cell_volume                      1950.67591064

loop_
_atom_site_label
_atom_site_type_symbol
_atom_site_description
_atom_site_fract_x
_atom_site_fract_y
_atom_site_fract_z
_atom_type_partial_charge
O1    O     O_R   0.449520 0.506760 0.599710 -0.538595
O2    O     O_R   0.550480 0.006760 0.400290 -0.538574
O3    O     O_R   0.587930 0.180200 0.595790 -0.568106
O4    O     O_R   0.412070 0.680200 0.404210 -0.568137
C1    C     C_R   0.615319 0.343780 0.614421 0.979015
C2    C     C_R   0.384681 0.843775 0.385579 0.979043
O5    O     O_R   0.452350 0.177380 0.611700 -0.573380
O6    O     O_R   0.547650 0.677380 0.388300 -0.573445
O7    O     O_R   0.413930 0.001760 0.416320 -0.600764
O8    O     O_R   0.586070 0.501760 0.583680 -0.600785
C3    C     C_R   0.436086 0.345482 0.636849 0.917615
C4    C     C_R   0.563913 0.845489 0.363152 0.917619
O9    O     O_3   0.487550 0.337460 0.435880 -0.285060
O10   O     O_3   0.512450 0.837460 0.564120 -0.285051
V1    V     V_3+5 0.502310 0.064670 0.511900 1.264759
V2    V     V_3+5 0.497690 0.564670 0.488100 1.264714
C5    C     C_R   0.611198 0.889369 0.113345 -0.159889
C6    C     C_R   0.388792 0.389234 0.886661 -0.159999
H1    H     H_    0.517596 0.896053 0.162738 0.108054
H2    H     H_    0.482400 0.395886 0.837280 0.108033
H3    H     H_    0.693715 0.885182 0.988177 0.148726
H4    H     H_    0.306269 0.385019 0.011823 0.148665
H5    H     H_    0.585477 0.904122 0.034560 0.123456
H6    H     H_    0.414512 0.403924 0.965450 0.123473
C7    C     C_R   0.604201 0.854554 0.286678 -0.063778
C8    C     C_R   0.395793 0.354528 0.713323 -0.063763
C9    C     C_R   0.934128 0.851721 0.316905 -0.252429
C10   C     C_R   0.065860 0.351808 0.683088 -0.252246
C11   C     C_R   0.900578 0.865287 0.394891 -0.166170
C12   C     C_R   0.099411 0.365380 0.605104 -0.166121
C13   C     C_R   0.829817 0.882297 0.375369 0.432017
C14   C     C_R   0.170174 0.382354 0.624626 0.431994
C15   C     C_R   0.789757 0.868765 0.273734 -0.065577
C16   C     C_R   0.210233 0.368786 0.726262 -0.065162
C17   C     C_R   0.825753 0.866091 0.194116 0.122143
C18   C     C_R   0.174235 0.366087 0.805879 0.122231
C19   C     C_R   0.716504 0.864771 0.246070 0.085402
C20   C     C_R   0.283486 0.364762 0.753926 0.085429
C21   C     C_R   0.682474 0.878338 0.142241 0.166273
C22   C     C_R   0.317515 0.378256 0.857759 0.166343
C23   C     C_R   0.719377 0.879143 0.067383 -0.259059
C24   C     C_R   0.280608 0.379032 0.932617 -0.258730
C25   C     C_R   0.789575 0.874019 0.092641 -0.003214
C26   C     C_R   0.210409 0.373933 0.907357 -0.003859
C27   C     C_R   0.675113 0.838894 0.315949 -0.016413
C28   C     C_R   0.324878 0.338925 0.684045 -0.016440
C29   C     C_R   0.572401 0.883042 0.185714 -0.194798
C30   C     C_R   0.427593 0.382927 0.814296 -0.194762
C31   C     C_R   0.897810 0.859851 0.216960 -0.075046
C32   C     C_R   0.102179 0.359885 0.783033 -0.075333
H7    H     H_    0.695759 0.798350 0.392614 0.174391
H8    H     H_    0.304233 0.298441 0.607373 0.174428
H9    H     H_    0.989138 0.843352 0.334815 0.129136
H10   H     H_    0.010850 0.343464 0.665177 0.129117
H11   H     H_    0.930607 0.871771 0.471790 0.165304
H12   H     H_    0.069382 0.371892 0.528206 0.165298
H13   H     H_    0.815480 0.878464 0.031002 0.126657
H14   H     H_    0.184504 0.378325 0.968994 0.126514
H15   H     H_    0.094708 0.027808 0.452060 0.132359
H16   H     H_    0.905281 0.527898 0.547863 0.132336
C33   C     C_R   0.242691 0.817940 0.037062 0.299800
C34   C     C_R   0.757384 0.317950 0.962877 0.299946
C35   C     C_R   0.302620 0.786067 0.004218 -0.174913
C36   C     C_R   0.697485 0.286154 0.995801 -0.175116
C37   C     C_R   0.364324 0.766725 0.072351 -0.208333
C38   C     C_R   0.635754 0.266842 0.927709 -0.208039
C39   C     C_R   0.367901 0.785053 0.174797 -0.161720
C40   C     C_R   0.632138 0.285123 0.825241 -0.161816
C41   C     C_R   0.309077 0.820702 0.212464 0.112912
C42   C     C_R   0.690946 0.320720 0.787519 0.112896
C43   C     C_R   0.244241 0.832485 0.143089 -0.045693
C44   C     C_R   0.755792 0.332477 0.856855 -0.045667
C45   C     C_R   0.315354 0.848103 0.317741 -0.256953
C46   C     C_R   0.684652 0.348115 0.682238 -0.256917
C47   C     C_R   0.256233 0.883798 0.356093 -0.020101
C48   C     C_R   0.743770 0.383811 0.643864 -0.020053
C49   C     C_R   0.191634 0.899148 0.286726 0.118324
C50   C     C_R   0.808377 0.399172 0.713216 0.118413
C51   C     C_R   0.184712 0.863218 0.181870 -0.256805
C52   C     C_R   0.815310 0.363210 0.818066 -0.256986
C53   C     C_R   0.258603 0.905495 0.461888 0.336121
C54   C     C_R   0.741391 0.405504 0.538067 0.336112
C55   C     C_R   0.200800 0.963116 0.494082 -0.097778
C56   C     C_R   0.799191 0.463145 0.505859 -0.097864
C57   C     C_R   0.139327 0.986973 0.425666 -0.108572
C58   C     C_R   0.860667 0.487039 0.574267 -0.108507
C59   C     C_R   0.134115 0.950731 0.324032 -0.150849
C60   C     C_R   0.865888 0.450800 0.675904 -0.150892
H17   H     H_    0.301531 0.780221 0.924163 0.179395
H18   H     H_    0.698629 0.280327 0.075874 0.179121
H19   H     H_    0.410106 0.741736 0.045373 0.143976
H20   H     H_    0.589986 0.241902 0.954735 0.143953
H21   H     H_    0.417980 0.772964 0.223832 0.095854
H22   H     H_    0.582048 0.273053 0.776234 0.095820
H23   H     H_    0.202661 0.980505 0.573867 0.155162
H24   H     H_    0.797325 0.480524 0.426073 0.155095
H25   H     H_    0.084177 0.966130 0.275151 0.096898
H26   H     H_    0.915825 0.466237 0.724786 0.096903
O11   O     O_R   0.913760 0.203480 0.916370 -0.592967
O12   O     O_R   0.086240 0.703480 0.083630 -0.593242
O13   O     O_R   0.047590 0.535230 0.888250 -0.568304
O14   O     O_R   0.952410 0.035230 0.111750 -0.567774
C61   C     C_R   0.063381 0.368143 0.862165 0.900235
C62   C     C_R   0.936613 0.868134 0.137829 0.900561
O15   O     O_R   0.912020 0.532880 0.904260 -0.571934
O16   O     O_R   0.087980 0.032880 0.095740 -0.571841
O17   O     O_R   0.949590 0.708460 0.099750 -0.538995
O18   O     O_R   0.050410 0.208460 0.900250 -0.538895
C63   C     C_R   0.885070 0.365606 0.885399 0.973574
C64   C     C_R   0.114947 0.865609 0.114553 0.973805
O19   O     O_3   0.012370 0.375360 0.064120 -0.279522
O20   O     O_3   0.987630 0.875360 0.935880 -0.279659
V3    V     V_3+5 0.997700 0.648160 0.988110 1.263009
V4    V     V_3+5 0.002300 0.148160 0.011890 1.263246
N1    N     N_R   0.183585 0.859720 0.960397 0.216030
O21   O     O_R   0.166932 0.756046 0.880980 -0.420832
O22   O     O_R   0.162793 0.027487 0.952842 -0.430225
N2    N     N_R   0.816524 0.359754 0.039449 0.216019
O23   O     O_R   0.837069 0.527784 0.047396 -0.430394
O24   O     O_R   0.833612 0.255132 0.118447 -0.420857
N3    N     N_R   0.315164 0.844897 0.538597 0.221389
O25   O     O_R   0.336116 0.942889 0.619488 -0.432044
O26   O     O_R   0.330379 0.672293 0.542163 -0.366261
N4    N     N_R   0.684831 0.344847 0.461371 0.221392
O27   O     O_R   0.669613 0.172248 0.457861 -0.366258
O28   O     O_R   0.663897 0.442738 0.380439 -0.432083
Cl1   Cl    Cl    0.800368 0.952848 0.482048 -0.683081
Cl2   Cl    Cl    0.199625 0.452883 0.517942 -0.683083

loop_
_geom_bond_atom_site_label_1
_geom_bond_atom_site_label_2
_geom_bond_distance
_ccdc_geom_bond_type
C38   C40   1.383703 A    
C35   C37   1.379905 A    
O12   C64   1.344263 A    
C9    C11   1.383088 A    
O13   V3    2.037027 S    
O1    C3    1.334251 A    
C36   H18   1.083519 S    
O2    C4    1.334242 A    
C31   C62   1.466463 S    
C43   C51   1.433065 A    
O3    V1    2.025669 S    
C21   C23   1.388884 A    
O5    C3    1.336338 A    
C5    H5    1.084070 S    
C46   C48   1.428512 A    
O16   V4    2.025640 S    
C6    H6    1.084065 S    
O15   V3    2.025587 S    
C20   C22   1.425730 A    
C48   C50   1.429142 A    
C56   H24   1.083370 S    
H1    C29   1.082360 S    
C27   H7    1.072311 S    
N1    O21   1.299079 A    
O11   C63   1.344298 A    
C28   H8    1.072289 S    
C2    O7    1.321136 A    
C41   C43   1.431011 A    
C5    C21   1.403781 A    
O18   V4    2.024507 S    
C1    C46   1.490610 S    
C33   C35   1.398711 A    
C6    C22   1.403788 A    
C42   C46   1.421048 A    
O17   V3    2.024553 S    
C34   C36   1.398580 A    
N2    O23   1.293300 A    
C10   C32   1.390620 A    
C26   H14   1.082662 S    
N1    O22   1.292979 A    
C52   C63   1.494608 S    
C33   N1    1.427376 S    
C13   C15   1.436840 A    
C41   C45   1.421045 A    
C61   O18   1.326797 A    
C13   Cl1   1.762628 S    
C17   C25   1.407584 A    
C7    C29   1.392199 A    
C16   C18   1.432118 A    
C8    C30   1.392197 A    
C33   C43   1.437400 A    
C57   C59   1.386230 A    
C32   C61   1.466419 S    
O6    V2    2.036575 S    
C11   C13   1.396430 A    
C45   C47   1.428450 A    
C24   C26   1.379378 A    
O11   V4    1.996884 S    
C54   N4    1.430312 S    
O20   V3    1.799881 S    
C53   C55   1.398881 A    
N2    O24   1.299404 A    
C49   C51   1.423865 A    
N3    O26   1.297205 A    
O12   V3    1.996856 S    
O4    C2    1.317788 A    
C48   C54   1.435794 A    
C10   H10   1.082108 S    
C47   C53   1.435805 A    
C38   H20   1.082712 S    
O5    V1    2.036652 S    
C11   H11   1.083643 S    
C3    C8    1.457473 S    
C37   C39   1.383572 A    
C12   H12   1.083642 S    
C15   C19   1.439563 A    
C44   C52   1.432892 A    
C53   N3    1.430312 S    
C39   C41   1.417755 A    
C36   C38   1.380008 A    
O4    V2    2.025725 S    
H15   C57   1.082801 S    
C17   C31   1.416007 A    
O14   V4    2.036949 S    
C25   H13   1.082669 S    
O6    C4    1.336317 A    
C55   H23   1.083372 S    
C35   H17   1.083510 S    
C50   C52   1.423789 A    
C34   C44   1.437145 A    
O1    V2    2.021208 S    
O14   C62   1.330672 A    
O2    V1    2.021252 S    
C47   C49   1.429125 A    
N3    O25   1.299853 A    
H2    C30   1.082358 S    
H3    C23   1.084332 S    
C55   C57   1.381991 A    
C54   C56   1.398896 A    
C18   C26   1.407562 A    
C19   C27   1.410883 A    
C7    C27   1.399379 A    
C18   C32   1.415963 A    
C2    C45   1.490619 S    
N4    O28   1.299807 A    
O16   C64   1.339490 A    
C50   C60   1.417340 A    
C37   H19   1.082714 S    
O15   C63   1.339410 A    
H16   C58   1.082797 S    
C51   C64   1.494614 S    
C16   C20   1.439581 A    
C23   C25   1.379361 A    
C5    C29   1.388276 A    
C56   C58   1.382008 A    
O3    C1    1.317778 A    
C6    C30   1.388293 A    
C9    H9    1.082119 S    
O13   C61   1.330655 A    
C4    C7    1.457411 S    
C14   Cl2   1.762624 S    
C10   C12   1.383077 A    
O7    V1    2.006803 S    
C1    O8    1.321143 A    
C19   C21   1.425734 A    
O8    V2    2.006832 S    
C20   C28   1.410907 A    
C12   C14   1.396421 A    
H4    C24   1.084329 S    
C22   C24   1.388911 A    
C15   C17   1.432094 A    
O19   V4    1.799896 S    
C58   C60   1.386227 A    
C40   H22   1.080326 S    
C34   N2    1.427171 S    
C8    C28   1.399390 A    
C49   C59   1.417387 A    
C40   C42   1.417769 A    
O9    V2    1.799948 S    
C39   H21   1.080319 S    
O10   V1    1.799933 S    
C42   C44   1.430907 A    
C62   O17   1.326800 A    
C60   H26   1.079482 S    
C9    C31   1.390631 A    
C14   C16   1.436856 A    
N4    O27   1.297169 A    
C59   H25   1.079476 S    
