data_mof_unit_26534.cif
_audit_creation_date              2012-12-10T17:33:07-0500
_audit_creation_method            fapswitch 2.2
_symmetry_space_group_name_H-M    P1
_symmetry_Int_Tables_number       1
_space_group_crystal_system       triclinic
_cell_length_a                    15.556682
_cell_length_b                    15.389462
_cell_length_c                    17.837516
_cell_angle_alpha                 90.994812
_cell_angle_beta                  109.925272
_cell_angle_gamma                 68.877064
_cell_volume                      3717.89119484

loop_
_atom_site_label
_atom_site_type_symbol
_atom_type_description
_atom_site_fract_x
_atom_site_fract_y
_atom_site_fract_z
_atom_type_partial_charge
C1    C     C_R   0.464444 0.740630 0.533124 0.501032
C2    C     C_R   0.605278 0.406343 0.084638 -0.133712
C3    C     C_R   0.662137 0.347217 0.044631 0.285740
C4    C     C_R   0.533365 0.259788 0.467722 0.559570
C5    C     C_R   0.641492 0.372418 0.962732 0.032667
C6    C     C_R   0.563789 0.459545 0.922912 -0.053319
C7    C     C_R   0.695002 0.311886 0.919294 0.285464
C8    C     C_R   0.671445 0.340436 0.838154 -0.156509
C9    C     C_R   0.529430 0.475346 0.837908 0.103864
C10   C     C_R   0.490867 0.932660 0.655823 -0.123970
C11   C     C_R   0.455413 0.835749 0.550468 0.020916
C12   C     C_R   0.366022 0.682378 0.169573 -0.111748
C13   C     C_R   0.537384 0.140495 0.371048 0.035153
C14   C     C_R   0.543811 0.051010 0.352198 -0.082266
C15   C     C_R   0.544653 0.986373 0.406114 0.251399
C16   C     C_R   0.757846 0.447619 0.532830 0.503528
C17   C     C_R   0.530433 0.014837 0.478848 -0.003470
C18   C     C_R   0.548566 0.096229 0.506317 -0.020750
C19   C     C_R   0.503331 0.963845 0.526652 0.023638
C20   C     C_R   0.512330 0.984830 0.606093 0.023187
C21   C     C_R   0.549217 0.053167 0.637112 -0.100682
C22   C     C_R   0.571088 0.106259 0.589337 0.098787
C23   C     C_R   0.473764 0.526099 0.161840 -0.112496
C24   C     C_R   0.467225 0.892873 0.498156 -0.111942
C25   C     C_R   0.465156 0.857037 0.628780 -0.113366
C26   C     C_R   0.543906 0.163289 0.449687 0.031189
C27   C     C_R   0.026993 0.378839 0.646323 0.111064
C28   C     C_R   0.241467 0.551853 0.467743 0.512653
C29   C     C_R   0.861065 0.429702 0.548852 0.012842
C30   C     C_R   0.068814 0.606555 0.366246 0.092368
C31   C     C_R   0.974978 0.604011 0.340209 -0.118843
C32   C     C_R   0.946100 0.561107 0.389619 -0.135961
C33   C     C_R   0.008560 0.523965 0.469833 0.014274
C34   C     C_R   0.475340 0.556073 0.088421 0.014087
C35   C     C_R   0.102736 0.530753 0.498621 -0.039062
C36   C     C_R   0.981144 0.478141 0.521489 -0.029464
C37   C     C_R   0.050210 0.435156 0.599919 0.049423
C38   C     C_R   0.137138 0.454145 0.630482 0.271811
C39   C     C_R   0.161781 0.501617 0.580314 -0.095137
C40   C     C_R   0.560787 0.440554 0.711917 0.551971
C41   C     C_R   0.885814 0.475876 0.498239 -0.135874
C42   C     C_R   0.931959 0.378884 0.621055 -0.110547
C43   C     C_R   0.135530 0.567391 0.445368 0.030532
C44   C     C_R   0.440790 0.559285 0.287437 0.517388
C45   C     C_R   0.418536 0.650941 0.055173 -0.004745
C46   C     C_R   0.423574 0.589347 0.204106 0.025926
C47   C     C_R   0.587043 0.418254 0.797434 -0.001625
C48   C     C_R   0.362927 0.712788 0.095221 -0.130722
C49   C     C_3   0.775300 0.150385 0.916311 0.014086
C50   C     C_3   0.679516 0.131202 0.895023 -0.280396
C51   C     C_3   0.694629 0.032435 0.871418 -0.477017
C52   C     C_3   0.655734 0.833526 0.438916 0.004072
C53   C     C_3   0.737418 0.830232 0.408074 -0.269423
C54   C     C_3   0.838481 0.765316 0.465681 -0.472572
C55   C     C_3   0.168044 0.502213 0.754856 0.023338
C56   C     C_R   0.532314 0.494748 0.047536 -0.058620
C57   C     C_3   0.234312 0.472755 0.843535 -0.227673
C58   C     C_3   0.215135 0.554469 0.893322 -0.468097
C59   C     C_3   0.713382 0.198860 0.109837 0.018564
C60   C     C_3   0.754980 0.175393 0.201273 -0.254647
C61   C     C_3   0.741977 0.087876 0.226267 -0.464830
C62   C     C_3   0.584875 0.672659 0.913261 0.014178
C63   C     C_3   0.597690 0.720856 0.845880 -0.247040
C64   C     C_3   0.696038 0.733888 0.874232 -0.482776
C65   C     C_R   0.521478 0.525915 0.969413 0.023146
C66   C     C_R   0.477801 0.624102 0.944472 0.288513
C67   C     C_R   0.422540 0.684385 0.984844 -0.107203
H1    H     H_    0.385722 0.758435 0.962473 0.132922
H2    H     H_    0.924723 0.632122 0.279282 0.140968
H3    H     H_    0.227687 0.516658 0.607309 0.173959
H4    H     H_    0.716318 0.300333 0.805250 0.134961
H5    H     H_    0.319744 0.785562 0.070310 0.120788
H6    H     H_    0.326338 0.732388 0.201252 0.152460
H7    H     H_    0.511419 0.453685 0.187824 0.144526
H8    H     H_    0.626055 0.384351 0.147372 0.125691
H9    H     H_    0.837136 0.088685 0.956367 0.166501
H10   H     H_    0.793983 0.155289 0.862194 0.146886
H11   H     H_    0.654768 0.138967 0.947051 0.160230
H12   H     H_    0.457660 0.812019 0.670176 0.125767
H13   H     H_    0.620098 0.182584 0.843925 0.177640
H14   H     H_    0.721106 0.022165 0.820211 0.170904
H15   H     H_    0.623664 0.021931 0.853403 0.147988
H16   H     H_    0.749454 0.979199 0.923041 0.148978
H17   H     H_    0.653394 0.762285 0.440563 0.149676
H18   H     H_    0.674156 0.850134 0.502174 0.135029
H19   H     H_    0.723052 0.804721 0.348063 0.171660
H20   H     H_    0.738068 0.901684 0.401899 0.168706
H21   H     H_    0.856529 0.792844 0.524654 0.156108
H22   H     H_    0.895861 0.760965 0.440478 0.168631
H23   H     H_    0.564374 0.063248 0.699834 0.128453
H24   H     H_    0.839155 0.693873 0.474799 0.151936
H25   H     H_    0.090263 0.518229 0.749706 0.134102
H26   H     H_    0.173382 0.566803 0.733097 0.148323
H27   H     H_    0.220602 0.415173 0.867980 0.196374
H28   H     H_    0.313137 0.445786 0.849417 0.207702
H29   H     H_    0.231125 0.612018 0.871536 0.178133
H30   H     H_    0.264011 0.530299 0.957154 0.167583
H31   H     H_    0.137082 0.581557 0.889593 0.153484
H32   H     H_    0.745639 0.134758 0.083539 0.166566
H33   H     H_    0.631765 0.217404 0.087063 0.113746
H34   H     H_    0.499564 0.946916 0.717149 0.109593
H35   H     H_    0.834956 0.162936 0.224565 0.195413
H36   H     H_    0.716687 0.235433 0.228662 0.178372
H37   H     H_    0.663095 0.096677 0.201013 0.173963
H38   H     H_    0.767768 0.075656 0.292790 0.171189
H39   H     H_    0.786016 0.025507 0.204588 0.150255
H40   H     H_    0.645890 0.602407 0.934069 0.141263
H41   H     H_    0.588792 0.716289 0.963986 0.127229
H42   H     H_    0.593980 0.677932 0.794919 0.197060
H43   H     H_    0.536682 0.790750 0.824254 0.169206
H44   H     H_    0.700542 0.778131 0.924215 0.148636
H45   H     H_    0.452834 0.877054 0.437056 0.178713
H46   H     H_    0.702476 0.769237 0.823780 0.152865
H47   H     H_    0.758343 0.664757 0.894818 0.162371
H48   H     H_    0.547021 0.031396 0.294310 0.155775
H49   H     H_    0.912367 0.340772 0.658876 0.144974
H50   H     H_    0.826652 0.515255 0.444054 0.102504
H51   H     H_    0.874487 0.557345 0.362218 0.113127
I1    I     I_    0.511474 0.236223 0.273277 -0.415256
I2    I     I_    0.666131 0.174591 0.655154 -0.438262
I3    I     I_    0.381854 0.567277 0.764988 -0.380853
I4    I     I_    0.128191 0.284539 0.751605 -0.336143
I5    I     I_    0.102065 0.662951 0.276012 -0.349178
O1    O     O_3   0.500000 0.500000 0.500000 -0.450906
O2    O     O_R   0.596500 0.492780 0.688380 -0.538786
O3    O     O_R   0.388780 0.611210 0.325000 -0.528254
O4    O     O_R   0.499860 0.410860 0.661600 -0.495959
O5    O     O_R   0.514860 0.485140 0.325020 -0.534503
O6    O     O_3   0.774036 0.229313 0.959047 -0.513871
O7    O     O_3   0.562180 0.895711 0.386290 -0.591312
O8    O     O_3   0.198954 0.428292 0.710035 -0.524753
O9    O     O_3   0.743173 0.268572 0.088174 -0.509036
O10   O     O_3   0.492429 0.663629 0.883132 -0.543335
O11   O     O_R   0.707110 0.418540 0.472990 -0.529016
O12   O     O_R   0.267620 0.606720 0.435250 -0.505057
O13   O     O_R   0.540230 0.674660 0.578090 -0.545810
O14   O     O_R   0.485030 0.300080 0.513670 -0.510519
O15   O     O_R   0.403610 0.721990 0.472930 -0.531151
O16   O     O_R   0.571130 0.303270 0.435320 -0.502231
O17   O     O_R   0.717650 0.497270 0.578120 -0.546193
O18   O     O_R   0.307610 0.477470 0.513630 -0.536274
Zn1   Zn    Zn3+2 0.572030 0.427990 0.434470 0.976514
Zn2   Zn    Zn3+2 0.587090 0.540470 0.584680 0.946053
Zn3   Zn    Zn3+2 0.449010 0.423430 0.546420 0.999994
Zn4   Zn    Zn3+2 0.391880 0.608100 0.434430 0.984336

loop_
_geom_bond_atom_site_label_1
_geom_bond_atom_site_label_2
_ccdc_geom_bond_type
C40   C47   S    
C34   C56   A    
C29   C42   A    
C28   O12   A    
C59   H32   S    
C19   C20   A    
C58   H31   S    
O17   Zn2   S    
C55   H26   S    
C16   O11   A    
C6    C9    A    
C7    C8    A    
C53   C54   S    
C22   I2    S    
C44   O3    A    
C62   C63   S    
C62   O10   S    
C21   C22   A    
C36   C37   A    
C27   C37   A    
O13   Zn2   S    
C5    C6    A    
O16   Zn1   S    
C62   H41   S    
C11   C25   A    
O15   Zn4   S    
C14   H48   S    
C11   C24   A    
C33   C36   A    
C52   H17   S    
C58   H29   S    
C17   C19   A    
C4    O14   A    
O3    Zn4   S    
C6    C65   A    
C10   C20   A    
O12   Zn4   S    
C1    C11   S    
C45   C67   A    
C9    I3    S    
O1    Zn2   S    
C53   H19   S    
C1    O13   A    
C35   C43   A    
C51   H14   S    
C12   C48   A    
C66   C67   A    
C59   C60   S    
C23   C46   A    
C25   H12   S    
C13   C14   A    
C59   H33   S    
O1    Zn1   S    
C36   C41   A    
C16   O17   A    
C58   H30   S    
C48   H5    S    
C60   H35   S    
C50   H11   S    
C13   I1    S    
C27   I4    S    
C44   C46   S    
C50   C51   S    
C21   H23   S    
C38   C39   A    
C59   O9    S    
C64   H47   S    
C67   H1    S    
C61   H37   S    
C54   H22   S    
C12   C46   A    
O18   Zn3   S    
C5    C7    A    
C64   H44   S    
C62   H40   S    
C16   C29   S    
C40   O4    A    
C49   O6    S    
C3    O9    S    
C60   C61   S    
C63   H42   S    
C35   C39   A    
C37   C38   A    
O11   Zn1   S    
C66   O10   S    
C31   C32   A    
C23   C34   A    
C18   C26   A    
C17   C18   A    
C49   H9    S    
C53   H20   S    
C34   C45   A    
C30   I5    S    
C61   H39   S    
C51   H15   S    
C10   C25   A    
C42   H49   S    
C55   H25   S    
C52   H18   S    
C9    C47   A    
C55   O8    S    
C57   H27   S    
C55   C57   S    
C49   C50   S    
C30   C43   A    
C23   H7    S    
C60   H36   S    
C51   H16   S    
C61   H38   S    
C52   C53   S    
C45   C48   A    
C15   C17   A    
C44   O5    A    
C8    H4    S    
C64   H46   S    
C29   C41   A    
C18   C22   A    
O14   Zn3   S    
C10   H34   S    
C32   H51   S    
C3    C5    A    
C50   H13   S    
C4    C26   S    
O1    Zn4   S    
C28   C43   S    
C52   O7    S    
C38   O8    S    
C63   H43   S    
C2    C3    A    
C8    C47   A    
C54   H24   S    
C2    C56   A    
C32   C33   A    
C4    O16   A    
C54   H21   S    
C27   C42   A    
C57   C58   S    
C30   C31   A    
C15   O7    S    
O2    Zn2   S    
C40   O2    A    
C33   C35   A    
C39   H3    S    
C49   H10   S    
C19   C24   A    
O4    Zn3   S    
C13   C26   A    
C24   H45   S    
C7    O6    S    
C1    O15   A    
C63   C64   S    
C31   H2    S    
C20   C21   A    
C65   C66   A    
C57   H28   S    
C14   C15   A    
O1    Zn3   S    
C28   O18   A    
C41   H50   S    
C12   H6    S    
O5    Zn1   S    
C2    H8    S    
C56   C65   A    
