data_mof_unit_38393.cif
_audit_creation_date              2012-10-26T20:58:16-0400
_audit_creation_method            fapswitch 2.2
_symmetry_space_group_name_H-M    P1
_symmetry_Int_Tables_number       1
_space_group_crystal_system       triclinic
_cell_length_a                    10.638399
_cell_length_b                    14.725945
_cell_length_c                    14.612176
_cell_angle_alpha                 65.024808
_cell_angle_beta                  103.011195
_cell_angle_gamma                 102.634467
_cell_volume                      2001.89972491

loop_
_atom_site_label
_atom_site_type_symbol
_atom_type_description
_atom_site_fract_x
_atom_site_fract_y
_atom_site_fract_z
_atom_type_partial_charge
C1    C     C_R   0.480321 0.119616 0.311960 0.540925
C2    C     C_R   0.545434 0.535292 0.952873 0.034202
C3    C     C_R   0.552929 0.496265 0.881262 -0.144294
C4    C     C_R   0.548752 0.506612 0.130227 -0.155284
C5    C     C_R   0.544549 0.393298 0.907748 -0.131720
C6    C     C_R   0.560090 0.609688 0.104354 -0.125713
C7    C     C_R   0.713870 0.282837 0.671152 -0.159719
C8    C     C_R   0.286183 0.717115 0.328905 -0.156562
C9    C     C_R   0.680952 0.201828 0.640823 0.040242
C10   C     C_R   0.318493 0.797867 0.359603 0.039223
C11   C     C_R   0.520095 0.285983 0.507996 0.032027
C12   C     C_R   0.522436 0.880313 0.688123 0.543856
C13   C     C_R   0.480888 0.714491 0.491354 0.032724
C14   C     C_R   0.549329 0.371552 0.534688 0.003406
C15   C     C_R   0.452354 0.629213 0.464230 0.002536
C16   C     C_R   0.259962 0.000793 0.499988 0.555291
C17   C     C_R   0.739982 0.999313 0.499804 0.554313
C18   C     C_R   0.648363 0.367677 0.618713 0.042259
C19   C     C_R   0.352943 0.632884 0.380485 0.042979
C20   C     C_R   0.483851 0.459508 0.482375 0.021900
C21   C     C_R   0.518523 0.541584 0.516069 0.024308
C22   C     C_R   0.617759 0.533063 0.600520 -0.146437
C23   C     C_R   0.489755 0.290407 0.176353 -0.147228
C24   C     C_R   0.385166 0.468288 0.397533 -0.147972
C25   C     C_R   0.681065 0.448005 0.650399 -0.135634
C26   C     C_R   0.321158 0.552999 0.348160 -0.127323
C27   C     C_3   0.017508 0.012495 0.407532 -0.001824
C28   C     C_3   0.982294 0.987645 0.591993 -0.002452
C29   C     C_3   0.961012 0.088399 0.429388 -0.120013
C30   C     C_3   0.038774 0.911741 0.570129 -0.119776
C31   C     C_3   0.875825 0.998011 0.499376 0.043718
C32   C     C_3   0.124007 0.002146 0.500162 0.043303
C33   C     C_3   0.931255 0.923101 0.476586 0.008681
C34   C     C_R   0.536527 0.709663 0.823393 -0.152577
C35   C     C_3   0.068531 0.077052 0.522931 0.007063
C36   C     C_R   0.484001 0.187018 0.204180 -0.039851
C37   C     C_R   0.537899 0.812672 0.796843 -0.034392
C38   C     C_R   0.517410 0.218419 0.032935 0.144524
C39   C     C_R   0.561033 0.782201 0.976182 0.136389
C40   C     C_R   0.496503 0.150906 0.132694 -0.114466
C41   C     C_R   0.551452 0.848951 0.873387 -0.131873
C42   C     C_3   0.039028 0.027223 0.302395 -0.400277
C43   C     C_3   0.960445 0.972781 0.697094 -0.398818
C44   C     C_3   0.854848 0.834873 0.450160 -0.380379
C45   C     C_R   0.518120 0.360762 0.080205 0.007120
C46   C     C_3   0.144871 0.165392 0.549163 -0.377846
C47   C     C_3   0.501704 0.076864 0.978241 -0.325051
C48   C     C_3   0.699310 0.851148 0.093128 -0.326714
C49   C     C_R   0.548365 0.640672 0.925689 0.001161
C50   C     C_R   0.526966 0.323904 0.006636 0.056966
C51   C     C_R   0.557457 0.677736 0.002602 0.075539
C52   C     C_R   0.536111 0.466832 0.055306 0.034700
Cu1   Cu    Cu3+1 0.465750 0.918270 0.475680 0.916617
Cu2   Cu    Cu3+1 0.534250 0.081730 0.524320 0.917776
H1    H     H_    0.927331 0.160198 0.371807 0.111754
H2    H     H_    0.354776 0.410732 0.366875 0.086446
H3    H     H_    0.550068 0.368959 0.848655 0.134811
H4    H     H_    0.568608 0.635459 0.165111 0.154852
H5    H     H_    0.521169 0.684478 0.762060 0.127183
H6    H     H_    0.470656 0.314134 0.231660 0.120200
H7    H     H_    0.552345 0.928749 0.853564 0.118786
H8    H     H_    0.494534 0.070454 0.156650 0.128251
H9    H     H_    0.569870 0.543493 0.804213 0.099276
H10   H     H_    0.554552 0.460214 0.210727 0.107220
H11   H     H_    0.756432 0.444963 0.715028 0.105022
H12   H     H_    0.072393 0.839920 0.627703 0.111599
H13   H     H_    0.245784 0.556047 0.283538 0.110105
H14   H     H_    0.944949 0.034446 0.250026 0.123765
H15   H     H_    0.108809 0.096845 0.271740 0.128229
H16   H     H_    0.079011 0.961187 0.308021 0.135982
H17   H     H_    0.054362 0.965305 0.749644 0.126886
H18   H     H_    0.920580 0.038856 0.691501 0.137628
H19   H     H_    0.890427 0.903245 0.727518 0.128247
H20   H     H_    0.922912 0.795502 0.437372 0.126865
H21   H     H_    0.802244 0.780690 0.514012 0.132742
H22   H     H_    0.783726 0.863187 0.379661 0.143822
H23   H     H_    0.556625 0.719324 0.552455 0.112708
H24   H     H_    0.076765 0.204808 0.561844 0.129178
H25   H     H_    0.216025 0.137189 0.619653 0.150078
H26   H     H_    0.197450 0.219498 0.485260 0.131918
H27   H     H_    0.619598 0.216215 0.927984 0.241504
H28   H     H_    0.506512 0.066015 0.908443 0.141181
H29   H     H_    0.400862 0.048984 0.996496 0.152962
H30   H     H_    0.572349 0.033079 0.041545 0.133680
H31   H     H_    0.507083 0.872868 0.031929 0.241895
H32   H     H_    0.696445 0.872991 0.156594 0.137542
H33   H     H_    0.746046 0.917289 0.032663 0.135252
H34   H     H_    0.444512 0.281283 0.446761 0.112787
H35   H     H_    0.758385 0.788124 0.123528 0.155858
H36   H     H_    0.268124 0.863398 0.319027 0.117631
H37   H     H_    0.730523 0.135917 0.681944 0.117558
H38   H     H_    0.789621 0.278906 0.735712 0.086115
H39   H     H_    0.209967 0.720803 0.264681 0.087951
H40   H     H_    0.649088 0.591084 0.630499 0.082655
N1    N     N_R   0.585750 0.204560 0.560800 -0.231105
N2    N     N_R   0.414250 0.795440 0.439200 -0.231390
N3    N     N_2   0.535257 0.183019 0.959785 -0.522208
N4    N     N_2   0.568099 0.819717 0.052545 -0.533991
O1    O     O_R   0.454850 0.022100 0.338110 -0.509010
O2    O     O_R   0.545150 0.977900 0.661890 -0.507613
O3    O     O_R   0.512700 0.160150 0.379180 -0.506098
O4    O     O_R   0.487300 0.839850 0.620820 -0.507414
O5    O     O_R   0.287930 0.931000 0.479440 -0.500882
O6    O     O_R   0.712070 0.069000 0.520560 -0.501466
O7    O     O_R   0.345780 0.069050 0.520520 -0.507642
O8    O     O_R   0.654220 0.930950 0.479480 -0.508856

loop_
_geom_bond_atom_site_label_1
_geom_bond_atom_site_label_2
_ccdc_geom_bond_type
C43   H19   S    
C39   C51   A    
C43   H18   S    
C23   C45   A    
C27   C29   S    
C34   C37   A    
C6    H4    S    
Cu2   O3    S    
C41   H7    S    
Cu2   O2    S    
C9    H37   S    
C39   C41   A    
Cu1   Cu2   S    
Cu1   O1    S    
C15   C19   A    
C4    C52   A    
C26   H13   S    
Cu2   O6    S    
C38   C40   A    
C17   O6    A    
C24   C26   A    
C46   H25   S    
C11   C14   A    
C42   H16   S    
C40   H8    S    
C47   H28   S    
C12   C37   S    
C44   H22   S    
C19   C26   A    
C14   C18   A    
H31   N4    S    
Cu1   O8    S    
C20   C24   A    
C28   C35   S    
C49   C51   A    
C22   C25   A    
C31   C33   S    
C47   H29   S    
C6    C51   A    
C9    N1    A    
C30   C33   S    
C21   C22   A    
Cu1   N2    S    
C42   H14   S    
C22   H40   S    
C1    O1    A    
C18   C25   A    
C38   N3    S    
C23   H6    S    
C13   H23   S    
C8    C19   A    
C13   N2    A    
C32   C35   S    
C14   C20   A    
C36   C40   A    
C25   H11   S    
C4    C6    A    
C46   H24   S    
C39   N4    S    
C29   H1    S    
C45   C52   A    
C42   H15   S    
C27   C33   S    
C44   H21   S    
C12   O4    A    
C2    C49   A    
C16   O5    A    
C10   N2    A    
Cu1   O4    S    
C7    C18   A    
C48   H33   S    
C47   H30   S    
C44   H20   S    
Cu2   N1    S    
C30   H12   S    
C2    C52   A    
C16   O7    A    
C48   H35   S    
C13   C15   A    
C34   H5    S    
C17   C31   S    
C48   H32   S    
C5    C50   A    
C24   H2    S    
C11   H34   S    
C1    O3    A    
C11   N1    A    
C7    C9    A    
C4    H10   S    
C34   C49   A    
C43   H17   S    
Cu2   O7    S    
C27   C32   S    
C33   C44   S    
C28   C31   S    
C8    H39   S    
C3    C5    A    
C38   C50   A    
C3    H9    S    
C16   C32   S    
C48   N4    S    
C29   C35   S    
C28   C43   S    
C47   N3    S    
C5    H3    S    
C28   C30   S    
C2    C3    A    
C29   C31   S    
C17   O8    A    
C30   C32   S    
C27   C42   S    
H27   N3    S    
C45   C50   A    
Cu1   O5    S    
C7    H38   S    
C37   C41   A    
C12   O2    A    
C15   C21   A    
C20   C21   A    
C10   H36   S    
C8    C10   A    
C23   C36   A    
C46   H26   S    
C35   C46   S    
C1    C36   S    
