data_mof_unit_39465.cif
_audit_creation_date              2013-03-05T15:40:40-0500
_audit_creation_method            fapswitch 2.2
_symmetry_space_group_name_H-M    P1
_symmetry_Int_Tables_number       1
_space_group_crystal_system       triclinic
_cell_length_a                    19.116867
_cell_length_b                    11.011351
_cell_length_c                    18.856657
_cell_angle_alpha                 90.276529
_cell_angle_beta                  89.338931
_cell_angle_gamma                 89.647086
_cell_volume                      3968.98695356

loop_
_atom_site_label
_atom_site_type_symbol
_atom_site_description
_atom_site_fract_x
_atom_site_fract_y
_atom_site_fract_z
_atom_type_partial_charge
O1    O     O_R   0.043230 0.549300 0.667990 -0.493860
O2    O     O_R   0.956770 0.549300 0.332010 -0.503540
O3    O     O_R   0.543230 0.049300 0.667990 -0.505839
O4    O     O_R   0.456770 0.049300 0.332010 -0.498336
O5    O     O_R   0.178620 0.457600 0.674100 -0.519003
O6    O     O_R   0.821380 0.457600 0.325900 -0.514772
O7    O     O_R   0.678620 0.957600 0.674100 -0.516478
O8    O     O_R   0.321380 0.957600 0.325900 -0.514726
C1    C     C_R   0.240476 0.466833 0.647086 0.539154
C2    C     C_R   0.760081 0.467768 0.353350 0.541236
C3    C     C_R   0.740233 0.967668 0.646689 0.543614
C4    C     C_R   0.259381 0.968244 0.353055 0.536814
O9    O     O_R   0.284680 0.542100 0.669460 -0.475399
O10   O     O_R   0.715320 0.542100 0.330540 -0.522933
O11   O     O_R   0.784680 0.042100 0.669460 -0.487364
O12   O     O_R   0.215320 0.042100 0.330540 -0.491850
O13   O     O_R   0.262860 0.790390 0.676650 -0.476132
O14   O     O_R   0.737140 0.790390 0.323350 -0.503130
O15   O     O_R   0.762860 0.290390 0.676650 -0.480268
O16   O     O_R   0.237140 0.290390 0.323350 -0.490608
C5    C     C_R   0.227535 0.873862 0.647842 0.540687
C6    C     C_R   0.772537 0.874109 0.352328 0.533391
C7    C     C_R   0.728380 0.375527 0.648426 0.539533
C8    C     C_R   0.273196 0.372552 0.353048 0.543508
O17   O     O_R   0.167460 0.907030 0.670940 -0.510003
O18   O     O_R   0.832540 0.907030 0.329060 -0.506976
O19   O     O_R   0.667460 0.407030 0.670940 -0.501278
O20   O     O_R   0.332540 0.407030 0.329060 -0.508967
O21   O     O_R   0.053950 0.750220 0.675100 -0.482834
O22   O     O_R   0.946050 0.750220 0.324900 -0.485479
O23   O     O_R   0.553950 0.250220 0.675100 -0.475532
O24   O     O_R   0.446050 0.250220 0.324900 -0.520436
C9    C     C_R   0.061931 0.649024 0.637261 0.518864
C10   C     C_R   0.937990 0.649647 0.362745 0.517243
C11   C     C_R   0.561433 0.148507 0.637346 0.520826
C12   C     C_R   0.438989 0.151153 0.362748 0.515304
O25   O     O_R   0.043300 0.547370 0.827390 -0.464685
O26   O     O_R   0.956700 0.547370 0.172610 -0.476092
O27   O     O_R   0.543300 0.047370 0.827390 -0.466695
O28   O     O_R   0.456700 0.047370 0.172610 -0.479032
O29   O     O_R   0.178690 0.455820 0.821860 -0.469601
O30   O     O_R   0.821310 0.455820 0.178140 -0.446224
O31   O     O_R   0.678690 0.955820 0.821860 -0.470380
O32   O     O_R   0.321310 0.955820 0.178140 -0.448338
C13   C     C_R   0.237505 0.470994 0.852793 0.553357
C14   C     C_R   0.760174 0.461348 0.151517 0.591202
C15   C     C_R   0.737505 0.970994 0.852793 0.554213
C16   C     C_R   0.260174 0.961349 0.151517 0.589573
O33   O     O_R   0.284750 0.540170 0.828860 -0.499115
O34   O     O_R   0.715250 0.540170 0.171140 -0.503738
O35   O     O_R   0.784750 0.040170 0.828860 -0.498275
O36   O     O_R   0.215250 0.040170 0.171140 -0.499824
O37   O     O_R   0.262920 0.788600 0.824420 -0.492176
O38   O     O_R   0.737080 0.788600 0.175580 -0.493743
O39   O     O_R   0.762920 0.288600 0.824420 -0.490828
O40   O     O_R   0.237080 0.288600 0.175580 -0.491403
C17   C     C_R   0.208417 0.827508 0.860483 0.553344
C18   C     C_R   0.771244 0.877003 0.149207 0.594397
C19   C     C_R   0.708417 0.327508 0.860483 0.553115
C20   C     C_R   0.271243 0.377004 0.149208 0.595188
O41   O     O_R   0.167530 0.905110 0.830340 -0.424870
O42   O     O_R   0.832470 0.905110 0.169660 -0.419822
O43   O     O_R   0.667530 0.405110 0.830340 -0.425868
O44   O     O_R   0.332470 0.405110 0.169660 -0.422520
O45   O     O_R   0.054010 0.748440 0.822860 -0.486716
O46   O     O_R   0.945990 0.748440 0.177140 -0.464787
O47   O     O_R   0.554010 0.248440 0.822860 -0.486497
O48   O     O_R   0.445990 0.248440 0.177140 -0.466338
C21   C     C_R   0.027343 0.652789 0.848523 0.561337
C22   C     C_R   0.973642 0.651948 0.152163 0.562284
C23   C     C_R   0.527343 0.152789 0.848523 0.561650
C24   C     C_R   0.473642 0.151949 0.152163 0.561955
Cr1   Cr    Cr6+3 0.113970 0.508630 0.747920 1.100461
Cr2   Cr    Cr6+3 0.886030 0.508630 0.252080 1.121444
Cr3   Cr    Cr6+3 0.613970 0.008630 0.747920 1.089284
Cr4   Cr    Cr6+3 0.386030 0.008630 0.252080 1.113350
Cr5   Cr    Cr6+3 0.269200 0.666740 0.749850 1.100579
Cr6   Cr    Cr6+3 0.730800 0.666740 0.250150 1.057076
Cr7   Cr    Cr6+3 0.769200 0.166740 0.749850 1.096681
Cr8   Cr    Cr6+3 0.230800 0.166740 0.250150 1.100261
Cr9   Cr    Cr6+3 0.112300 0.820070 0.749800 1.117370
Cr10  Cr    Cr6+3 0.887700 0.820070 0.250200 1.132105
Cr11  Cr    Cr6+3 0.612300 0.320070 0.749800 1.126209
Cr12  Cr    Cr6+3 0.387700 0.320070 0.250200 1.103376
O49   O     O_3   0.165160 0.665150 0.749190 -0.336632
O50   O     O_3   0.834840 0.665150 0.250810 -0.301660
O51   O     O_3   0.665160 0.165150 0.749190 -0.335380
O52   O     O_3   0.334840 0.165150 0.250810 -0.302569
C25   C     C_2   0.247662 0.904643 0.575885 -0.115529
C26   C     C_2   0.751225 0.910209 0.423642 -0.112442
C27   C     C_2   0.751079 0.411542 0.577481 -0.110147
C28   C     C_2   0.253147 0.405690 0.425190 -0.098815
C29   C     C_2   0.240664 0.923372 0.422676 -0.128214
C30   C     C_2   0.757945 0.912770 0.578518 -0.110216
C31   C     C_2   0.743922 0.415922 0.422228 -0.112435
C32   C     C_2   0.259131 0.409834 0.579703 -0.113105
C33   C     C_2   0.271491 0.830679 0.453649 -0.168234
C34   C     C_2   0.713262 0.844499 0.542762 -0.185363
C35   C     C_2   0.786892 0.342336 0.456955 -0.183721
C36   C     C_2   0.216309 0.337184 0.544423 -0.195277
C37   C     C_2   0.263525 0.812885 0.530385 -0.134168
C38   C     C_2   0.720919 0.826886 0.466145 -0.165067
C39   C     C_2   0.779702 0.326202 0.533924 -0.154509
C40   C     C_2   0.224484 0.320307 0.467626 -0.157568
H1    H     H_    0.300710 0.766548 0.421590 0.222646
H2    H     H_    0.670961 0.799827 0.569971 0.187755
H3    H     H_    0.826892 0.291167 0.428676 0.179369
H4    H     H_    0.174691 0.289837 0.571722 0.181145
H5    H     H_    0.269529 0.720581 0.549630 0.184860
H6    H     H_    0.702237 0.741274 0.444868 0.160407
H7    H     H_    0.796415 0.238844 0.554507 0.180705
H8    H     H_    0.207007 0.234197 0.445977 0.178420
H9    H     H_    0.200936 0.975537 0.451429 0.125414
H10   H     H_    0.805821 0.943756 0.552912 0.124043
H11   H     H_    0.698680 0.453666 0.449046 0.102599
H12   H     H_    0.306610 0.442362 0.554029 0.168337
H13   H     H_    0.240742 0.997756 0.558668 0.101328
H14   H     H_    0.769670 0.996374 0.444249 0.105418
H15   H     H_    0.734488 0.499496 0.557884 0.105159
H16   H     H_    0.270314 0.492571 0.445859 0.137747
C41   C     C_R   0.957428 0.648793 0.439159 -0.022922
C42   C     C_R   0.042615 0.648405 0.560826 -0.026499
C43   C     C_R   0.460032 0.156596 0.438109 -0.022359
C44   C     C_R   0.541085 0.146647 0.561485 -0.021353
C45   C     C_R   0.940475 0.865708 0.459024 -0.098962
C46   C     C_R   0.059197 0.864822 0.541628 -0.095168
C47   C     C_R   0.476652 0.382344 0.438659 -0.055589
C48   C     C_R   0.579066 0.352272 0.538254 -0.065498
C49   C     C_R   0.967514 0.973814 0.483665 -0.023849
C50   C     C_R   0.032328 0.973202 0.517006 -0.020725
C51   C     C_R   0.520823 0.478374 0.454782 -0.046867
C52   C     C_R   0.572686 0.462952 0.504253 -0.074516
C53   C     C_R   0.025377 0.756400 0.526660 0.009755
C54   C     C_R   0.974298 0.756680 0.473818 0.010097
C55   C     C_R   0.534908 0.255395 0.523730 0.008587
C56   C     C_R   0.488632 0.264877 0.466820 0.004340
H17   H     H_    0.938128 0.055584 0.475391 0.190515
H18   H     H_    0.061970 0.054189 0.525142 0.191180
H19   H     H_    0.516616 0.563524 0.427297 0.184800
H20   H     H_    0.608723 0.535732 0.515183 0.142638
H21   H     H_    0.892202 0.865902 0.431410 0.140843
H22   H     H_    0.107467 0.864203 0.569186 0.142598
H23   H     H_    0.433947 0.402403 0.404222 0.193403
H24   H     H_    0.622630 0.335645 0.570505 0.134281
C57   C     C_R   0.024466 0.537588 0.527507 -0.019706
C58   C     C_R   0.976195 0.537660 0.471916 -0.018020
C59   C     C_R   0.516273 0.037346 0.530563 -0.018752
C60   C     C_R   0.469039 0.044368 0.474917 -0.030729
C61   C     C_R   0.050472 0.425306 0.551080 -0.094392
C62   C     C_R   0.950974 0.425161 0.447848 -0.092961
C63   C     C_R   0.535907 0.920635 0.555456 -0.109076
C64   C     C_R   0.434245 0.936697 0.455385 -0.108536
C65   C     C_R   0.021034 0.316973 0.530061 0.202582
C66   C     C_R   0.980620 0.316711 0.469037 0.200966
C67   C     C_R   0.498369 0.816284 0.539095 0.199118
C68   C     C_R   0.448987 0.823367 0.485116 0.216773
H25   H     H_    0.911836 0.419609 0.408290 0.184375
H26   H     H_    0.089724 0.420158 0.590527 0.182987
H27   H     H_    0.394338 0.939438 0.417158 0.182801
H28   H     H_    0.578915 0.910056 0.590795 0.182726
C69   C     C_2   0.220123 0.848755 0.935719 -0.111466
C70   C     C_2   0.744215 0.929822 0.084225 -0.087218
C71   C     C_2   0.720123 0.348753 0.935720 -0.111269
C72   C     C_2   0.244213 0.429820 0.084226 -0.085806
C73   C     C_2   0.245474 0.891207 0.087901 -0.105372
C74   C     C_2   0.743713 0.939879 0.927444 -0.106723
C75   C     C_2   0.745474 0.391203 0.087902 -0.105499
C76   C     C_2   0.243712 0.439879 0.927444 -0.106998
C77   C     C_2   0.182690 0.903121 0.057490 -0.130957
C78   C     C_2   0.768041 0.027437 0.971015 -0.133094
C79   C     C_2   0.682689 0.403113 0.057491 -0.131858
C80   C     C_2   0.268037 0.527438 0.971016 -0.133297
C81   C     C_2   0.168873 0.883170 0.981783 0.167663
C82   C     C_2   0.779101 0.014594 0.047454 0.176501
C83   C     C_2   0.668873 0.383165 0.981785 0.168190
C84   C     C_2   0.279095 0.514596 0.047455 0.177387
H29   H     H_    0.140100 0.945975 0.087228 0.204272
H30   H     H_    0.784658 0.113480 0.948900 0.167700
H31   H     H_    0.640100 0.445965 0.087230 0.202122
H32   H     H_    0.284652 0.613483 0.948901 0.167728
H33   H     H_    0.289172 0.845147 0.062507 0.166591
H34   H     H_    0.725289 0.852754 0.946313 0.139283
H35   H     H_    0.789173 0.345146 0.062508 0.166593
H36   H     H_    0.225289 0.352754 0.946312 0.139267
H37   H     H_    0.272452 0.828825 0.953519 0.096925
H38   H     H_    0.700366 0.883140 0.060500 0.105303
H39   H     H_    0.772452 0.328823 0.953520 0.097048
H40   H     H_    0.200366 0.383132 0.060499 0.105252
C85   C     C_2   0.982413 0.665952 0.909147 -0.047639
C86   C     C_2   0.002294 0.654829 0.082307 -0.011329
C87   C     C_2   0.482412 0.165953 0.909147 -0.047395
C88   C     C_2   0.502294 0.154832 0.082308 -0.011890
C89   C     C_2   0.958275 0.632751 0.029430 0.086293
C90   C     C_2   0.986946 0.589958 0.963509 0.067998
C91   C     C_2   0.458275 0.132756 0.029430 0.087420
C92   C     C_2   0.486946 0.089961 0.963510 0.068097
H41   H     H_    0.058541 0.643900 0.075312 0.092383
H42   H     H_    0.953761 0.751305 0.914856 0.158187
H43   H     H_    0.558541 0.143903 0.075312 0.091513
H44   H     H_    0.453760 0.251306 0.914854 0.158158
N1    N     N_R   0.100176 0.916728 0.958263 0.096860
O53   O     O_R   0.092200 0.018996 0.924930 -0.245541
O54   O     O_R   0.046282 0.872703 0.991683 -0.362490
N2    N     N_R   0.828169 0.094944 0.080945 0.094939
O55   O     O_R   0.814143 0.141088 0.143243 -0.328806
O56   O     O_R   0.881375 0.136352 0.045038 -0.280460
N3    N     N_R   0.600176 0.416723 0.958265 0.096645
O57   O     O_R   0.546282 0.372700 0.991686 -0.363435
O58   O     O_R   0.592199 0.518990 0.924932 -0.246879
N4    N     N_R   0.328158 0.594953 0.080949 0.094209
O59   O     O_R   0.314128 0.641091 0.143248 -0.330209
O60   O     O_R   0.381363 0.636369 0.045045 -0.283060
I1    I     I_    0.847980 0.656887 0.034458 -0.310693
I2    I     I_    0.046052 0.424040 0.968031 -0.233458
I3    I     I_    0.347979 0.156894 0.034458 -0.311481
I4    I     I_    0.546053 0.924046 0.968033 -0.238836
N5    N     N_R   0.012747 0.224086 0.582453 0.041509
O61   O     O_R   0.060273 0.207857 0.630455 -0.355223
O62   O     O_R   0.951385 0.176183 0.592538 -0.355990
N6    N     N_R   0.988570 0.221998 0.417066 0.039626
O63   O     O_R   0.941043 0.205940 0.369071 -0.352671
O64   O     O_R   0.049711 0.171594 0.407341 -0.357689
N7    N     N_R   0.508223 0.708193 0.580681 0.079063
O65   O     O_R   0.568297 0.687046 0.609976 -0.389791
O66   O     O_R   0.453916 0.652137 0.606258 -0.252866
N8    N     N_R   0.421595 0.716410 0.452001 0.029251
O67   O     O_R   0.390308 0.632914 0.488866 -0.357725
O68   O     O_R   0.421541 0.708302 0.383072 -0.374723

loop_
_geom_bond_atom_site_label_1
_geom_bond_atom_site_label_2
_geom_bond_distance
_ccdc_geom_bond_type
C85   H42   1.089142 S    
C18   O42   1.276016 A    
Cr11  O51   1.977271 S    
O4    C12   1.301473 A    
O47   Cr11  1.935896 S    
C62   H25   1.064403 S    
O39   C19   1.306491 A    
O20   Cr12  2.043955 S    
N1    O53   1.301298 A    
C67   N7    1.441079 S    
N7    O65   1.300319 A    
C74   H34   1.084240 S    
C83   N3    1.437699 S    
C71   C83   1.353000 D    
Cr6   O50   1.989069 S    
N6    O64   1.301512 A    
C57   C58   1.404523 A    
C30   H10   1.087404 S    
O1    C9    1.294446 A    
C55   C56   1.402492 A    
C5    C25   1.448462 S    
O7    C3    1.286423 A    
C33   C37   1.467429 S    
O39   Cr7   1.941159 S    
C5    O17   1.274265 A    
C78   H30   1.084868 S    
O24   C12   1.313263 A    
C39   H7    1.086603 S    
C11   C44   1.486821 S    
O25   C21   1.260035 A    
O26   Cr2   2.054096 S    
C92   I4    2.144784 S    
C1    O9    1.261934 A    
C31   C35   1.330226 D    
C42   C57   1.416673 A    
O47   C23   1.268556 A    
C46   C50   1.380914 A    
C37   H5    1.086743 S    
O21   C9    1.327321 A    
O8    Cr4   1.938366 S    
O23   Cr11  1.963760 S    
N3    O58   1.301297 A    
C71   H39   1.080418 S    
O30   C14   1.278523 A    
C88   H43   1.087690 S    
C77   H29   1.087284 S    
C17   O41   1.292640 A    
O32   Cr4   1.963093 S    
C61   C65   1.380449 A    
C87   C92   1.329650 D    
O44   Cr12  2.082466 S    
C57   C61   1.405785 A    
C69   H37   1.080418 S    
C86   C89   1.334529 D    
C58   C62   1.407114 A    
C3    O11   1.261624 A    
C85   C90   1.329654 D    
N4    O59   1.302056 A    
C36   C40   1.465555 S    
C75   H35   1.080552 S    
C16   C73   1.454649 S    
C64   C68   1.398958 A    
C46   C53   1.390485 A    
C45   H21   1.064815 S    
C76   H36   1.084240 S    
C72   C84   1.341686 D    
C7    O19   1.280252 A    
C41   C54   1.394467 A    
O3    Cr3   2.084976 S    
C61   H26   1.064127 S    
Cr4   O52   1.977073 S    
C65   N5    1.433660 S    
O2    Cr2   2.085426 S    
O48   C24   1.269906 A    
C33   H1    1.076731 S    
C80   H32   1.084870 S    
O42   Cr10  2.082466 S    
C64   H27   1.056007 S    
Cr5   O49   1.989286 S    
O18   Cr10  2.043955 S    
C82   N2    1.442234 S    
O27   C23   1.260038 A    
O17   Cr9   2.056723 S    
N2    O55   1.302054 A    
N1    O54   1.299134 A    
C79   H31   1.087282 S    
C8    C28   1.453300 S    
Cr7   O51   1.989286 S    
N6    O63   1.302001 A    
O6    Cr2   1.938366 S    
O35   Cr7   2.067763 S    
C73   C77   1.342130 D    
O24   Cr12  1.963702 S    
C44   C59   1.421335 A    
O11   Cr7   2.057590 S    
C36   H4    1.080760 S    
O30   Cr2   1.963093 S    
C14   C75   1.454652 S    
O22   C10   1.329143 A    
O26   C22   1.259217 A    
C59   C60   1.394325 A    
N3    O57   1.299134 A    
O48   Cr12  1.924850 S    
C88   C91   1.334531 D    
C4    O12   1.246698 A    
C12   C43   1.482389 S    
C19   C71   1.456814 S    
C47   C56   1.418908 A    
C35   C39   1.468041 S    
C2    O10   1.261113 A    
C48   C55   1.392541 A    
C31   H11   1.077020 S    
C70   H38   1.085715 S    
C15   C74   1.456363 S    
O16   Cr8   1.939465 S    
O15   C7    1.265661 A    
C81   N1    1.437700 S    
O7    Cr3   1.930043 S    
N5    O61   1.302000 A    
Cr10  O50   1.988079 S    
C79   C83   1.470501 S    
C46   H22   1.064247 S    
O13   C5    1.265536 A    
O40   C20   1.275311 A    
O43   Cr11  2.081723 S    
O12   Cr8   2.069749 S    
Cr12  O52   1.988079 S    
O22   Cr10  1.963702 S    
C59   C63   1.420122 A    
C42   C53   1.394722 A    
O5    C1    1.286923 A    
C45   C49   1.381263 A    
O46   Cr10  1.924850 S    
C69   C81   1.353000 D    
O3    C11   1.286268 A    
C29   C33   1.317748 D    
O45   Cr9   1.935896 S    
C13   O33   1.265701 A    
O8    C4    1.290128 A    
C24   C88   1.421310 S    
O13   Cr5   1.947750 S    
C6    C26   1.453443 S    
C49   H17   1.071341 S    
C47   H23   1.071626 S    
O29   C13   1.284075 A    
C87   H44   1.089143 S    
O15   Cr7   1.947750 S    
O32   C16   1.278525 A    
C48   H24   1.052534 S    
C1    C32   1.454186 S    
Cr1   O49   1.987355 S    
C3    C30   1.453427 S    
Cr3   O51   1.987355 S    
O14   Cr6   1.939465 S    
C25   H13   1.084752 S    
O21   Cr9   1.963760 S    
N8    O67   1.299863 A    
C10   C41   1.492256 S    
N8    O68   1.302408 A    
O9    Cr5   2.057590 S    
C6    O18   1.278574 A    
C53   C54   1.403146 A    
C8    O20   1.277055 A    
C7    C27   1.459136 S    
C4    C29   1.446806 S    
C38   H6    1.086751 S    
C52   H20   1.080647 S    
C66   N6    1.433844 S    
C51   C52   1.379439 A    
C18   C70   1.457576 S    
C26   H14   1.085937 S    
O34   Cr6   2.060524 S    
C22   C86   1.421312 S    
O31   Cr3   1.962564 S    
C40   H8    1.086580 S    
C49   C50   1.395865 A    
O38   C18   1.275320 A    
C76   C80   1.351883 D    
C68   N8    1.435009 S    
C19   O43   1.292643 A    
O25   Cr1   2.047625 S    
C48   C52   1.385197 A    
O37   C17   1.306491 A    
O28   C24   1.259224 A    
C44   C55   1.401110 A    
C25   C37   1.353082 D    
O14   C6    1.271873 A    
C91   I3    2.124534 S    
C60   C64   1.412407 A    
C27   C39   1.353840 D    
C72   H40   1.085716 S    
O40   Cr8   1.951533 S    
C90   I2    2.144788 S    
C15   O35   1.265697 A    
O46   C22   1.269914 A    
N7    O66   1.300250 A    
C89   I1    2.124529 S    
C70   C82   1.341693 D    
C78   C82   1.466593 S    
Cr2   O50   1.977073 S    
C35   H3    1.081170 S    
C14   O34   1.268130 A    
N4    O60   1.301419 A    
C63   C67   1.393656 A    
C34   H2    1.075594 S    
C75   C79   1.342130 D    
C43   C56   1.422074 A    
C20   O44   1.276023 A    
O1    Cr1   2.084976 S    
C63   H28   1.070428 S    
C26   C38   1.350091 D    
O19   Cr11  2.056723 S    
O38   Cr6   1.951533 S    
C28   H16   1.085388 S    
C73   H33   1.080550 S    
C21   C85   1.428223 S    
Cr8   O52   1.989069 S    
C45   C54   1.391055 A    
C34   C38   1.462321 S    
N2    O56   1.301421 A    
C77   C81   1.470498 S    
O2    C10   1.292224 A    
C9    C42   1.491968 S    
C2    C31   1.452006 S    
O45   C21   1.268556 A    
C32   C36   1.329737 D    
O23   C11   1.330291 A    
C20   C72   1.457577 S    
C74   C78   1.351883 D    
O33   Cr5   2.067763 S    
C29   H9    1.087568 S    
C27   H15   1.085128 S    
O10   Cr6   2.069749 S    
O5    Cr1   1.930043 S    
N5    O62   1.301503 A    
C13   C76   1.456364 S    
C47   C51   1.391907 A    
O4    Cr4   2.085426 S    
C51   H19   1.076536 S    
O6    C2    1.279650 A    
C28   C40   1.352028 D    
O29   Cr1   1.962564 S    
C91   C92   1.429359 S    
O28   Cr4   2.054096 S    
C16   O36   1.268126 A    
C17   C69   1.456810 S    
C43   C60   1.430718 A    
C89   C90   1.429358 S    
C62   C66   1.381451 A    
C67   C68   1.398342 A    
C84   N4    1.442229 S    
C30   C34   1.328794 D    
C41   C58   1.419424 A    
C32   H12   1.087221 S    
O41   Cr9   2.081723 S    
C23   C87   1.428223 S    
O37   Cr5   1.941159 S    
O36   Cr8   2.060524 S    
O31   C15   1.284077 A    
O16   C8    1.272376 A    
O27   Cr3   2.047625 S    
Cr9   O49   1.977271 S    
C80   C84   1.466598 S    
C86   H41   1.087692 S    
C65   C66   1.393395 A    
C50   H18   1.070903 S    
