data_mof_unit_41961.cif
_audit_creation_date              2013-03-05T16:31:09-0500
_audit_creation_method            fapswitch 2.2
_symmetry_space_group_name_H-M    P1
_symmetry_Int_Tables_number       1
_space_group_crystal_system       triclinic
_cell_length_a                    22.416516
_cell_length_b                    26.093192
_cell_length_c                    22.426956
_cell_angle_alpha                 90.456395
_cell_angle_beta                  90.068824
_cell_angle_gamma                 89.970518
_cell_volume                      13117.51317

loop_
_atom_site_label
_atom_site_type_symbol
_atom_site_description
_atom_site_fract_x
_atom_site_fract_y
_atom_site_fract_z
_atom_type_partial_charge
Zn1   Zn    Zn3+2 0.549450 0.706630 0.799470 0.968446
Zn2   Zn    Zn3+2 0.549450 0.706630 0.200530 0.961918
Zn3   Zn    Zn3+2 0.549450 0.293370 0.200530 0.976777
Zn4   Zn    Zn3+2 0.549450 0.293370 0.799470 0.967246
Zn5   Zn    Zn3+2 0.549450 0.206630 0.299470 0.974028
Zn6   Zn    Zn3+2 0.549450 0.206630 0.700530 0.965484
Zn7   Zn    Zn3+2 0.549450 0.793370 0.700530 0.971154
Zn8   Zn    Zn3+2 0.549450 0.793370 0.299470 0.964195
Zn9   Zn    Zn3+2 0.049450 0.706630 0.299470 0.977448
Zn10  Zn    Zn3+2 0.049450 0.706630 0.700530 0.967964
Zn11  Zn    Zn3+2 0.049450 0.293370 0.700530 0.968012
Zn12  Zn    Zn3+2 0.049450 0.293370 0.299470 0.960776
Zn13  Zn    Zn3+2 0.049450 0.206630 0.799470 0.974456
Zn14  Zn    Zn3+2 0.049450 0.206630 0.200530 0.965121
Zn15  Zn    Zn3+2 0.049450 0.793370 0.200530 0.970754
Zn16  Zn    Zn3+2 0.049450 0.793370 0.799470 0.964236
Zn17  Zn    Zn3+2 0.450550 0.793390 0.799460 0.988340
Zn18  Zn    Zn3+2 0.450550 0.793390 0.200540 0.978397
Zn19  Zn    Zn3+2 0.450550 0.206610 0.200540 0.984583
Zn20  Zn    Zn3+2 0.450550 0.206610 0.799460 0.971496
Zn21  Zn    Zn3+2 0.450550 0.293390 0.299460 0.985950
Zn22  Zn    Zn3+2 0.450550 0.293390 0.700540 0.974708
Zn23  Zn    Zn3+2 0.450550 0.706610 0.700540 0.984921
Zn24  Zn    Zn3+2 0.450550 0.706610 0.299460 0.977119
Zn25  Zn    Zn3+2 0.950550 0.793390 0.299460 0.988087
Zn26  Zn    Zn3+2 0.950550 0.793390 0.700540 0.976777
Zn27  Zn    Zn3+2 0.950550 0.206610 0.700540 0.984956
Zn28  Zn    Zn3+2 0.950550 0.206610 0.299460 0.973126
Zn29  Zn    Zn3+2 0.950550 0.293390 0.799460 0.984239
Zn30  Zn    Zn3+2 0.950550 0.293390 0.200540 0.976523
Zn31  Zn    Zn3+2 0.950550 0.706610 0.200540 0.986683
Zn32  Zn    Zn3+2 0.950550 0.706610 0.799460 0.975110
O1    O     O_3   0.500000 0.750000 0.750000 -0.488524
O2    O     O_3   0.500000 0.750000 0.250000 -0.484602
O3    O     O_3   0.500000 0.250000 0.250000 -0.490156
O4    O     O_3   0.500000 0.250000 0.750000 -0.485221
O5    O     O_3   0.000000 0.750000 0.250000 -0.489976
O6    O     O_3   0.000000 0.750000 0.750000 -0.485177
O7    O     O_3   1.000000 0.250000 0.750000 -0.488767
O8    O     O_3   0.000000 0.250000 0.250000 -0.484505
O9    O     O_R   0.534620 0.865830 0.715390 -0.664690
O10   O     O_R   0.534620 0.865830 0.284610 -0.654527
O11   O     O_R   0.534620 0.134170 0.284610 -0.664917
O12   O     O_R   0.534620 0.134170 0.715390 -0.649749
O13   O     O_R   0.534620 0.365830 0.215390 -0.660139
O14   O     O_R   0.534620 0.365830 0.784610 -0.651261
O15   O     O_R   0.534620 0.634170 0.784610 -0.669210
O16   O     O_R   0.534620 0.634170 0.215390 -0.654590
O17   O     O_R   0.034620 0.865830 0.215390 -0.664762
O18   O     O_R   0.034620 0.865830 0.784610 -0.654518
O19   O     O_R   0.034620 0.134170 0.784610 -0.664826
O20   O     O_R   0.034620 0.134170 0.215390 -0.649656
O21   O     O_R   0.034620 0.365830 0.715390 -0.668851
O22   O     O_R   0.034620 0.365830 0.284610 -0.654258
O23   O     O_R   0.034620 0.634170 0.284610 -0.660413
O24   O     O_R   0.034620 0.634170 0.715390 -0.651661
O25   O     O_R   0.465390 0.780380 0.882040 -0.629842
O26   O     O_R   0.465390 0.780380 0.117960 -0.650985
O27   O     O_R   0.465390 0.219620 0.117960 -0.632968
O28   O     O_R   0.465390 0.219620 0.882040 -0.657885
O29   O     O_R   0.465390 0.280380 0.382040 -0.630945
O30   O     O_R   0.465390 0.280380 0.617960 -0.651759
O31   O     O_R   0.465390 0.719620 0.617960 -0.632425
O32   O     O_R   0.465390 0.719620 0.382040 -0.656528
O33   O     O_R   0.965390 0.780380 0.382040 -0.630639
O34   O     O_R   0.965390 0.780380 0.617960 -0.652753
O35   O     O_R   0.965390 0.219620 0.617960 -0.632140
O36   O     O_R   0.965390 0.219620 0.382040 -0.656133
O37   O     O_R   0.965390 0.280380 0.882040 -0.633050
O38   O     O_R   0.965390 0.280380 0.117960 -0.657281
O39   O     O_R   0.965390 0.719620 0.117960 -0.630311
O40   O     O_R   0.965390 0.719620 0.882040 -0.651122
O41   O     O_R   0.367970 0.780380 0.784610 -0.648603
O42   O     O_R   0.367970 0.780380 0.215390 -0.640183
O43   O     O_R   0.367970 0.219620 0.215390 -0.648759
O44   O     O_R   0.367970 0.219620 0.784610 -0.634679
O45   O     O_R   0.367970 0.280380 0.284610 -0.648919
O46   O     O_R   0.367970 0.280380 0.715390 -0.641509
O47   O     O_R   0.367970 0.719620 0.715390 -0.648831
O48   O     O_R   0.367970 0.719620 0.284610 -0.633516
O49   O     O_R   0.867970 0.780380 0.284610 -0.649038
O50   O     O_R   0.867970 0.780380 0.715390 -0.638573
O51   O     O_R   0.867970 0.219620 0.715390 -0.648014
O52   O     O_R   0.867970 0.219620 0.284610 -0.636232
O53   O     O_R   0.867970 0.280380 0.784610 -0.648369
O54   O     O_R   0.867970 0.280380 0.215390 -0.635006
O55   O     O_R   0.867970 0.719620 0.215390 -0.649273
O56   O     O_R   0.867970 0.719620 0.784610 -0.640137
O57   O     O_R   0.632030 0.780380 0.715400 -0.649288
O58   O     O_R   0.632030 0.780380 0.284600 -0.654830
O59   O     O_R   0.632030 0.219620 0.284600 -0.649870
O60   O     O_R   0.632030 0.219620 0.715400 -0.652549
O61   O     O_R   0.632030 0.280380 0.215400 -0.647758
O62   O     O_R   0.632030 0.280380 0.784600 -0.653877
O63   O     O_R   0.632030 0.719620 0.784600 -0.650850
O64   O     O_R   0.632030 0.719620 0.215400 -0.653478
O65   O     O_R   0.132030 0.780380 0.215400 -0.651003
O66   O     O_R   0.132030 0.780380 0.784600 -0.654896
O67   O     O_R   0.132030 0.219620 0.784600 -0.648198
O68   O     O_R   0.132030 0.219620 0.215400 -0.652734
O69   O     O_R   0.132030 0.280380 0.715400 -0.651309
O70   O     O_R   0.132030 0.280380 0.284600 -0.654618
O71   O     O_R   0.132030 0.719620 0.284600 -0.647031
O72   O     O_R   0.132030 0.719620 0.715400 -0.653050
O73   O     O_R   0.534620 0.719650 0.882050 -0.646008
O74   O     O_R   0.534620 0.719650 0.117950 -0.640378
O75   O     O_R   0.534620 0.280350 0.117950 -0.642960
O76   O     O_R   0.534620 0.280350 0.882050 -0.633413
O77   O     O_R   0.534620 0.219650 0.382050 -0.643275
O78   O     O_R   0.534620 0.219650 0.617950 -0.636023
O79   O     O_R   0.534620 0.780350 0.617950 -0.645411
O80   O     O_R   0.534620 0.780350 0.382050 -0.637311
O81   O     O_R   0.034620 0.719650 0.382050 -0.643733
O82   O     O_R   0.034620 0.719650 0.617950 -0.634433
O83   O     O_R   0.034620 0.280350 0.617950 -0.645192
O84   O     O_R   0.034620 0.280350 0.382050 -0.639456
O85   O     O_R   0.034620 0.219650 0.882050 -0.642801
O86   O     O_R   0.034620 0.219650 0.117950 -0.634818
O87   O     O_R   0.034620 0.780350 0.117950 -0.645852
O88   O     O_R   0.034620 0.780350 0.882050 -0.638504
O89   O     O_R   0.465390 0.865830 0.784610 -0.606521
O90   O     O_R   0.465390 0.865830 0.215390 -0.632343
O91   O     O_R   0.465390 0.134170 0.215390 -0.606089
O92   O     O_R   0.465390 0.134170 0.784610 -0.629319
O93   O     O_R   0.465390 0.365830 0.284610 -0.611080
O94   O     O_R   0.465390 0.365830 0.715390 -0.631404
O95   O     O_R   0.465390 0.634170 0.715390 -0.603119
O96   O     O_R   0.465390 0.634170 0.284610 -0.628229
O97   O     O_R   0.965390 0.865830 0.284610 -0.606688
O98   O     O_R   0.965390 0.865830 0.715390 -0.632426
O99   O     O_R   0.965390 0.134170 0.715390 -0.605944
O100  O     O_R   0.965390 0.134170 0.284610 -0.629349
O101  O     O_R   0.965390 0.365830 0.784610 -0.603121
O102  O     O_R   0.965390 0.365830 0.215390 -0.628116
O103  O     O_R   0.965390 0.634170 0.215390 -0.611113
O104  O     O_R   0.965390 0.634170 0.784610 -0.631710
C1    C     C_R   0.501242 0.890200 0.751891 0.908740
C2    C     C_R   0.497744 0.890436 0.252818 0.904785
C3    C     C_R   0.500891 0.109652 0.248575 0.915095
C4    C     C_R   0.499124 0.109438 0.748523 0.891129
C5    C     C_R   0.501444 0.390258 0.251891 0.910517
C6    C     C_R   0.498350 0.390517 0.752408 0.901578
C7    C     C_R   0.500691 0.609723 0.748616 0.913647
C8    C     C_R   0.498514 0.609522 0.248137 0.895919
C9    C     C_R   0.001237 0.890201 0.251890 0.908484
C10   C     C_R   0.997752 0.890437 0.752811 0.904867
C11   C     C_R   0.000888 0.109653 0.748574 0.915277
C12   C     C_R   0.999121 0.109439 0.248522 0.891224
C13   C     C_R   0.000694 0.390263 0.751403 0.913141
C14   C     C_R   0.998505 0.390492 0.251854 0.897455
C15   C     C_R   0.001442 0.609726 0.248124 0.910892
C16   C     C_R   0.998345 0.609500 0.747577 0.900172
C17   C     C_R   0.499937 0.750070 0.910035 0.854051
C18   C     C_R   0.500058 0.749950 0.089966 0.857835
C19   C     C_R   0.499921 0.249900 0.089970 0.852806
C20   C     C_R   0.500094 0.250051 0.910027 0.854031
C21   C     C_R   0.499932 0.250068 0.410035 0.851842
C22   C     C_R   0.500059 0.249953 0.589966 0.856322
C23   C     C_R   0.499927 0.749898 0.589970 0.855047
C24   C     C_R   0.500094 0.750054 0.410027 0.855332
C25   C     C_R   0.999936 0.750072 0.410035 0.853792
C26   C     C_R   0.000060 0.749954 0.589966 0.856092
C27   C     C_R   0.999923 0.249901 0.589970 0.853051
C28   C     C_R   0.000091 0.250056 0.410027 0.855842
C29   C     C_R   0.999941 0.250079 0.910036 0.854581
C30   C     C_R   0.000073 0.249969 0.089966 0.854194
C31   C     C_R   0.999918 0.749908 0.089971 0.852240
C32   C     C_R   0.000080 0.750069 0.910027 0.857475
C33   C     C_R   0.339935 0.749981 0.750010 0.828170
C34   C     C_R   0.340034 0.750005 0.249975 0.857154
C35   C     C_R   0.339935 0.249981 0.250009 0.826773
C36   C     C_R   0.340034 0.249997 0.749976 0.855449
C37   C     C_R   0.839934 0.749994 0.249996 0.828338
C38   C     C_R   0.840031 0.750019 0.749983 0.856243
C39   C     C_R   0.839935 0.249994 0.749995 0.826525
C40   C     C_R   0.840036 0.250012 0.249984 0.856478
C41   C     C_R   0.659964 0.749993 0.750015 0.861454
C42   C     C_R   0.660071 0.750007 0.250007 0.841048
C43   C     C_R   0.659962 0.249983 0.250014 0.863860
C44   C     C_R   0.660072 0.250007 0.750006 0.840098
C45   C     C_R   0.159963 0.749975 0.250003 0.864922
C46   C     C_R   0.160072 0.749998 0.750017 0.841183
C47   C     C_R   0.159963 0.249965 0.750002 0.860344
C48   C     C_R   0.160071 0.249997 0.250017 0.839835
C49   C     C_1   0.723297 0.750012 0.750010 -0.180621
C50   C     C_1   0.723334 0.750010 0.250012 -0.179643
C51   C     C_1   0.723301 0.249973 0.250021 -0.174116
C52   C     C_1   0.723337 0.250010 0.750010 -0.178261
C53   C     C_1   0.223299 0.749942 0.249998 -0.175967
C54   C     C_1   0.223336 0.749988 0.750036 -0.180465
C55   C     C_1   0.223299 0.249903 0.750008 -0.178329
C56   C     C_1   0.223335 0.249987 0.250034 -0.177613
C57   C     C_1   0.776687 0.750048 0.749967 -0.171071
C58   C     C_1   0.776676 0.749996 0.249996 -0.174153
C59   C     C_1   0.776691 0.250010 0.249980 -0.158289
C60   C     C_1   0.776679 0.249994 0.749992 -0.182149
C61   C     C_1   0.276689 0.749983 0.249957 -0.163211
C62   C     C_1   0.276678 0.749971 0.750022 -0.179317
C63   C     C_1   0.276690 0.249944 0.749971 -0.166036
C64   C     C_1   0.276677 0.249969 0.250019 -0.176368
C65   C     C_R   0.610669 0.546707 0.767980 -0.107519
C66   C     C_R   0.567388 0.542435 0.158491 -0.126227
C67   C     C_R   0.608992 0.454689 0.217866 -0.110228
C68   C     C_R   0.579987 0.458350 0.832163 -0.133595
C69   C     C_R   0.609082 0.044941 0.276450 -0.108025
C70   C     C_R   0.576833 0.041171 0.665458 -0.131241
C71   C     C_R   0.611331 0.952552 0.727403 -0.107614
C72   C     C_R   0.572082 0.957356 0.338861 -0.129855
C73   C     C_R   0.109031 0.545208 0.282249 -0.110943
C74   C     C_R   0.079748 0.541599 0.667816 -0.133304
C75   C     C_R   0.110626 0.453227 0.732001 -0.107455
C76   C     C_R   0.067524 0.457471 0.341534 -0.127289
C77   C     C_R   0.109109 0.044958 0.776322 -0.108883
C78   C     C_R   0.076798 0.041176 0.165431 -0.131373
C79   C     C_R   0.111309 0.952559 0.227371 -0.107366
C80   C     C_R   0.072187 0.957357 0.838755 -0.130631
C81   C     C_R   0.651528 0.525683 0.808671 0.340546
C82   C     C_R   0.622805 0.520618 0.142755 0.330130
C83   C     C_R   0.644567 0.477973 0.173875 0.331607
C84   C     C_R   0.635821 0.482174 0.841592 0.320761
C85   C     C_R   0.647363 0.022295 0.318675 0.336552
C86   C     C_R   0.632117 0.017350 0.652841 0.319651
C87   C     C_R   0.649878 0.973794 0.684810 0.337389
C88   C     C_R   0.628131 0.979584 0.351130 0.328575
C89   C     C_R   0.144707 0.521829 0.326194 0.332328
C90   C     C_R   0.135589 0.517774 0.658421 0.320643
C91   C     C_R   0.151394 0.474256 0.691339 0.340529
C92   C     C_R   0.123020 0.479173 0.357243 0.330260
C93   C     C_R   0.147444 0.022296 0.818480 0.337476
C94   C     C_R   0.132086 0.017362 0.152813 0.319595
C95   C     C_R   0.149853 0.973804 0.184777 0.337378
C96   C     C_R   0.128278 0.979563 0.850924 0.328667
C97   C     C_R   0.038458 0.975508 0.789474 -0.074521
C98   C     C_R   0.053272 0.973507 0.234143 -0.071635
C99   C     C_R   0.042435 0.023685 0.214684 -0.063785
C100  C     C_R   0.050240 0.025354 0.769555 -0.068081
C101  C     C_R   0.037419 0.475831 0.290101 -0.066850
C102  C     C_R   0.052202 0.474085 0.735434 -0.072705
C103  C     C_R   0.042459 0.524085 0.714868 -0.073342
C104  C     C_R   0.050646 0.525809 0.271547 -0.066140
C105  C     C_R   0.538404 0.975504 0.289544 -0.075084
C106  C     C_R   0.553298 0.973507 0.734174 -0.071569
C107  C     C_R   0.542465 0.023686 0.714710 -0.063802
C108  C     C_R   0.550212 0.025346 0.269629 -0.067989
C109  C     C_R   0.542576 0.475882 0.785106 -0.073299
C110  C     C_R   0.550626 0.474144 0.228516 -0.066028
C111  C     C_R   0.537379 0.524132 0.209930 -0.067377
C112  C     C_R   0.552253 0.525875 0.764548 -0.072672
C113  C     C_R   0.501852 0.553627 0.744940 -0.180107
C114  C     C_R   0.496622 0.553022 0.245774 -0.200641
C115  C     C_R   0.504014 0.446339 0.256043 -0.187920
C116  C     C_R   0.495973 0.447033 0.756929 -0.185272
C117  C     C_R   0.501589 0.053409 0.246004 -0.183636
C118  C     C_R   0.498813 0.052839 0.747159 -0.207765
C119  C     C_R   0.504315 0.946114 0.757339 -0.184916
C120  C     C_R   0.494040 0.946851 0.258123 -0.180247
C121  C     C_R   0.004000 0.553651 0.243975 -0.188096
C122  C     C_R   0.995937 0.552978 0.743047 -0.184700
C123  C     C_R   0.001858 0.446368 0.755081 -0.179962
C124  C     C_R   0.996619 0.446984 0.254202 -0.201323
C125  C     C_R   0.001595 0.053413 0.745980 -0.183701
C126  C     C_R   0.998804 0.052840 0.247156 -0.207966
C127  C     C_R   0.004300 0.946116 0.257336 -0.184645
C128  C     C_R   0.994065 0.946854 0.758096 -0.180168
C129  C     C_R   0.449466 0.526949 0.728512 0.377668
C130  C     C_R   0.458719 0.526504 0.285636 0.361254
C131  C     C_R   0.456007 0.473397 0.282171 0.371593
C132  C     C_R   0.450388 0.473542 0.726280 0.357584
C133  C     C_R   0.449716 0.026923 0.227113 0.375304
C134  C     C_R   0.458754 0.026439 0.785103 0.360502
C135  C     C_R   0.455403 0.973412 0.780970 0.376167
C136  C     C_R   0.450094 0.973459 0.225372 0.357654
C137  C     C_R   0.955966 0.526636 0.217763 0.372072
C138  C     C_R   0.950427 0.526506 0.773710 0.357659
C139  C     C_R   0.949513 0.473096 0.771512 0.377560
C140  C     C_R   0.958689 0.473528 0.214281 0.360930
C141  C     C_R   0.949721 0.026923 0.727100 0.375348
C142  C     C_R   0.958771 0.026445 0.285133 0.360472
C143  C     C_R   0.955407 0.973417 0.281010 0.376372
C144  C     C_R   0.950105 0.973460 0.725364 0.357546
C145  C     C_1   0.499898 0.749861 0.526674 -0.154863
C146  C     C_1   0.500124 0.750064 0.473320 -0.156199
C147  C     C_1   0.499900 0.250085 0.473326 -0.151395
C148  C     C_1   0.500070 0.249933 0.526678 -0.153099
C149  C     C_1   0.499890 0.249860 0.026673 -0.153063
C150  C     C_1   0.500118 0.250061 0.973319 -0.154552
C151  C     C_1   0.499906 0.750083 0.973326 -0.153140
C152  C     C_1   0.500074 0.749929 0.026678 -0.155349
C153  C     C_1   0.999881 0.749889 0.026675 -0.152464
C154  C     C_1   0.000106 0.750095 0.973321 -0.153297
C155  C     C_1   0.999917 0.250113 0.973327 -0.153780
C156  C     C_1   0.000088 0.249964 0.026679 -0.156043
C157  C     C_1   0.999892 0.249867 0.526673 -0.154974
C158  C     C_1   0.000119 0.250069 0.473319 -0.158138
C159  C     C_1   0.999904 0.750090 0.473326 -0.151161
C160  C     C_1   0.000073 0.749937 0.526678 -0.151801
O105  O     O_3   0.398485 0.552449 0.710292 -0.636372
C161  C     C_3   0.362826 0.565168 0.760425 0.075220
H1    H     H_    0.335021 0.598644 0.747818 0.170823
H2    H     H_    0.389596 0.577620 0.799941 0.102850
C162  C     C_3   0.321547 0.520646 0.777280 -0.318732
H3    H     H_    0.301915 0.503279 0.736474 0.269699
H4    H     H_    0.347738 0.490697 0.800596 0.239204
C163  C     C_3   0.271023 0.538461 0.817985 -0.949100
H5    H     H_    0.289396 0.555879 0.859456 0.269674
H6    H     H_    0.242808 0.505148 0.830046 0.283329
H7    H     H_    0.242627 0.566991 0.794794 0.251109
O106  O     O_3   0.419360 0.551568 0.323583 -0.626092
C164  C     C_3   0.448629 0.564163 0.377907 0.145495
H8    H     H_    0.426523 0.598943 0.396416 0.180819
H9    H     H_    0.496626 0.574317 0.371818 0.109165
C165  C     C_3   0.443108 0.521131 0.423579 -0.367565
H10   H     H_    0.395410 0.510604 0.429047 0.242257
H11   H     H_    0.468033 0.486873 0.407686 0.249255
C166  C     C_3   0.468785 0.538011 0.483768 -0.939307
H12   H     H_    0.515274 0.551957 0.478425 0.271429
H13   H     H_    0.469627 0.505231 0.514905 0.270644
H14   H     H_    0.441038 0.569080 0.503509 0.272220
O107  O     O_3   0.408762 0.448567 0.309277 -0.612755
C167  C     C_3   0.364069 0.437556 0.266246 0.100330
H15   H     H_    0.339927 0.402822 0.281300 0.170887
H16   H     H_    0.382480 0.428006 0.221252 0.100988
C168  C     C_3   0.319382 0.481789 0.261683 -0.320164
H17   H     H_    0.303569 0.492255 0.307046 0.272077
H18   H     H_    0.341461 0.515747 0.241971 0.241323
C169  C     C_3   0.266160 0.467203 0.222564 -0.928372
H19   H     H_    0.281393 0.457170 0.176827 0.263887
H20   H     H_    0.234929 0.500121 0.219723 0.289844
H21   H     H_    0.241990 0.434032 0.241670 0.246307
O108  O     O_3   0.402202 0.447743 0.701564 -0.630343
C170  C     C_3   0.408805 0.443576 0.638766 0.148099
H22   H     H_    0.399537 0.403027 0.626406 0.186937
H23   H     H_    0.454838 0.451682 0.622206 0.094605
C171  C     C_3   0.363915 0.478370 0.606824 -0.332558
H24   H     H_    0.322199 0.481668 0.633209 0.265197
H25   H     H_    0.383254 0.517324 0.602268 0.247038
C172  C     C_3   0.348044 0.457630 0.544948 -0.995875
H26   H     H_    0.388843 0.448862 0.518895 0.278835
H27   H     H_    0.321194 0.486449 0.520569 0.268671
H28   H     H_    0.321472 0.421970 0.548867 0.270639
O109  O     O_3   0.399885 0.052573 0.206196 -0.635186
C173  C     C_3   0.362195 0.066349 0.254459 0.084059
H29   H     H_    0.335561 0.099977 0.240030 0.174039
H30   H     H_    0.387336 0.078971 0.294960 0.102087
C174  C     C_3   0.319407 0.022577 0.270187 -0.320898
H31   H     H_    0.300951 0.005206 0.228857 0.265859
H32   H     H_    0.344078 0.992437 0.294773 0.241930
C175  C     C_3   0.267744 0.041453 0.308772 -0.955011
H33   H     H_    0.284883 0.058868 0.350770 0.269901
H34   H     H_    0.238365 0.008669 0.320023 0.283769
H35   H     H_    0.240877 0.070256 0.284274 0.250856
O110  O     O_3   0.418369 0.051519 0.821921 -0.627531
C176  C     C_3   0.446376 0.064448 0.876830 0.143322
H36   H     H_    0.422804 0.098480 0.895397 0.179444
H37   H     H_    0.494053 0.075904 0.871500 0.113770
C177  C     C_3   0.442005 0.020968 0.922036 -0.368980
H38   H     H_    0.394601 0.009496 0.927396 0.242547
H39   H     H_    0.467800 0.987305 0.905805 0.248108
C178  C     C_3   0.467364 0.037980 0.982326 -0.939096
H40   H     H_    0.513244 0.053335 0.976966 0.270033
H41   H     H_    0.469787 0.004952 0.013003 0.271792
H42   H     H_    0.438522 0.068028 0.002627 0.271769
O111  O     O_3   0.406501 0.948789 0.805236 -0.610891
C179  C     C_3   0.363977 0.938752 0.759776 0.092205
H43   H     H_    0.337740 0.904768 0.773579 0.167438
H44   H     H_    0.384634 0.928449 0.716005 0.100361
C180  C     C_3   0.321358 0.984187 0.752409 -0.320003
H45   H     H_    0.304560 0.996084 0.796911 0.278641
H46   H     H_    0.345544 0.017021 0.732569 0.235567
C181  C     C_3   0.268825 0.970473 0.711973 -0.921836
H47   H     H_    0.285078 0.958973 0.667051 0.263230
H48   H     H_    0.239177 0.004299 0.707249 0.288260
H49   H     H_    0.242568 0.938551 0.731209 0.246690
O112  O     O_3   0.402320 0.947802 0.199596 -0.628785
C182  C     C_3   0.410361 0.943008 0.137032 0.152013
H50   H     H_    0.401716 0.902263 0.125092 0.187835
H51   H     H_    0.456647 0.951362 0.121383 0.093359
C183  C     C_3   0.365765 0.977034 0.103587 -0.334048
H52   H     H_    0.323498 0.980391 0.129048 0.262682
H53   H     H_    0.384826 0.016055 0.098751 0.246944
C184  C     C_3   0.351231 0.955415 0.041763 -0.996065
H54   H     H_    0.392545 0.945958 0.016867 0.279104
H55   H     H_    0.325232 0.984032 0.016196 0.267654
H56   H     H_    0.324223 0.920005 0.045645 0.271298
O113  O     O_3   0.908708 0.551500 0.190556 -0.613088
C185  C     C_3   0.864004 0.562513 0.233481 0.099734
H57   H     H_    0.839574 0.597053 0.218165 0.171180
H58   H     H_    0.882454 0.572393 0.278402 0.101139
C186  C     C_3   0.819651 0.518096 0.238377 -0.320703
H59   H     H_    0.803984 0.507140 0.193080 0.271957
H60   H     H_    0.841968 0.484426 0.258580 0.240782
C187  C     C_3   0.766252 0.532747 0.277116 -0.928136
H61   H     H_    0.781337 0.543301 0.322780 0.263651
H62   H     H_    0.735311 0.499681 0.280265 0.289821
H63   H     H_    0.741810 0.565590 0.257491 0.246263
O114  O     O_3   0.902282 0.552340 0.798404 -0.630232
C188  C     C_3   0.909030 0.556560 0.861199 0.148505
H64   H     H_    0.899789 0.597129 0.873506 0.187087
H65   H     H_    0.955100 0.548425 0.877772 0.094513
C189  C     C_3   0.864210 0.521845 0.893188 -0.333450
H66   H     H_    0.822434 0.518555 0.866804 0.265174
H67   H     H_    0.883554 0.482877 0.897801 0.247045
C190  C     C_3   0.848478 0.542670 0.955034 -0.995084
H68   H     H_    0.889337 0.551458 0.981069 0.278862
H69   H     H_    0.821710 0.513890 0.979461 0.268607
H70   H     H_    0.821873 0.578335 0.951064 0.270766
O115  O     O_3   0.898594 0.447646 0.789792 -0.636382
C191  C     C_3   0.862780 0.434913 0.739700 0.075602
H71   H     H_    0.835012 0.401476 0.752373 0.171052
H72   H     H_    0.889428 0.422400 0.700183 0.102976
C192  C     C_3   0.821449 0.479456 0.722813 -0.319265
H73   H     H_    0.801946 0.496881 0.763609 0.269828
H74   H     H_    0.847568 0.509356 0.699435 0.239143
C193  C     C_3   0.770794 0.461646 0.682174 -0.948681
H75   H     H_    0.789033 0.444165 0.640714 0.269741
H76   H     H_    0.742545 0.494973 0.670085 0.283228
H77   H     H_    0.742468 0.433170 0.705430 0.251189
O116  O     O_3   0.919304 0.448492 0.176272 -0.626163
C194  C     C_3   0.948560 0.435797 0.122035 0.145540
H78   H     H_    0.926426 0.401029 0.103522 0.180758
H79   H     H_    0.996551 0.425584 0.128246 0.109258
C195  C     C_3   0.943069 0.478786 0.076292 -0.367794
H80   H     H_    0.895371 0.489334 0.070658 0.242285
H81   H     H_    0.967966 0.513045 0.092225 0.249186
C196  C     C_3   0.968809 0.461827 0.016212 -0.939209
H82   H     H_    0.015294 0.447851 0.021731 0.271412
H83   H     H_    0.969682 0.494572 0.985032 0.270727
H84   H     H_    0.941086 0.430759 0.996419 0.272158
O117  O     O_3   0.899893 0.052569 0.706169 -0.635144
C197  C     C_3   0.862178 0.066325 0.754418 0.084047
H85   H     H_    0.835536 0.099947 0.739984 0.174182
H86   H     H_    0.887298 0.078952 0.794931 0.102066
C198  C     C_3   0.819403 0.022537 0.770121 -0.320902
H87   H     H_    0.801002 0.005143 0.728779 0.266006
H88   H     H_    0.844069 0.992417 0.794744 0.241866
C199  C     C_3   0.767687 0.041396 0.808647 -0.954794
H89   H     H_    0.784772 0.058836 0.850654 0.269922
H90   H     H_    0.738322 0.008599 0.819885 0.283722
H91   H     H_    0.740822 0.070175 0.784109 0.250897
O118  O     O_3   0.918415 0.051532 0.321978 -0.627537
C200  C     C_3   0.946465 0.064478 0.376860 0.143470
H92   H     H_    0.922917 0.098525 0.395422 0.179457
H93   H     H_    0.994143 0.075918 0.371493 0.113674
C201  C     C_3   0.942106 0.021022 0.422095 -0.369128
H94   H     H_    0.894702 0.009558 0.427480 0.242708
H95   H     H_    0.967890 0.987348 0.405874 0.248138
C202  C     C_3   0.967490 0.038060 0.482366 -0.938914
H96   H     H_    0.013375 0.053396 0.476979 0.270043
H97   H     H_    0.969904 0.005050 0.513069 0.271780
H98   H     H_    0.938667 0.068130 0.502651 0.271791
O119  O     O_3   0.906572 0.948804 0.305429 -0.611467
C203  C     C_3   0.863910 0.938743 0.260106 0.091817
H99   H     H_    0.837451 0.904981 0.274219 0.167886
H100  H     H_    0.884463 0.928070 0.216406 0.100638
C204  C     C_3   0.821599 0.984358 0.252394 -0.321140
H101  H     H_    0.805139 0.996804 0.296826 0.278568
H102  H     H_    0.845934 0.016847 0.231980 0.234903
C205  C     C_3   0.768724 0.970567 0.212443 -0.920955
H103  H     H_    0.784625 0.958451 0.167608 0.262911
H104  H     H_    0.739372 0.004543 0.207364 0.288148
H105  H     H_    0.742267 0.939057 0.232312 0.246717
O120  O     O_3   0.902335 0.947803 0.699585 -0.628760
C206  C     C_3   0.910426 0.942951 0.637034 0.152228
H106  H     H_    0.901773 0.902198 0.625135 0.187925
H107  H     H_    0.956728 0.951278 0.621409 0.093368
C207  C     C_3   0.865873 0.976957 0.603513 -0.334806
H108  H     H_    0.823567 0.980312 0.628911 0.262600
H109  H     H_    0.884928 0.015981 0.598686 0.247029
C208  C     C_3   0.851444 0.955302 0.541682 -0.995487
H110  H     H_    0.892803 0.945903 0.516832 0.279207
H111  H     H_    0.825409 0.983870 0.516077 0.267744
H112  H     H_    0.824517 0.919845 0.545564 0.271174
C209  C     C_2   0.632200 0.586041 0.725373 0.459934
H113  H     H_    0.672044 0.608080 0.734982 0.086413
O121  O     O_2   0.607141 0.592650 0.677669 -0.604001
C210  C     C_2   0.537926 0.577158 0.115172 0.527374
H114  H     H_    0.563921 0.596322 0.081200 0.084708
O122  O     O_2   0.483914 0.583339 0.115661 -0.590898
C211  C     C_2   0.637160 0.416322 0.257896 0.464156
H115  H     H_    0.677075 0.395936 0.244153 0.087257
O123  O     O_2   0.617636 0.408648 0.307841 -0.601880
C212  C     C_2   0.557365 0.424074 0.879729 0.547036
H116  H     H_    0.588224 0.404537 0.909150 0.078966
O124  O     O_2   0.503873 0.418771 0.887953 -0.584736
C213  C     C_2   0.634427 0.083317 0.234726 0.455864
H117  H     H_    0.674686 0.104216 0.246259 0.086964
O125  O     O_2   0.612156 0.090379 0.185757 -0.601501
C214  C     C_2   0.551330 0.075497 0.619381 0.544090
H118  H     H_    0.580329 0.095037 0.588229 0.081562
O126  O     O_2   0.497424 0.080821 0.614328 -0.587382
C215  C     C_2   0.635261 0.913354 0.769009 0.466079
H119  H     H_    0.675143 0.891936 0.757925 0.086847
O127  O     O_2   0.612189 0.906181 0.817529 -0.605493
C216  C     C_2   0.545788 0.922745 0.384230 0.532332
H120  H     H_    0.574126 0.903712 0.416475 0.081985
O128  O     O_2   0.491888 0.916524 0.387416 -0.587450
C217  C     C_2   0.137122 0.583597 0.242295 0.464229
H121  H     H_    0.177019 0.603980 0.256122 0.087325
O129  O     O_2   0.117555 0.591293 0.192320 -0.601999
C218  C     C_2   0.056989 0.575878 0.620242 0.546372
H122  H     H_    0.087762 0.595365 0.590784 0.079081
O130  O     O_2   0.003473 0.581241 0.612054 -0.585283
C219  C     C_2   0.132281 0.413872 0.774594 0.460490
H123  H     H_    0.172100 0.391800 0.764962 0.086319
O131  O     O_2   0.107354 0.407278 0.822305 -0.603919
C220  C     C_2   0.038096 0.422832 0.384873 0.526770
H124  H     H_    0.064110 0.403711 0.418941 0.084509
O132  O     O_2   0.984085 0.416688 0.384302 -0.590168
C221  C     C_2   0.134398 0.083367 0.734605 0.456187
H125  H     H_    0.174646 0.104286 0.746126 0.087319
O133  O     O_2   0.112092 0.090437 0.685652 -0.601314
C222  C     C_2   0.051291 0.075508 0.119363 0.544114
H126  H     H_    0.080287 0.095046 0.088206 0.081602
O134  O     O_2   0.997385 0.080841 0.114324 -0.587158
C223  C     C_2   0.135252 0.913383 0.268996 0.465813
H127  H     H_    0.175144 0.891975 0.257925 0.086490
O135  O     O_2   0.112181 0.906219 0.317518 -0.605637
C224  C     C_2   0.045872 0.922848 0.884221 0.531102
H128  H     H_    0.074179 0.903942 0.916592 0.081567
O136  O     O_2   0.991974 0.916595 0.887368 -0.587388
O137  O     O_3   0.706943 0.548011 0.816831 -0.666146
C225  C     C_3   0.702265 0.587592 0.860142 0.071727
H129  H     H_    0.709764 0.571073 0.905117 0.188536
H130  H     H_    0.657895 0.607205 0.859905 0.144598
C226  C     C_3   0.749830 0.628139 0.847908 -0.323840
H131  H     H_    0.794619 0.610197 0.848322 0.249253
H132  H     H_    0.742590 0.644601 0.802991 0.228152
C227  C     C_3   0.747932 0.671331 0.894120 -0.934303
H133  H     H_    0.704085 0.691140 0.892709 0.279852
H134  H     H_    0.783501 0.699637 0.884364 0.281367
H135  H     H_    0.755365 0.655949 0.939509 0.252122
O138  O     O_3   0.654932 0.539484 0.095125 -0.647228
C228  C     C_3   0.693388 0.578433 0.116294 0.093167
H136  H     H_    0.726008 0.562521 0.148675 0.180960
H137  H     H_    0.667644 0.609973 0.138159 0.133747
C229  C     C_3   0.727794 0.600536 0.063730 -0.357686
H138  H     H_    0.750974 0.568965 0.039666 0.241241
H139  H     H_    0.696031 0.618978 0.032390 0.221357
C230  C     C_3   0.773847 0.639921 0.084447 -0.912513
H140  H     H_    0.751715 0.671862 0.108919 0.269454
H141  H     H_    0.797416 0.655797 0.045208 0.264134
H142  H     H_    0.807328 0.621630 0.114002 0.278888
O139  O     O_3   0.703123 0.462927 0.165558 -0.668340
C231  C     C_3   0.705549 0.422503 0.123510 0.066598
H143  H     H_    0.694063 0.436865 0.078289 0.185161
H144  H     H_    0.674373 0.390901 0.135428 0.138537
C232  C     C_3   0.769249 0.401430 0.122666 -0.313039
H145  H     H_    0.800140 0.431512 0.106287 0.232155
H146  H     H_    0.782845 0.391183 0.168766 0.247402
C233  C     C_3   0.774680 0.353977 0.082933 -0.937785
H147  H     H_    0.745472 0.322869 0.099659 0.273205
H148  H     H_    0.821575 0.340225 0.083173 0.276016
H149  H     H_    0.761964 0.363251 0.036481 0.256644
O140  O     O_3   0.673231 0.465545 0.886516 -0.645804
C234  C     C_3   0.713001 0.428911 0.862386 0.088210
H150  H     H_    0.745188 0.447852 0.832025 0.177263
H151  H     H_    0.688724 0.398177 0.837359 0.127906
C235  C     C_3   0.747391 0.404008 0.913312 -0.372082
H152  H     H_    0.769922 0.434101 0.940481 0.238371
H153  H     H_    0.715393 0.383342 0.942293 0.219454
C236  C     C_3   0.794109 0.366277 0.890115 -0.888981
H154  H     H_    0.772761 0.336075 0.862182 0.268927
H155  H     H_    0.816826 0.347744 0.928328 0.263694
H156  H     H_    0.828134 0.386661 0.863355 0.291785
O141  O     O_3   0.705630 0.038806 0.324808 -0.667287
C237  C     C_3   0.708133 0.078993 0.367184 0.064303
H157  H     H_    0.696990 0.064449 0.412394 0.184093
H158  H     H_    0.676702 0.110509 0.355475 0.141303
C238  C     C_3   0.771671 0.100317 0.368076 -0.311195
H159  H     H_    0.802805 0.070205 0.384042 0.236345
H160  H     H_    0.784963 0.111044 0.322076 0.247377
C239  C     C_3   0.776934 0.147408 0.408431 -0.935280
H161  H     H_    0.747506 0.178577 0.392105 0.273991
H162  H     H_    0.823742 0.161334 0.408365 0.277502
H163  H     H_    0.764367 0.137644 0.454772 0.256261
O142  O     O_3   0.666969 0.034232 0.606123 -0.645276
C240  C     C_3   0.709028 0.069663 0.628740 0.092704
H164  H     H_    0.740511 0.050324 0.659629 0.176553
H165  H     H_    0.686470 0.101874 0.652770 0.128661
C241  C     C_3   0.744445 0.091755 0.576834 -0.364164
H166  H     H_    0.764785 0.060023 0.550490 0.238594
H167  H     H_    0.713617 0.113267 0.547324 0.220328
C242  C     C_3   0.793749 0.127603 0.598715 -0.906041
H168  H     H_    0.774593 0.159556 0.625565 0.270755
H169  H     H_    0.817622 0.143911 0.559892 0.264374
H170  H     H_    0.826376 0.106217 0.626261 0.289463
O143  O     O_3   0.705352 0.952155 0.674521 -0.667375
C243  C     C_3   0.699826 0.912155 0.631822 0.076680
H171  H     H_    0.706686 0.928277 0.586573 0.188936
H172  H     H_    0.655405 0.892694 0.632802 0.142724
C244  C     C_3   0.747527 0.871554 0.643911 -0.327152
H173  H     H_    0.792329 0.889477 0.643699 0.247820
H174  H     H_    0.740427 0.854843 0.688691 0.228174
C245  C     C_3   0.745681 0.828484 0.597550 -0.937087
H175  H     H_    0.701649 0.808986 0.598399 0.278485
H176  H     H_    0.780910 0.799904 0.607684 0.279299
H177  H     H_    0.753732 0.843904 0.552297 0.252988
O144  O     O_3   0.663054 0.961573 0.397322 -0.646882
C246  C     C_3   0.699875 0.921851 0.375209 0.089335
H178  H     H_    0.732071 0.937252 0.342189 0.179037
H179  H     H_    0.672885 0.890821 0.353832 0.132617
C247  C     C_3   0.734831 0.898955 0.427041 -0.359889
H180  H     H_    0.760528 0.929791 0.449786 0.241018
H181  H     H_    0.703128 0.882272 0.459648 0.220217
C248  C     C_3   0.777904 0.857373 0.405744 -0.900645
H182  H     H_    0.753258 0.826177 0.382411 0.267463
H183  H     H_    0.801619 0.840922 0.444649 0.263671
H184  H     H_    0.811531 0.873821 0.375044 0.281707
O145  O     O_3   0.203298 0.536773 0.334503 -0.667780
C249  C     C_3   0.205889 0.577098 0.376672 0.066511
H185  H     H_    0.194604 0.562633 0.421867 0.185249
H186  H     H_    0.174650 0.608751 0.364917 0.138129
C250  C     C_3   0.269581 0.598135 0.377459 -0.313256
H187  H     H_    0.300571 0.567962 0.393566 0.232383
H188  H     H_    0.282927 0.608581 0.331384 0.247380
C251  C     C_3   0.275200 0.645401 0.417469 -0.937108
H189  H     H_    0.245841 0.676586 0.401064 0.273454
H190  H     H_    0.322073 0.659162 0.417131 0.276041
H191  H     H_    0.262798 0.635899 0.463907 0.256650
O146  O     O_3   0.172939 0.534441 0.613575 -0.645743
C252  C     C_3   0.212542 0.571191 0.637768 0.088251
H192  H     H_    0.244777 0.552356 0.668269 0.177018
H193  H     H_    0.188122 0.601906 0.662664 0.128057
C253  C     C_3   0.246878 0.596104 0.586915 -0.372336
H194  H     H_    0.269560 0.566025 0.559880 0.238320
H195  H     H_    0.214831 0.616665 0.557780 0.219703
C254  C     C_3   0.293421 0.633962 0.610209 -0.888618
H196  H     H_    0.271925 0.664146 0.638030 0.268926
H197  H     H_    0.316094 0.652506 0.572046 0.263847
H198  H     H_    0.327508 0.613681 0.637107 0.291634
O147  O     O_3   0.206837 0.451949 0.683242 -0.665973
C255  C     C_3   0.202189 0.412424 0.639853 0.071836
H199  H     H_    0.209575 0.429011 0.594915 0.188866
H200  H     H_    0.157869 0.392767 0.640025 0.144507
C256  C     C_3   0.249877 0.371910 0.652056 -0.323215
H201  H     H_    0.294613 0.389911 0.651767 0.249441
H202  H     H_    0.242710 0.355353 0.696917 0.227833
C257  C     C_3   0.248076 0.328804 0.605727 -0.936076
H203  H     H_    0.204255 0.308984 0.606948 0.279614
H204  H     H_    0.283675 0.300486 0.615526 0.281100
H205  H     H_    0.255534 0.344268 0.560399 0.252289
O148  O     O_3   0.155400 0.460140 0.404699 -0.647062
C258  C     C_3   0.193130 0.420728 0.383381 0.093197
H206  H     H_    0.225243 0.436066 0.350211 0.179058
H207  H     H_    0.166683 0.389176 0.362403 0.134674
C259  C     C_3   0.228398 0.398915 0.435635 -0.357058
H208  H     H_    0.252789 0.430493 0.458452 0.241211
H209  H     H_    0.197071 0.381482 0.468077 0.221482
C260  C     C_3   0.273137 0.358484 0.414769 -0.911979
H210  H     H_    0.249752 0.326442 0.391683 0.269018
H211  H     H_    0.297482 0.342988 0.453817 0.264164
H212  H     H_    0.306111 0.375708 0.383914 0.278312
O149  O     O_3   0.205709 0.038819 0.824562 -0.666751
C261  C     C_3   0.208243 0.078958 0.867001 0.064296
H213  H     H_    0.197156 0.064357 0.912199 0.184143
H214  H     H_    0.176788 0.110479 0.855376 0.141154
C262  C     C_3   0.271771 0.100300 0.867858 -0.310183
H215  H     H_    0.302944 0.070153 0.883661 0.236594
H216  H     H_    0.284977 0.111154 0.821875 0.247461
C263  C     C_3   0.277081 0.147282 0.908380 -0.936169
H217  H     H_    0.247586 0.178477 0.892240 0.273937
H218  H     H_    0.323875 0.161241 0.908260 0.277488
H219  H     H_    0.264631 0.137375 0.954711 0.256238
O150  O     O_3   0.166953 0.034271 0.106119 -0.645241
C264  C     C_3   0.208976 0.069717 0.128770 0.092883
H220  H     H_    0.240466 0.050382 0.159656 0.176500
H221  H     H_    0.186386 0.101904 0.152815 0.128572
C265  C     C_3   0.244389 0.091859 0.076889 -0.364229
H222  H     H_    0.264747 0.060154 0.050519 0.238611
H223  H     H_    0.213559 0.113383 0.047393 0.220335
C266  C     C_3   0.293675 0.127708 0.098813 -0.906277
H224  H     H_    0.274501 0.159631 0.125699 0.270615
H225  H     H_    0.317540 0.144058 0.060010 0.264352
H226  H     H_    0.326311 0.106310 0.126336 0.289447
O151  O     O_3   0.205339 0.952183 0.174501 -0.667283
C267  C     C_3   0.199842 0.912162 0.131825 0.076921
H227  H     H_    0.206727 0.928265 0.086570 0.188834
H228  H     H_    0.155422 0.892699 0.132787 0.142634
C268  C     C_3   0.247541 0.871569 0.143968 -0.328193
H229  H     H_    0.292339 0.889499 0.143809 0.248037
H230  H     H_    0.240394 0.854859 0.188740 0.227524
C269  C     C_3   0.245763 0.828492 0.097612 -0.935828
H231  H     H_    0.201713 0.809021 0.098364 0.278557
H232  H     H_    0.280944 0.799892 0.107836 0.279531
H233  H     H_    0.253941 0.843891 0.052372 0.252831
O152  O     O_3   0.163358 0.961546 0.896995 -0.646597
C270  C     C_3   0.199448 0.921299 0.874957 0.089280
H234  H     H_    0.230786 0.935867 0.840610 0.176270
H235  H     H_    0.171723 0.889974 0.855210 0.133603
C271  C     C_3   0.235777 0.899376 0.926425 -0.357860
H236  H     H_    0.262848 0.930454 0.947013 0.240834
H237  H     H_    0.204942 0.884125 0.960772 0.220364
C272  C     C_3   0.277270 0.856562 0.905300 -0.899688
H238  H     H_    0.251200 0.825012 0.884300 0.267018
H239  H     H_    0.302187 0.841021 0.943973 0.263906
H240  H     H_    0.309948 0.871532 0.872616 0.280990

loop_
_geom_bond_atom_site_label_1
_geom_bond_atom_site_label_2
_geom_bond_distance
_ccdc_geom_bond_type
Zn29  O101  1.950727 S    
C246  H178  1.112258 S    
Zn4   O4    1.928381 S    
C32   C154  1.419470 S    
C257  H203  1.110837 S    
C115  C131  1.412116 A    
O98   C10   1.278000 A    
O40   C32   1.273364 A    
C196  H82   1.110931 S    
C155  C156  1.196562 T    
C263  H219  1.108804 S    
O48   C34   1.277599 A    
C258  C259  1.526515 S    
C130  O106  1.386630 S    
C262  C263  1.524805 S    
C259  C260  1.526416 S    
C210  O122  1.221414 D    
C172  H26   1.108664 S    
C272  H238  1.111170 S    
C66   C111  1.422104 A    
C235  C236  1.526040 S    
C247  C248  1.526238 S    
C24   C146  1.419455 S    
Zn23  O95   1.950258 S    
C190  H69   1.109930 S    
C81   O137  1.383667 S    
C188  H65   1.117965 S    
C256  H202  1.109996 S    
C192  H74   1.110920 S    
Zn28  O8    1.940430 S    
C76   C220  1.487602 S    
O15   C7    1.275870 A    
C137  C140  1.388638 A    
O146  C252  1.411903 S    
O16   C8    1.271833 A    
C36   C63   1.419946 S    
C239  H162  1.110585 S    
C138  C139  1.394279 A    
C134  O110  1.386436 S    
O60   C44   1.271111 A    
C193  H77   1.111186 S    
Zn13  O19   1.945949 S    
O63   C41   1.277988 A    
C163  H7    1.111185 S    
Zn14  O20   1.951237 S    
O50   C38   1.277956 A    
C227  H133  1.110829 S    
C236  H155  1.110375 S    
C73   C104  1.422940 A    
O64   C42   1.271098 A    
C169  H19   1.110739 S    
C104  C121  1.417142 A    
C19   C149  1.419548 S    
C69   C108  1.423127 A    
Zn11  O83   1.909062 S    
C83   O139  1.382316 S    
C76   C101  1.422001 A    
Zn26  O98   1.945442 S    
C255  C256  1.529022 S    
C21   C147  1.419415 S    
Zn2   O2    1.929246 S    
C22   C148  1.419351 S    
Zn5   O11   1.945949 S    
C100  C125  1.417270 A    
C250  H188  1.112148 S    
Zn6   O12   1.951237 S    
C193  H76   1.110636 S    
C80   C97   1.422473 A    
Zn7   O1    1.940250 S    
Zn15  O65   1.911164 S    
C251  H190  1.110623 S    
C251  H189  1.110966 S    
C176  H37   1.116741 S    
C176  H36   1.111442 S    
C270  C271  1.526610 S    
Zn29  O37   1.914237 S    
O36   C28   1.273299 A    
C260  H212  1.110721 S    
C92   O148  1.382906 S    
Zn31  O55   1.911012 S    
O108  C170  1.419624 S    
C206  H106  1.111377 S    
Zn7   O79   1.909062 S    
C167  C168  1.531824 S    
Zn17  O89   1.950727 S    
C194  C195  1.530940 S    
C72   C105  1.422489 A    
Zn22  O46   1.912293 S    
C187  H62   1.110036 S    
O21   C13   1.276679 A    
O144  C246  1.411877 S    
Zn26  O6    1.938241 S    
C238  C239  1.524806 S    
C257  H205  1.109595 S    
C223  O135  1.221185 D    
C220  H124  1.085106 S    
C208  H110  1.108680 S    
C177  C178  1.528832 S    
Zn24  O2    1.940430 S    
Zn31  O5    1.928562 S    
Zn12  O8    1.928381 S    
C185  H58   1.116881 S    
C202  H97   1.108296 S    
C183  H53   1.110568 S    
Zn4   O76   1.915078 S    
C247  H181  1.111735 S    
C266  H224  1.111053 S    
O45   C35   1.271158 A    
C198  C199  1.525675 S    
C222  H126  1.085244 S    
C169  H21   1.110508 S    
O46   C36   1.278210 A    
C266  H226  1.109921 S    
O101  C13   1.263679 A    
Zn11  O69   1.911164 S    
C105  C120  1.426620 A    
O95   C7    1.262547 A    
C243  H171  1.112513 S    
C264  C265  1.526818 S    
Zn14  O68   1.910560 S    
O96   C8    1.275400 A    
C1    C119  1.464766 S    
Zn18  O90   1.945442 S    
C189  H67   1.110721 S    
C109  C116  1.431424 A    
C191  H72   1.115958 S    
C99   C126  1.434518 A    
C212  O124  1.221532 D    
C228  H137  1.115617 S    
C186  H59   1.109802 S    
C5    C115  1.466709 S    
C196  H84   1.111092 S    
C261  H214  1.115357 S    
C254  H197  1.110364 S    
C185  C186  1.532078 S    
C161  H1    1.111026 S    
C258  H206  1.112679 S    
C207  C208  1.527549 S    
O87   C31   1.273317 A    
C172  H28   1.109183 S    
C77   C93   1.410138 A    
C199  H89   1.110749 S    
O88   C32   1.275606 A    
C78   C99   1.425548 A    
C162  C163  1.525564 S    
C53   C61   1.196825 T    
Zn21  O29   1.914237 S    
C235  H152  1.111292 S    
C96   O152  1.382876 S    
O80   C24   1.275672 A    
O71   C45   1.277861 A    
C173  C174  1.535329 S    
C242  H170  1.109916 S    
C182  H50   1.111373 S    
O23   C15   1.272882 A    
C224  H128  1.085044 S    
Zn21  O3    1.929421 S    
C249  C250  1.529926 S    
Zn22  O4    1.938241 S    
Zn10  O6    1.929246 S    
O142  C240  1.411786 S    
Zn2   O64   1.910560 S    
O148  C258  1.412000 S    
C209  H113  1.083033 S    
C144  O120  1.386455 S    
C234  H150  1.111484 S    
Zn19  O3    1.928562 S    
C252  H192  1.111496 S    
C231  H143  1.113822 S    
C171  C172  1.527157 S    
Zn16  O66   1.910998 S    
C67   C110  1.422912 A    
C269  H232  1.110458 S    
C227  H135  1.109559 S    
Zn6   O60   1.910560 S    
C265  H223  1.111332 S    
C175  H33   1.110749 S    
O86   C30   1.274982 A    
C180  C181  1.526418 S    
Zn15  O17   1.945753 S    
O83   C27   1.273369 A    
C197  H86   1.115943 S    
C238  H160  1.112126 S    
O81   C25   1.273237 A    
C218  O130  1.221530 D    
O138  C228  1.411949 S    
C245  H175  1.110929 S    
C246  C247  1.526622 S    
O33   C25   1.274926 A    
C37   C58   1.418026 S    
C204  H102  1.110458 S    
O99   C11   1.265678 A    
C46   C54   1.418151 S    
C168  H18   1.110287 S    
C183  H52   1.109878 S    
C113  C129  1.412457 A    
C251  H191  1.108291 S    
O75   C19   1.273407 A    
C167  H16   1.116953 S    
C269  H233  1.109717 S    
C266  H225  1.110303 S    
O73   C17   1.273199 A    
C71   C87   1.406143 A    
C248  H182  1.111163 S    
C122  C138  1.414487 A    
C190  H68   1.108687 S    
C194  H78   1.111558 S    
O31   C23   1.275648 A    
O77   C21   1.273231 A    
C89   C92   1.404902 A    
C181  H47   1.110721 S    
C67   C211  1.489684 S    
Zn19  O43   1.911012 S    
C268  H230  1.109702 S    
O141  C237  1.410690 S    
Zn28  O52   1.911180 S    
C69   C85   1.410228 A    
Zn19  O91   1.950258 S    
C213  H117  1.084619 S    
C265  H222  1.111261 S    
Zn28  O36   1.909059 S    
C229  H139  1.111921 S    
C93   C96   1.404098 A    
C241  C242  1.526365 S    
Zn1   O15   1.945949 S    
C233  H147  1.110973 S    
O103  C15   1.266657 A    
Zn22  O30   1.909773 S    
C68   C212  1.487282 S    
C254  H196  1.110990 S    
Zn32  O56   1.911180 S    
O91   C3    1.265748 A    
O56   C38   1.277748 A    
C218  H122  1.085208 S    
O94   C6    1.280839 A    
O89   C1    1.264141 A    
O44   C36   1.277446 A    
O112  C182  1.419408 S    
Zn15  O5    1.940250 S    
O93   C5    1.267811 A    
Zn30  O102  1.945442 S    
C17   C151  1.419412 S    
C186  C187  1.526605 S    
C217  O129  1.221136 D    
C18   C152  1.419353 S    
C11   C125  1.468246 S    
O26   C18   1.273242 A    
O67   C47   1.277728 A    
C68   C109  1.425304 A    
C199  H91   1.111193 S    
C243  C244  1.530361 S    
C163  H6    1.110635 S    
C80   C224  1.488337 S    
O20   C12   1.269399 A    
O39   C31   1.275694 A    
C226  H131  1.107645 S    
C230  H142  1.110810 S    
Zn17  O41   1.910576 S    
C106  C119  1.412294 A    
C74   C90   1.412621 A    
Zn26  O50   1.912293 S    
C253  H194  1.111258 S    
C255  H200  1.118342 S    
C110  C115  1.417304 A    
C164  H9    1.116986 S    
C216  O128  1.221449 D    
C205  H103  1.110721 S    
C137  O113  1.385463 S    
Zn26  O34   1.909773 S    
C231  C232  1.529961 S    
C232  C233  1.524619 S    
C233  H149  1.108299 S    
Zn23  O1    1.928562 S    
C252  C253  1.526483 S    
C117  C133  1.415732 A    
C171  H24   1.110159 S    
C241  H166  1.111281 S    
C56   C64   1.195756 T    
C259  H209  1.111859 S    
Zn19  O27   1.915071 S    
C93   O149  1.381884 S    
Zn2   O74   1.914245 S    
C175  H35   1.111191 S    
C242  H169  1.110303 S    
C201  H94   1.111063 S    
Zn28  O100  1.945246 S    
O49   C37   1.271123 A    
Zn13  O67   1.912278 S    
C89   O145  1.382258 S    
C157  C158  1.196634 T    
C42   C50   1.418125 S    
C170  H23   1.117971 S    
C77   C221  1.489269 S    
O139  C231  1.410315 S    
Zn3   O3    1.940250 S    
Zn1   O63   1.912278 S    
C101  C124  1.428475 A    
C177  H39   1.110543 S    
C153  C154  1.196637 T    
C238  H159  1.111749 S    
C102  C123  1.413471 A    
Zn3   O61   1.911164 S    
Zn8   O2    1.928381 S    
C10   C128  1.478185 S    
Zn5   O59   1.912278 S    
C212  H116  1.085213 S    
C248  H184  1.110286 S    
C141  O117  1.385187 S    
C195  H80   1.111253 S    
C109  C112  1.404061 A    
O24   C16   1.267294 A    
C91   O147  1.383654 S    
C223  H127  1.082203 S    
C179  H44   1.116743 S    
C178  H40   1.110942 S    
C88   O144  1.382870 S    
C15   C121  1.466484 S    
C186  H60   1.110311 S    
C182  C183  1.535612 S    
C14   C124  1.475150 S    
C237  H157  1.114136 S    
C163  H5    1.110758 S    
C166  H14   1.111078 S    
C257  H204  1.110254 S    
O70   C48   1.271234 A    
C133  C136  1.395293 A    
O97   C9    1.264101 A    
C50   C58   1.195749 T    
C265  C266  1.526364 S    
C84   O140  1.382428 S    
C203  H99   1.110644 S    
C258  H207  1.115481 S    
O69   C47   1.277590 A    
C244  C245  1.525473 S    
C219  H123  1.083061 S    
C198  H87   1.108318 S    
C209  O121  1.221170 D    
C165  C166  1.528504 S    
C105  C108  1.403862 A    
Zn9   O81   1.909776 S    
C74   C103  1.425211 A    
C66   C82   1.410279 A    
C188  H64   1.111265 S    
C128  C144  1.413366 A    
C70   C86   1.414029 A    
Zn5   O3    1.938061 S    
Zn9   O71   1.912278 S    
Zn15  O87   1.909062 S    
C178  H42   1.111088 S    
Zn7   O9    1.945753 S    
C40   C59   1.419963 S    
C170  C171  1.535475 S    
O37   C29   1.274887 A    
C272  H240  1.110223 S    
Zn27  O35   1.915071 S    
C225  H129  1.112588 S    
C65   C209  1.488865 S    
O119  C203  1.417860 S    
C124  C140  1.418335 A    
O35   C27   1.275657 A    
C166  H12   1.110926 S    
C125  C141  1.415706 A    
C195  C196  1.528523 S    
C241  H167  1.111318 S    
C236  H154  1.110997 S    
C226  C227  1.525628 S    
C133  O109  1.385186 S    
C147  C148  1.196565 T    
Zn24  O96   1.945246 S    
C142  C143  1.388123 A    
C169  H20   1.110020 S    
C200  H93   1.116741 S    
Zn20  O28   1.909059 S    
C34   C61   1.419970 S    
Zn12  O84   1.915078 S    
C237  C238  1.529439 S    
C162  H4    1.110919 S    
O72   C46   1.271103 A    
O58   C42   1.271221 A    
C250  H187  1.111885 S    
C119  C135  1.408886 A    
O10   C2    1.268565 A    
C215  O127  1.221184 D    
C211  H115  1.084472 S    
C28   C158  1.419450 S    
C262  H215  1.111737 S    
O61   C43   1.277464 A    
C270  H235  1.115610 S    
O106  C164  1.419405 S    
C81   C84   1.404409 A    
Zn17  O1    1.929421 S    
C260  H211  1.110160 S    
O151  C267  1.416215 S    
C73   C89   1.410758 A    
C68   C84   1.412703 A    
C201  C202  1.528832 S    
C267  H227  1.112499 S    
C194  H79   1.116985 S    
Zn16  O18   1.950769 S    
C85   C88   1.404241 A    
O51   C39   1.271321 A    
Zn8   O80   1.915078 S    
C221  H125  1.084625 S    
Zn11  O7    1.940250 S    
C173  H30   1.115944 S    
O82   C26   1.274922 A    
C43   C51   1.419837 S    
C220  O132  1.221417 D    
C41   C49   1.419708 S    
O118  C200  1.419912 S    
O34   C26   1.273204 A    
O78   C22   1.274917 A    
O79   C23   1.273370 A    
C13   C123  1.465876 S    
C142  O118  1.386454 S    
C44   C52   1.418172 S    
C126  C142  1.420165 A    
O104  C16   1.281537 A    
C110  C111  1.404006 A    
C45   C53   1.419777 S    
C208  H112  1.108990 S    
C116  C132  1.414311 A    
C70   C107  1.425552 A    
O85   C29   1.273285 A    
C240  H165  1.116048 S    
C222  O134  1.221509 D    
C9    C127  1.464773 S    
C206  C207  1.535538 S    
O111  C179  1.417875 S    
C48   C56   1.418144 S    
C123  C139  1.412487 A    
C264  H221  1.116051 S    
C234  C235  1.526483 S    
O9    C1    1.275543 A    
Zn10  O82   1.914245 S    
O18   C10   1.268560 A    
Zn23  O31   1.915071 S    
C74   C218  1.487314 S    
C204  H101  1.109136 S    
Zn24  O32   1.909059 S    
C228  H136  1.112506 S    
C192  C193  1.525565 S    
O13   C5    1.273625 A    
C196  H83   1.108588 S    
C261  C262  1.529401 S    
C79   C98   1.418747 A    
C161  H2    1.115964 S    
C203  C204  1.532287 S    
C2    C120  1.478194 S    
C20   C150  1.419451 S    
C210  H114  1.085126 S    
C172  H27   1.109938 S    
C199  H90   1.110675 S    
O145  C249  1.410313 S    
C208  H111  1.109772 S    
O55   C37   1.271350 A    
C235  H153  1.111230 S    
C181  H48   1.110265 S    
C262  H216  1.112127 S    
C6    C116  1.478304 S    
Zn27  O7    1.928562 S    
C202  H96   1.110942 S    
C271  C272  1.526192 S    
C190  H70   1.109182 S    
O114  C188  1.419647 S    
O90   C2    1.277997 A    
O22   C14   1.270739 A    
C101  C104  1.403935 A    
C71   C106  1.418739 A    
C159  C160  1.196565 T    
Zn32  O104  1.945246 S    
O120  C206  1.419380 S    
C189  H66   1.110126 S    
C256  C257  1.525661 S    
C224  O136  1.221451 D    
Zn2   O16   1.951237 S    
O117  C197  1.417838 S    
O25   C17   1.274962 A    
Zn3   O13   1.945753 S    
C168  H17   1.109759 S    
C47   C55   1.419772 S    
C239  H161  1.110997 S    
C161  C162  1.535486 S    
C231  H144  1.115518 S    
O66   C46   1.271245 A    
O143  C243  1.416196 S    
O28   C20   1.273259 A    
C149  C150  1.196636 T    
O29   C21   1.274933 A    
C69   C213  1.489250 S    
C270  H234  1.112467 S    
O76   C20   1.275702 A    
Zn8   O10   1.950769 S    
C12   C126  1.476930 S    
C236  H156  1.109693 S    
C140  O116  1.386637 S    
O32   C24   1.273297 A    
C214  O126  1.221509 D    
C106  C107  1.404402 A    
C75   C102  1.419935 A    
O17   C9    1.275595 A    
C180  H46   1.110428 S    
C197  C198  1.535342 S    
C114  C130  1.418538 A    
Zn31  O103  1.950258 S    
C250  C251  1.524595 S    
C207  H109  1.110571 S    
C108  C117  1.417348 A    
C246  H179  1.115844 S    
C193  H75   1.110756 S    
C188  C189  1.535475 S    
C72   C88   1.410005 A    
O140  C234  1.411880 S    
O41   C33   1.271146 A    
C78   C94   1.414033 A    
C39   C60   1.417975 S    
C268  H229  1.108087 S    
C176  C177  1.530768 S    
C112  C113  1.413256 A    
C54   C62   1.195744 T    
C221  O133  1.221121 D    
O113  C185  1.418172 S    
C79   C223  1.489278 S    
C8    C114  1.475421 S    
C102  C103  1.404139 A    
C174  H32   1.110897 S    
C232  H146  1.112152 S    
C173  H29   1.111143 S    
O92   C4    1.279024 A    
C267  C268  1.530403 S    
C162  H3    1.108672 S    
C35   C64   1.418011 S    
C243  H172  1.118327 S    
C187  H61   1.110744 S    
C200  C201  1.530744 S    
Zn13  O85   1.909776 S    
O147  C255  1.416083 S    
C179  C180  1.532035 S    
C31   C153  1.419536 S    
C245  H177  1.109718 S    
C129  O105  1.384981 S    
C271  H236  1.110356 S    
O47   C33   1.271314 A    
C183  C184  1.527584 S    
Zn27  O51   1.911012 S    
C185  H57   1.110913 S    
C202  H98   1.111092 S    
Zn29  O53   1.910576 S    
C233  H148  1.110627 S    
C247  H180  1.110247 S    
Zn5   O77   1.909776 S    
C127  C143  1.408967 A    
Zn10  O72   1.910560 S    
C23   C145  1.419544 S    
C232  H145  1.111920 S    
C165  H11   1.110480 S    
O30   C22   1.273206 A    
C94   C95   1.405738 A    
O68   C48   1.271089 A    
C181  H49   1.110494 S    
C78   C222  1.486495 S    
O107  C167  1.418164 S    
C76   C92   1.410282 A    
C16   C122  1.478540 S    
C229  C230  1.526454 S    
C90   O146  1.382429 S    
C191  H71   1.111042 S    
C38   C57   1.419953 S    
C249  H185  1.113822 S    
C228  C229  1.526643 S    
C73   C217  1.489678 S    
C192  H73   1.108651 S    
C184  H55   1.109757 S    
C134  C135  1.388085 A    
O52   C40   1.277548 A    
Zn12  O22   1.950769 S    
Zn17  O25   1.914237 S    
O102  C14   1.274579 A    
C234  H151  1.116635 S    
C132  O108  1.385816 S    
C230  H141  1.110106 S    
Zn27  O99   1.950258 S    
O105  C161  1.417435 S    
C103  C122  1.431260 A    
C95   O151  1.384319 S    
C180  H45   1.109101 S    
C170  H22   1.111257 S    
Zn25  O97   1.950727 S    
C253  H195  1.111269 S    
C200  H92   1.111451 S    
Zn1   O1    1.938061 S    
C256  H201  1.107647 S    
C254  H198  1.109673 S    
Zn4   O14   1.950769 S    
O109  C173  1.417848 S    
C179  H43   1.110585 S    
C249  H186  1.115534 S    
C120  C136  1.413371 A    
C107  C118  1.434544 A    
C205  H104  1.110269 S    
C239  H163  1.108778 S    
C79   C95   1.406153 A    
C3    C117  1.468295 S    
C55   C63   1.196834 T    
C131  O107  1.385435 S    
O38   C30   1.273143 A    
C171  H25   1.110729 S    
Zn22  O94   1.945442 S    
C269  H231  1.110927 S    
C87   O143  1.384304 S    
Zn7   O57   1.911164 S    
Zn20  O44   1.911180 S    
C201  H95   1.110546 S    
C217  H121  1.084478 S    
C135  O111  1.385054 S    
C197  H85   1.111142 S    
C82   O138  1.382979 S    
O53   C39   1.271123 A    
O152  C270  1.411895 S    
Zn24  O48   1.911180 S    
C151  C152  1.196563 T    
Zn6   O4    1.929246 S    
C272  H239  1.110349 S    
Zn14  O86   1.914245 S    
C205  H105  1.110524 S    
O59   C43   1.277834 A    
C204  C205  1.526417 S    
C139  O115  1.384985 S    
O115  C191  1.417439 S    
C189  C190  1.527222 S    
O11   C3    1.274709 A    
Zn9   O23   1.945949 S    
O57   C41   1.277336 A    
Zn30  O54   1.912293 S    
C77   C100  1.423076 A    
O74   C18   1.274888 A    
O137  C225  1.416103 S    
Zn30  O38   1.909773 S    
Zn25  O49   1.910576 S    
C7    C113  1.465585 S    
C29   C155  1.419423 S    
Zn25  O5    1.929421 S    
C240  C241  1.526803 S    
C30   C156  1.419337 S    
Zn18  O42   1.912293 S    
C65   C112  1.419840 A    
C75   C91   1.406527 A    
O110  C176  1.419917 S    
Zn20  O92   1.945246 S    
C195  H81   1.110492 S    
Zn6   O78   1.914245 S    
C25   C159  1.419413 S    
C261  H213  1.114138 S    
C187  H63   1.110530 S    
C26   C160  1.419352 S    
C175  H34   1.110673 S    
C97   C100  1.403866 A    
Zn1   O73   1.909776 S    
C268  C269  1.525503 S    
C182  H51   1.117849 S    
C245  H176  1.110459 S    
C237  H158  1.115354 S    
C166  H13   1.108611 S    
C252  H193  1.116627 S    
Zn13  O7    1.938061 S    
C71   C215  1.489290 S    
O100  C12   1.279005 A    
Zn25  O33   1.914237 S    
C229  H138  1.110417 S    
C203  H100  1.116664 S    
C94   O150  1.382694 S    
C244  H174  1.109716 S    
O27   C19   1.275621 A    
Zn20  O4    1.940430 S    
Zn3   O75   1.909062 S    
C145  C146  1.196636 T    
C70   C214  1.486493 S    
C118  C134  1.420155 A    
C174  C175  1.525673 S    
Zn12  O70   1.910998 S    
C271  H237  1.111719 S    
C184  H56   1.108971 S    
C165  H10   1.111257 S    
C191  C192  1.535487 S    
O19   C11   1.274746 A    
C215  H119  1.082223 S    
Zn29  O7    1.929421 S    
Zn9   O5    1.938061 S    
Zn30  O8    1.938241 S    
C178  H41   1.108298 S    
O62   C44   1.271239 A    
C138  O114  1.385860 S    
Zn18  O2    1.938241 S    
C225  H130  1.118345 S    
C97   C128  1.426613 A    
Zn4   O62   1.910998 S    
C227  H134  1.110260 S    
C98   C127  1.412303 A    
C66   C210  1.487556 S    
C90   C91   1.404373 A    
Zn32  O6    1.940430 S    
C226  H132  1.109977 S    
O43   C35   1.271300 A    
C141  C144  1.395266 A    
Zn8   O58   1.910998 S    
C72   C216  1.488259 S    
C230  H140  1.111281 S    
Zn10  O24   1.951237 S    
C255  H199  1.112592 S    
O116  C194  1.419388 S    
C164  C165  1.531018 S    
C75   C219  1.488843 S    
C216  H120  1.085079 S    
Zn16  O88   1.915078 S    
C51   C59   1.196822 T    
C85   O141  1.381928 S    
O84   C28   1.275666 A    
C49   C57   1.196834 T    
Zn18  O26   1.909773 S    
C225  C226  1.529046 S    
Zn11  O21   1.945753 S    
C211  O123  1.221135 D    
O65   C45   1.277442 A    
C259  H208  1.110326 S    
C198  H88   1.110897 S    
C260  H210  1.111215 S    
C121  C137  1.412276 A    
C207  H108  1.109902 S    
C67   C83   1.410805 A    
C168  C169  1.526602 S    
C214  H118  1.085246 S    
C167  H15   1.110890 S    
C267  H228  1.118322 S    
C174  H31   1.108306 S    
C219  O131  1.221170 D    
C65   C81   1.406451 A    
C242  H168  1.111053 S    
C213  O125  1.221122 D    
C143  O119  1.385104 S    
O149  C261  1.410699 S    
C82   C83   1.405093 A    
C184  H54   1.108675 S    
Zn31  O39   1.915071 S    
C177  H38   1.111071 S    
O14   C6    1.266105 A    
O12   C4    1.269392 A    
C164  H8    1.111541 S    
O54   C40   1.278057 A    
C253  C254  1.526053 S    
C86   C87   1.405736 A    
C129  C132  1.394211 A    
C86   O142  1.382692 S    
O42   C34   1.278053 A    
C130  C131  1.388657 A    
C27   C157  1.419549 S    
Zn14  O8    1.929246 S    
C244  H173  1.108087 S    
C263  H217  1.110997 S    
C4    C118  1.476950 S    
O150  C264  1.411802 S    
C52   C60   1.195751 T    
C248  H183  1.110311 S    
C240  H164  1.112029 S    
C98   C99   1.404361 A    
Zn21  O45   1.910576 S    
C206  H107  1.117857 S    
C80   C96   1.410178 A    
Zn23  O47   1.911012 S    
C264  H220  1.112044 S    
Zn21  O93   1.950727 S    
C136  O112  1.386494 S    
C263  H218  1.110584 S    
C111  C114  1.428505 A    
Zn16  O6    1.928381 S    
C33   C62   1.417989 S    
Zn32  O40   1.909059 S    
