data_mof_unit_59305.cif
_audit_creation_date              2013-03-05T15:52:31-0500
_audit_creation_method            fapswitch 2.2
_symmetry_space_group_name_H-M    P1
_symmetry_Int_Tables_number       1
_space_group_crystal_system       triclinic
_cell_length_a                    27.800709
_cell_length_b                    10.885821
_cell_length_c                    9.600459
_cell_angle_alpha                 91.022824
_cell_angle_beta                  90.770204
_cell_angle_gamma                 93.897709
_cell_volume                      2897.92598379

loop_
_atom_site_label
_atom_site_type_symbol
_atom_site_description
_atom_site_fract_x
_atom_site_fract_y
_atom_site_fract_z
_atom_type_partial_charge
O1    O     O_R   0.500000 0.319640 0.618810 -0.582708
O2    O     O_R   0.500000 0.319660 0.381240 -0.538585
C1    C     C_R   0.503518 0.263612 0.499491 0.848012
O3    O     O_R   0.430260 0.500010 0.618770 -0.590441
O4    O     O_R   0.430270 0.500030 0.381200 -0.508488
C2    C     C_R   0.407627 0.500761 0.499366 0.852585
Cu1   Cu    Cu3+1 0.500000 0.499990 0.640660 0.941068
Cu2   Cu    Cu3+1 0.500000 0.500010 0.359340 0.997865
O5    O     O_R   0.500000 0.680340 0.618760 -0.607085
O6    O     O_R   0.500000 0.680360 0.381190 -0.626467
O7    O     O_R   0.569730 0.499970 0.618800 -0.608638
O8    O     O_R   0.569740 0.499990 0.381230 -0.603554
C3    C     C_R   0.496852 0.737510 0.501479 0.761016
C4    C     C_R   0.592485 0.500949 0.500887 0.758136
C5    C     C_R   0.175265 0.397218 0.494282 0.543689
O9    O     O_2   0.197111 0.290259 0.488655 -0.518480
N1    N     N_R   0.202430 0.506895 0.497450 -0.468101
C6    C     C_R   0.181283 0.616771 0.501078 0.540326
C7    C     C_R   0.280383 0.552659 0.384783 -0.083598
C8    C     C_R   0.330521 0.551343 0.385236 -0.128814
C9    C     C_R   0.328408 0.458230 0.612925 -0.189143
C10   C     C_R   0.278310 0.459779 0.612443 -0.084860
C11   C     C_R   0.254062 0.506495 0.498174 0.329109
C12   C     C_R   0.102136 0.507261 0.499536 -0.043524
C13   C     C_R   0.124730 0.395364 0.495986 -0.022818
C14   C     C_R   0.096557 0.284188 0.493296 -0.141181
C15   C     C_R   0.130830 0.618988 0.501520 -0.022640
C16   C     C_R   0.354857 0.502992 0.498693 -0.050400
H1    H     H_    0.346409 0.420972 0.701946 0.177286
H2    H     H_    0.258258 0.424653 0.700855 0.155890
H3    H     H_    0.113024 0.196827 0.488447 0.186931
C17   C     C_R   0.645501 0.503097 0.502934 -0.032422
C18   C     C_R   0.971673 0.394167 0.511886 0.042998
C19   C     C_R   0.977619 0.621033 0.496109 0.044196
C20   C     C_R   0.949390 0.507639 0.504824 0.067726
C21   C     C_R   0.941907 0.284675 0.527967 -0.203569
C22   C     C_R   0.892029 0.286126 0.531364 -0.143567
C23   C     C_R   0.869735 0.396590 0.519356 -0.021574
C24   C     C_R   0.898240 0.507686 0.506354 -0.044096
C25   C     C_R   0.875450 0.618792 0.494679 -0.019718
C26   C     C_R   0.824889 0.616626 0.495264 0.533646
N2    N     N_R   0.798029 0.507571 0.507898 -0.469791
C27   C     C_R   0.819300 0.398636 0.520293 0.534665
C28   C     C_R   0.721086 0.493226 0.630782 -0.105036
C29   C     C_R   0.670874 0.491610 0.629230 -0.224246
C30   C     C_R   0.671295 0.517172 0.378586 -0.221701
C31   C     C_R   0.721498 0.519454 0.380614 -0.107395
C32   C     C_R   0.746486 0.507141 0.506543 0.363734
O10   O     O_2   0.791681 0.292594 0.532349 -0.534074
C33   C     C_R   0.022683 0.393746 0.503737 0.043932
C34   C     C_R   0.050986 0.507415 0.501226 0.068666
C35   C     C_R   0.028775 0.621218 0.500466 0.042451
C36   C     C_R   0.046615 0.283108 0.496854 -0.203110
H4    H     H_    0.651981 0.480785 0.726645 0.162487
H5    H     H_    0.740315 0.483746 0.728420 0.138313
H6    H     H_    0.870945 0.199623 0.543441 0.189206
H7    H     H_    0.955945 0.195773 0.540939 0.137469
H8    H     H_    0.027845 0.193313 0.491342 0.135612
O11   O     O_2   0.209006 0.723525 0.505571 -0.521006
C37   C     C_R   0.108709 0.730314 0.505390 -0.136666
H9    H     H_    0.350282 0.589720 0.297988 0.193458
H10   H     H_    0.261939 0.589491 0.296365 0.156747
H11   H     H_    0.129964 0.817556 0.508887 0.192402
C38   C     C_R   0.953439 0.730646 0.482270 -0.203711
C39   C     C_R   0.903443 0.729272 0.481758 -0.146801
O12   O     O_2   0.802703 0.722575 0.483861 -0.535899
C40   C     C_R   0.058788 0.731698 0.505058 -0.202793
H12   H     H_    0.971996 0.819585 0.468785 0.136074
H13   H     H_    0.652769 0.526702 0.279819 0.164840
H14   H     H_    0.886784 0.815820 0.470923 0.185089
H15   H     H_    0.741039 0.530109 0.284283 0.138282
H16   H     H_    0.044976 0.821609 0.511223 0.137243
H17   H     H_    0.479714 0.111455 0.288408 0.224086
C41   C     C_R   0.543966 0.129836 0.735282 -0.140615
H18   H     H_    0.562107 0.220296 0.725684 0.152492
C42   C     C_R   0.545717 0.074847 0.864770 -0.131366
H19   H     H_    0.563316 0.123899 0.952545 0.137014
C43   C     C_R   0.522658 0.959294 0.882412 -0.106581
H20   H     H_    0.520985 0.919638 0.984949 0.143427
C44   C     C_R   0.502415 0.893521 0.767591 -0.134824
H21   H     H_    0.482425 0.808271 0.790544 0.180176
C45   C     C_R   0.505200 0.942350 0.631361 0.091560
C46   C     C_R   0.519222 0.068625 0.621183 0.094774
C47   C     C_R   0.506653 0.130381 0.499299 -0.171922
C48   C     C_R   0.489234 0.063753 0.381912 -0.155167
C49   C     C_R   0.483556 0.936278 0.381617 -0.025151
C50   C     C_R   0.493626 0.872570 0.505861 -0.179081
C51   C     C_R   0.566576 0.661112 0.149464 -0.150399
H22   H     H_    0.568454 0.672354 0.259550 0.199157
C52   C     C_R   0.599688 0.737850 0.079533 -0.228238
H23   H     H_    0.624980 0.799940 0.137537 0.161335
C53   C     C_R   0.599786 0.736911 0.935867 -0.200336
H24   H     H_    0.625040 0.798499 0.881545 0.163924
C54   C     C_R   0.566531 0.659876 0.861261 -0.136502
H25   H     H_    0.567861 0.670224 0.751536 0.201704
C55   C     C_R   0.532941 0.578141 0.928105 0.171312
C56   C     C_R   0.533042 0.578150 0.077659 0.125659
N3    N     N_R   0.500460 0.501210 0.147910 -0.267162
C57   C     C_R   0.467488 0.425969 0.067320 0.464061
H26   H     H_    0.442806 0.369695 0.858522 0.206545
C58   C     C_R   0.468730 0.426532 0.920354 -0.090455
N4    N     N_R   0.500480 0.501290 0.852040 -0.245027
C59   C     C_2   0.463534 0.876357 0.251059 0.366122
H27   H     H_    0.480994 0.802988 0.199030 0.096312
O13   O     O_2   0.427605 0.913639 0.195888 -0.499655
S1    S     S_3+6 0.415836 0.337034 0.128459 0.013813
O14   O     O_2   0.419953 0.284004 0.270352 -0.261493
O15   O     O_2   0.374071 0.417558 0.125736 -0.323293
O16   O     O_3   0.403152 0.218212 0.016296 -0.547553
H28   H     H_    0.370562 0.184110 0.041653 0.396903

loop_
_geom_bond_atom_site_label_1
_geom_bond_atom_site_label_2
_geom_bond_distance
_ccdc_geom_bond_type
C58   N4    1.344799 A    
C55   N4    1.380359 A    
C26   N2    1.367007 A    
C20   C24   1.422311 A    
C7    C8    1.394852 A    
C12   C15   1.408114 A    
C41   C46   1.417203 A    
C56   N3    1.382132 A    
Cu1   Cu2   2.700805 S    
C48   C49   1.385872 A    
Cu1   O7    1.952687 S    
N1    C11   1.435627 S    
C41   C42   1.391046 A    
C37   H11   1.083630 S    
C38   H12   1.076393 S    
C21   C22   1.388610 A    
C42   C43   1.386653 A    
C40   H16   1.076356 S    
C15   C37   1.395897 A    
C23   C24   1.408514 A    
O7    C4    1.304049 A    
C43   C44   1.394594 A    
C5    C13   1.404012 A    
S1    O14   1.494954 D    
C7    H10   1.082882 S    
C45   C50   1.433835 A    
C18   C21   1.416044 A    
Cu1   O5    1.978212 S    
C19   C20   1.421393 A    
C17   C29   1.406328 A    
C8    H9    1.082405 S    
Cu2   N3    2.030307 S    
C53   H24   1.082921 S    
C30   H13   1.082946 S    
O5    C3    1.300961 A    
C22   H6    1.083710 S    
C47   C48   1.392487 A    
C2    C16   1.468812 S    
C46   C47   1.411497 A    
C37   C40   1.388931 A    
Cu1   N4    2.029001 S    
C51   C56   1.416337 A    
C12   C34   1.422451 A    
C14   H3    1.083665 S    
C9    C10   1.393960 A    
O3    Cu1   1.947385 S    
C49   C59   1.486293 S    
C19   C38   1.416192 A    
C33   C34   1.421268 A    
C33   C36   1.415932 A    
C41   H18   1.081438 S    
C34   C35   1.421354 A    
C12   C13   1.408032 A    
O3    C2    1.300658 A    
C21   H7    1.076453 S    
C4    C17   1.472345 S    
C24   C25   1.408525 A    
C49   C50   1.424444 A    
C27   O10   1.349864 S    
C8    C16   1.403674 A    
C18   C33   1.421628 A    
C9    H1    1.083424 S    
O1    C1    1.296130 A    
C7    C11   1.401439 A    
C22   C23   1.395630 A    
C52   C53   1.379161 A    
C31   C32   1.399305 A    
Cu2   O8    1.947380 S    
C31   H15   1.082887 S    
C55   C56   1.435754 A    
C3    C50   1.478934 S    
C53   C54   1.387922 A    
N1    C6    1.368269 A    
C59   O13   1.221274 D    
N2    C32   1.432486 S    
C42   H19   1.082556 S    
C54   C55   1.413871 A    
H17   C48   1.083726 S    
C35   C40   1.416053 A    
C44   C45   1.421617 A    
C25   C26   1.404323 A    
C57   C58   1.411933 A    
C9    C16   1.404580 A    
C51   C52   1.388531 A    
C29   H4    1.083120 S    
C45   C46   1.408560 A    
C25   C39   1.395746 A    
N2    C27   1.366969 A    
C14   C36   1.388561 A    
C1    C47   1.458811 S    
C28   C29   1.394725 A    
C5    N1    1.368290 A    
C57   S1    1.788224 S    
C30   C31   1.394070 A    
C10   H2    1.082936 S    
O1    Cu1   1.970706 S    
C17   C30   1.406220 A    
O2    Cu2   1.978212 S    
C6    C15   1.404535 A    
O8    C4    1.303358 A    
C44   H21   1.076614 S    
O6    C3    1.308745 A    
O4    Cu2   1.952690 S    
C36   H8    1.076406 S    
C26   O12   1.349810 S    
C19   C35   1.422095 A    
C38   C39   1.388952 A    
O2    C1    1.304033 A    
C13   C14   1.395798 A    
C23   C27   1.403943 A    
O16   H28   0.990636 S    
C43   H20   1.082244 S    
C28   H5    1.082855 S    
C52   H23   1.082934 S    
O4    C2    1.304934 A    
S1    O15   1.501843 D    
H26   C58   1.081370 S    
C18   C20   1.421292 A    
C54   H25   1.062284 S    
C28   C32   1.399576 A    
C6    O11   1.349782 S    
C51   H22   1.061935 S    
Cu2   O6    1.970706 S    
N3    C57   1.402125 A    
C59   H27   1.080745 S    
C10   C11   1.401136 A    
C39   H14   1.083730 S    
C5    O9    1.349893 S    
S1    O16   1.683756 S    
