data_mof_unit_15179.cif
_audit_creation_date              2012-10-26T21:24:49-0400
_audit_creation_method            fapswitch 2.2
_symmetry_space_group_name_H-M    P1
_symmetry_Int_Tables_number       1
_space_group_crystal_system       triclinic
_cell_length_a                    9.566503
_cell_length_b                    10.780477
_cell_length_c                    15.407383
_cell_angle_alpha                 89.648174
_cell_angle_beta                  74.19131
_cell_angle_gamma                 89.626426
_cell_volume                      1528.83704784

loop_
_atom_site_label
_atom_site_type_symbol
_atom_type_description
_atom_site_fract_x
_atom_site_fract_y
_atom_site_fract_z
_atom_type_partial_charge
C1    C     C_R   0.002075 0.262678 0.496622 0.573994
C2    C     C_R   0.218549 0.508473 0.036832 -0.077478
C3    C     C_R   0.321357 0.521420 0.086608 0.004765
C4    C     C_R   0.918364 0.503803 0.672494 0.613267
C5    C     C_R   0.072048 0.490152 0.081392 -0.059095
C6    C     C_R   0.024990 0.482855 0.175205 0.206437
C7    C     C_R   0.277019 0.496998 0.180705 0.192459
C8    C     C_R   0.096426 0.063523 0.531060 0.056181
C9    C     C_R   0.010055 0.129625 0.486980 0.015932
C10   C     C_R   0.939531 0.064196 0.431251 0.211822
C11   C     C_R   0.937489 0.934440 0.435133 -0.053036
C12   C     C_R   0.666420 0.547700 0.903937 -0.048535
C13   C     C_R   0.005982 0.870667 0.491953 -0.027559
C14   C     C_R   0.094513 0.936039 0.533529 -0.039173
C15   C     C_3   0.105651 0.928906 0.628411 -0.190767
C16   C     C_R   0.000430 0.737503 0.498883 0.557925
C17   C     C_3   0.107389 0.070560 0.626205 0.441746
C18   C     C_R   0.604895 0.545317 0.427725 0.120074
C19   C     C_R   0.545217 0.443515 0.567024 0.022953
C20   C     C_R   0.396481 0.443725 0.567121 0.011284
C21   C     C_R   0.458010 0.544980 0.427563 0.150925
C22   C     C_3   0.469135 0.671619 0.384811 0.137387
C23   C     C_R   0.757254 0.607924 0.949333 0.010954
C24   C     C_3   0.627954 0.672760 0.386422 0.120140
C25   C     C_R   0.082108 0.495206 0.327098 0.549526
C26   C     C_R   0.873315 0.525591 0.770841 0.041687
C27   C     C_R   0.127456 0.491079 0.226652 0.032780
C28   C     C_R   0.902425 0.631981 0.903336 -0.075103
C29   C     C_R   0.960182 0.594364 0.814402 0.136497
C30   C     C_R   0.731897 0.491740 0.819392 0.190508
C31   C     C_R   0.514252 0.543369 0.945630 -0.000068
C32   C     C_R   0.465578 0.556008 0.040440 -0.029316
C33   C     C_R   0.558255 0.612860 0.085380 -0.104060
C34   C     C_R   0.701815 0.643230 0.039848 0.250970
C35   C     C_R   0.407835 0.534171 0.896589 0.255377
C36   C     C_R   0.262645 0.515305 0.942852 -0.057607
Cu1   Cu    Cu3+1 0.140670 0.499980 0.500000 1.035912
Cu2   Cu    Cu3+1 0.859330 0.500020 0.500000 1.011991
H1    H     H_    0.455006 0.669834 0.315718 0.148940
H2    H     H_    0.576519 0.399128 0.622016 0.196277
H3    H     H_    0.317089 0.399897 0.622227 0.165112
H4    H     H_    0.459524 0.422140 0.185897 0.336251
H5    H     H_    0.376091 0.747204 0.502811 0.337478
H6    H     H_    0.706119 0.673458 0.318255 0.152900
H7    H     H_    0.610281 0.743621 0.506963 0.342347
H8    H     H_    0.870877 0.394151 0.257539 0.338660
H9    H     H_    0.183320 0.507506 0.904778 0.151994
H10   H     H_    0.972183 0.681741 0.935860 0.202476
H11   H     H_    0.154174 0.552670 0.747493 0.354197
H12   H     H_    0.735454 0.719700 0.146721 0.333139
H13   H     H_    0.594450 0.356256 0.834823 0.345696
H14   H     H_    0.517246 0.640431 0.155006 0.139058
H15   H     H_    0.520092 0.613792 0.787069 0.345069
H16   H     H_    0.992920 0.480789 0.043139 0.159985
H17   H     H_    0.911135 0.206209 0.359592 0.323619
H18   H     H_    0.883789 0.884015 0.393139 0.211984
H19   H     H_    0.006790 0.888631 0.675565 0.148399
H20   H     H_    0.209709 0.885925 0.632317 0.149780
H21   H     H_    0.994861 0.112614 0.746668 0.349006
H22   H     H_    0.319646 0.086704 0.587090 0.326150
N1    N     N_R   0.648210 0.500930 0.499430 -0.254039
N2    N     N_R   0.352300 0.500890 0.499430 -0.250360
O1    O     O_R   0.118810 0.319640 0.500000 -0.478290
O2    O     O_3   0.871257 0.121725 0.373584 -0.664561
O3    O     O_3   0.984143 0.124840 0.684918 -0.650648
O4    O     O_3   0.237555 0.124107 0.633682 -0.668398
O5    O     O_3   0.377070 0.466440 0.227394 -0.708556
O6    O     O_3   0.384345 0.764922 0.438313 -0.641435
O7    O     O_3   0.657752 0.765162 0.443016 -0.660794
O8    O     O_3   0.879167 0.462715 0.213368 -0.690344
O9    O     O_3   0.100304 0.629183 0.771889 -0.689920
O10   O     O_3   0.663966 0.399382 0.784308 -0.657155
O11   O     O_3   0.437752 0.555241 0.804956 -0.677683
O12   O     O_R   0.881230 0.319680 0.499990 -0.490033
O13   O     O_R   0.055580 0.499970 0.629840 -0.512146
O14   O     O_R   0.818000 0.500010 0.629830 -0.463079
O15   O     O_R   0.118770 0.680320 0.500010 -0.466669
O16   O     O_R   0.881190 0.680360 0.500000 -0.484154
O17   O     O_R   0.182000 0.499990 0.370170 -0.435345
O18   O     O_R   0.944420 0.500030 0.370160 -0.514201
O19   O     O_3   0.790633 0.703248 0.083361 -0.692407

loop_
_geom_bond_atom_site_label_1
_geom_bond_atom_site_label_2
_ccdc_geom_bond_type
C25   O18   A    
C35   C36   A    
C20   H3    S    
Cu2   O14   S    
C33   H14   S    
Cu1   O17   S    
C12   C23   A    
C17   O4    S    
C18   C24   S    
C1    O12   A    
C22   C24   S    
C28   C29   A    
C3    C7    A    
C5    C6    A    
C18   C21   A    
C7    C27   A    
C36   H9    S    
C15   C17   S    
C16   O15   A    
C4    O13   A    
C35   O11   S    
C31   C32   A    
H5    O6    S    
C34   O19   S    
C9    C10   A    
Cu2   N1    S    
Cu1   O13   S    
H22   O4    S    
C13   C14   A    
C15   H19   S    
C1    O1    A    
Cu1   O1    S    
C24   O7    S    
Cu1   N2    S    
H15   O11   S    
C4    O14   A    
H7    O7    S    
C5    H16   S    
C1    C9    S    
C19   H2    S    
C8    C9    A    
Cu2   O16   S    
Cu1   O15   S    
Cu1   Cu2   S    
C4    C26   S    
C6    C27   A    
C23   C34   A    
H17   O2    S    
C33   C34   A    
C23   C28   A    
C22   O6    S    
C21   N2    A    
C26   C30   A    
C12   C31   A    
H4    O5    S    
C24   H6    S    
C15   H20   S    
C31   C35   A    
C2    C5    A    
H13   O10   S    
Cu2   O12   S    
C2    C36   A    
C6    O8    S    
C28   H10   S    
C8    C14   A    
C12   C30   A    
C25   O17   A    
C10   O2    S    
C30   O10   S    
C18   N1    A    
C25   C27   S    
C17   O3    S    
C8    C17   S    
C32   C33   A    
C19   C20   A    
C2    C3    A    
H21   O3    S    
C11   C13   A    
Cu2   O18   S    
C19   N1    A    
C22   H1    S    
C16   O16   A    
C20   N2    A    
C3    C32   A    
H8    O8    S    
C10   C11   A    
C7    O5    S    
C26   C29   A    
H11   O9    S    
C13   C16   S    
C14   C15   S    
C21   C22   S    
C11   H18   S    
H12   O19   S    
C29   O9    S    
