data_mof_unit_58608.cif
_audit_creation_date              2012-10-26T19:35:36-0400
_audit_creation_method            fapswitch 2.2
_symmetry_space_group_name_H-M    P1
_symmetry_Int_Tables_number       1
_space_group_crystal_system       triclinic
_cell_length_a                    15.787852
_cell_length_b                    10.861191
_cell_length_c                    9.746342
_cell_angle_alpha                 89.034083
_cell_angle_beta                  89.049951
_cell_angle_gamma                 93.096296
_cell_volume                      1668.31980826

loop_
_atom_site_label
_atom_site_type_symbol
_atom_type_description
_atom_site_fract_x
_atom_site_fract_y
_atom_site_fract_z
_atom_type_partial_charge
C1    C     C_R   0.501801 0.263018 0.500373 0.533728
C2    C     C_R   0.499785 0.128851 0.498255 -0.080295
C3    C     C_R   0.511423 0.065471 0.374121 0.240398
C4    C     C_R   0.340348 0.500195 0.500946 0.519726
C5    C     C_R   0.492600 0.937951 0.370074 0.265193
C6    C     C_R   0.486757 0.869445 0.494660 -0.069958
C7    C     C_R   0.471202 0.933326 0.614018 -0.062883
C8    C     C_3   0.506247 0.922099 0.754041 -0.067028
C9    C     C_3   0.512770 0.063554 0.753962 0.186386
C10   C     C_R   0.573892 0.517925 0.069454 0.104298
C11   C     C_R   0.430505 0.456617 0.077537 0.364465
C12   C     C_3   0.082942 0.497841 0.504602 -0.005519
C13   C     C_R   0.431735 0.450956 0.929823 0.110276
C14   C     C_R   0.572832 0.526248 0.924909 0.070407
C15   C     C_3   0.633563 0.638963 0.924523 -0.106369
C16   C     C_R   0.496436 0.736701 0.498774 0.549579
C17   C     C_3   0.646227 0.612500 0.080499 0.276302
C18   C     C_R   0.659513 0.498243 0.499214 0.525352
C19   C     C_3   0.969823 0.478362 0.631042 0.281717
C20   C     C_3   0.024319 0.386614 0.554307 -0.146620
C21   C     C_1   0.250532 0.500195 0.503130 -0.027777
C22   C     C_1   0.749074 0.495021 0.498428 -0.051936
C23   C     C_3   0.976048 0.602877 0.452442 0.271473
C24   C     C_3   0.028256 0.588326 0.582284 0.310787
C25   C     C_3   0.497135 0.130980 0.974238 -0.106905
C26   C     C_3   0.352745 0.299235 0.192395 -0.090227
C27   C     C_3   0.359143 0.376579 0.865668 -0.190883
C28   C     C_3   0.277274 0.446292 0.861853 -0.411315
C29   C     C_3   0.715002 0.637938 0.833200 -0.274231
C30   C     C_3   0.716330 0.735432 0.718145 -0.436137
C31   C     C_3   0.727411 0.543440 0.121447 -0.245754
C32   C     C_3   0.799995 0.624554 0.179571 -0.387321
C33   C     C_3   0.665512 0.822580 0.134185 -0.096394
C34   C     C_3   0.916339 0.494291 0.502279 0.049704
C35   C     C_3   0.993461 0.432039 0.858082 -0.141354
C36   C     C_3   0.010405 0.786103 0.337663 -0.144784
C37   C     C_3   0.001930 0.752923 0.720302 -0.132983
C38   C     C_3   0.630907 0.147886 0.267409 -0.126867
C39   C     C_3   0.398245 0.852394 0.222152 -0.096676
C40   C     C_3   0.444901 0.854151 0.859304 -0.226897
C41   C     C_3   0.349964 0.870086 0.838318 -0.396678
C42   C     C_3   0.030560 0.512905 0.373147 -0.151928
C43   C     C_3   0.970096 0.403058 0.423940 -0.192518
C44   C     C_1   0.174778 0.499561 0.504448 -0.034824
C45   C     C_1   0.824653 0.493695 0.500143 -0.021843
C46   C     C_R   0.475007 0.060503 0.615137 0.004367
Cu1   Cu    Cu3+1 0.500000 0.499980 0.640670 0.911270
Cu2   Cu    Cu3+1 0.500000 0.500020 0.359330 1.030413
H1    H     H_    0.046253 0.297970 0.595024 0.103211
H2    H     H_    0.331594 0.292377 0.301355 0.147741
H3    H     H_    0.414228 0.255525 0.184271 0.149658
H4    H     H_    0.304195 0.244785 0.134879 0.077974
H5    H     H_    0.289904 0.543027 0.825291 0.179572
H6    H     H_    0.231531 0.398944 0.792358 0.121120
H7    H     H_    0.247025 0.447956 0.965255 0.169820
H8    H     H_    0.376626 0.340414 0.765270 0.217837
H9    H     H_    0.346162 0.289187 0.923416 0.132495
H10   H     H_    0.659447 0.724868 0.653942 0.192296
H11   H     H_    0.718957 0.829079 0.762502 0.109773
H12   H     H_    0.570040 0.884196 0.752500 0.072646
H13   H     H_    0.773664 0.727452 0.652027 0.155354
H14   H     H_    0.771934 0.662649 0.893428 0.142013
H15   H     H_    0.724259 0.544912 0.792455 0.195726
H16   H     H_    0.826418 0.693270 0.103006 0.123916
H17   H     H_    0.778482 0.672316 0.272573 0.202859
H18   H     H_    0.852229 0.565427 0.208767 0.153108
H19   H     H_    0.711294 0.468971 0.197500 0.153021
H20   H     H_    0.752355 0.491902 0.033541 0.099732
H21   H     H_    0.618915 0.884335 0.090269 0.158711
H22   H     H_    0.718804 0.818348 0.058885 0.074209
H23   H     H_    0.578835 0.106053 0.750521 0.085153
H24   H     H_    0.691356 0.864515 0.228547 0.127656
H25   H     H_    0.047272 0.502546 0.857738 0.147845
H26   H     H_    0.017030 0.339132 0.839201 0.109387
H27   H     H_    0.963935 0.429986 0.962252 0.127283
H28   H     H_    0.030217 0.744561 0.239581 0.110175
H29   H     H_    0.065752 0.800718 0.405921 0.147612
H30   H     H_    0.986732 0.877998 0.312704 0.126363
H31   H     H_    0.955658 0.695530 0.784297 0.150595
H32   H     H_    0.968537 0.803860 0.639686 0.156512
H33   H     H_    0.032402 0.822462 0.788355 0.118703
H34   H     H_    0.598219 0.723279 0.907615 0.132095
H35   H     H_    0.663184 0.062232 0.292855 0.094141
H36   H     H_    0.646714 0.218972 0.344952 0.128240
H37   H     H_    0.656727 0.183475 0.166994 0.109142
H38   H     H_    0.363067 0.813901 0.314750 0.107049
H39   H     H_    0.392661 0.779805 0.143737 0.147452
H40   H     H_    0.367097 0.935198 0.183578 0.089321
H41   H     H_    0.334585 0.968341 0.840442 0.196857
H42   H     H_    0.329630 0.830037 0.739276 0.160904
H43   H     H_    0.312967 0.820153 0.921790 0.106249
H44   H     H_    0.454788 0.753963 0.855897 0.165974
H45   H     H_    0.944037 0.327440 0.359139 0.110618
H46   H     H_    0.462878 0.883766 0.963060 0.168044
H47   H     H_    0.057435 0.525835 0.267594 0.104985
H48   H     H_    0.517990 0.229071 0.987892 0.138309
H49   H     H_    0.552493 0.072866 0.989795 0.125551
H50   H     H_    0.449358 0.101985 0.054059 0.174839
N1    N     N_R   0.500530 0.500930 0.147930 -0.217079
N2    N     N_R   0.500530 0.500890 0.852020 -0.265977
O1    O     O_R   0.500000 0.319640 0.618810 -0.496806
O2    O     O_3   0.355357 0.424149 0.147759 -0.561154
O3    O     O_3   0.624099 0.707439 0.170338 -0.491028
O4    O     O_3   0.931439 0.461038 0.762247 -0.586188
O5    O     O_3   0.944150 0.713383 0.401897 -0.597333
O6    O     O_3   0.065636 0.682489 0.663177 -0.588942
O7    O     O_3   0.542297 0.125833 0.256534 -0.579869
O8    O     O_3   0.485305 0.881569 0.244669 -0.528035
O9    O     O_R   0.500010 0.319680 0.381230 -0.483478
O10   O     O_R   0.379070 0.499970 0.618770 -0.527483
O11   O     O_R   0.379080 0.500010 0.381190 -0.451117
O12   O     O_R   0.499990 0.680320 0.618770 -0.521488
O13   O     O_R   0.500000 0.680360 0.381190 -0.402555
O14   O     O_R   0.620920 0.499990 0.618810 -0.501798
O15   O     O_R   0.620930 0.500030 0.381230 -0.489816
O16   O     O_3   0.457539 0.117321 0.846984 -0.590639

loop_
_geom_bond_atom_site_label_1
_geom_bond_atom_site_label_2
_ccdc_geom_bond_type
Cu1   O14   S    
C41   H41   S    
C29   H15   S    
C35   H26   S    
Cu1   O1    S    
C38   H35   S    
C19   C20   S    
C39   H39   S    
C16   O13   A    
C18   O14   A    
C7    C8    S    
C2    C46   A    
C31   H19   S    
C37   H31   S    
C35   H27   S    
C29   C30   S    
C23   C42   S    
C36   H29   S    
C26   H2    S    
C5    C6    A    
C10   C17   S    
Cu1   O12   S    
C23   O5    S    
C11   N1    A    
C1    C2    S    
C38   O7    S    
C12   C42   S    
C36   H28   S    
C33   H24   S    
C1    O9    A    
Cu1   Cu2   S    
C8    C9    S    
C23   C24   S    
C33   H21   S    
Cu2   O9    S    
C9    C46   S    
C18   C22   S    
C37   H33   S    
C31   H20   S    
C39   H40   S    
C28   H7    S    
C15   C29   S    
C15   H34   S    
C39   O8    S    
C37   H32   S    
C38   H37   S    
C42   H47   S    
C7    C46   A    
C32   H16   S    
C35   O4    S    
C10   C14   A    
C25   O16   S    
C28   H6    S    
C27   H8    S    
C3    O7    S    
Cu1   N2    S    
C20   H1    S    
C26   H4    S    
C21   C44   T    
C19   O4    S    
C31   C32   S    
C23   C34   S    
C30   H11   S    
C12   C20   S    
C34   C45   S    
C40   H44   S    
C33   H22   S    
Cu2   O15   S    
C25   H49   S    
C40   C41   S    
C41   H43   S    
C4    O11   A    
C27   H9    S    
C17   C31   S    
C24   O6    S    
C42   C43   S    
C1    O1    A    
C20   C43   S    
C22   C45   T    
C16   O12   A    
C32   H18   S    
C15   C17   S    
Cu2   N1    S    
C4    O10   A    
C29   H14   S    
C35   H25   S    
C38   H36   S    
C36   O5    S    
C33   O3    S    
C9    O16   S    
C34   C43   S    
C9    H23   S    
C40   H46   S    
C3    C5    A    
C19   C34   S    
C18   O15   A    
C28   H5    S    
C14   N2    A    
C6    C7    A    
Cu1   O10   S    
C12   C24   S    
C32   H17   S    
C13   N2    A    
C19   C24   S    
C17   O3    S    
C37   O6    S    
C12   C44   S    
C36   H30   S    
C26   H3    S    
C8    H12   S    
C4    C21   S    
C11   C13   A    
C30   H10   S    
C43   H45   S    
C2    C3    A    
C11   O2    S    
C10   N1    A    
C6    C16   S    
C25   H50   S    
Cu2   O11   S    
C25   H48   S    
C30   H13   S    
C27   C28   S    
C14   C15   S    
C13   C27   S    
C8    C40   S    
C39   H38   S    
C26   O2    S    
C41   H42   S    
Cu2   O13   S    
C5    O8    S    
