data_mof_unit_49991.cif
_audit_creation_date              2012-12-11T14:26:58-0500
_audit_creation_method            fapswitch 2.2
_symmetry_space_group_name_H-M    P1
_symmetry_Int_Tables_number       1
_space_group_crystal_system       triclinic
_cell_length_a                    15.207666
_cell_length_b                    14.885038
_cell_length_c                    14.869929
_cell_angle_alpha                 109.031526
_cell_angle_beta                  109.867352
_cell_angle_gamma                 109.687707
_cell_volume                      2585.53281666

loop_
_atom_site_label
_atom_site_type_symbol
_atom_type_description
_atom_site_fract_x
_atom_site_fract_y
_atom_site_fract_z
_atom_type_partial_charge
C1    C     C_R   0.994336 0.799562 0.087451 -0.155568
C2    C     C_R   0.222011 0.758670 0.315036 -0.109205
C3    C     C_R   0.916348 0.408482 0.213282 -0.124531
C4    C     C_R   0.796898 0.193857 0.705098 -0.094341
C5    C     C_R   0.300708 0.593063 0.001912 -0.173784
C6    C     C_R   0.957144 0.499779 0.312112 0.155455
C7    C     C_R   0.308313 0.503500 0.950820 0.008854
C8    C     C_R   0.324248 0.791407 0.326506 0.120876
C9    C     C_R   0.056117 0.231637 0.056344 0.112130
C10   C     C_3   0.482955 0.440796 0.833230 -0.406033
C11   C     C_3   0.386033 0.454845 0.829640 0.053136
C12   C     C_R   0.707164 0.128459 0.705293 0.056384
C13   C     C_3   0.555951 0.471236 0.033752 -0.445915
C14   C     C_3   0.599013 0.628591 0.996171 -0.484752
C15   C     C_3   0.579644 0.509521 0.953751 0.270017
C16   C     C_R   0.022846 0.591904 0.778726 -0.154651
C17   C     C_3   0.406074 0.506032 0.951485 0.124247
C18   C     C_3   0.440375 0.440640 0.010716 0.167928
C19   C     C_3   0.503651 0.630904 0.010296 -0.254430
C20   C     C_2   0.438444 0.870807 0.525079 -0.118855
C21   C     C_2   0.428149 0.857221 0.427725 -0.164663
C22   C     C_2   0.536852 0.962499 0.628214 -0.116449
C23   C     C_R   0.944436 0.500923 0.676303 0.103357
C24   C     C_2   0.631626 0.009942 0.632437 -0.165070
C25   C     C_2   0.829254 0.420084 0.474259 0.332226
C26   C     C_2   0.895111 0.507620 0.576984 -0.207985
C27   C     C_2   0.843201 0.427248 0.382682 -0.146513
C28   C     C_R   0.685867 0.409430 0.937384 -0.069491
C29   C     C_2   0.936816 0.501931 0.401023 -0.246106
C30   C     C_2   0.162360 0.141292 0.079306 -0.102111
C31   C     C_2   0.107433 0.184379 0.112859 -0.191636
C32   C     C_2   0.158794 0.042772 0.082539 -0.110501
C33   C     C_2   0.075816 0.972501 0.082594 -0.191059
C34   C     C_R   0.675828 0.503346 0.957786 -0.026656
C35   C     C_R   0.933372 0.408959 0.686773 -0.065746
C36   C     C_R   0.779110 0.593352 0.027278 -0.115496
C37   C     C_R   0.709514 0.193267 0.797121 -0.080140
C38   C     C_R   0.086335 0.800622 0.998481 -0.123984
C39   C     C_R   0.050885 0.860667 0.053624 0.139230
C40   C     C_2   0.847838 0.153063 0.645455 0.952575
C41   C     C_3   0.277157 0.351399 0.734569 -0.999111
C42   C     C_2   0.368205 0.313693 0.940916 1.005991
C43   C     C_2   0.548000 0.714178 0.130325 1.017976
C44   C     C_3   0.439709 0.471625 0.121618 -0.943712
C45   C     C_R   0.009694 0.591302 0.306096 -0.151292
C46   C     C_3   0.743802 0.311949 0.448124 -0.972132
C47   C     C_2   0.599623 0.294721 0.882389 0.994009
C48   C     C_R   0.212999 0.410616 0.912298 -0.063715
C49   C     C_R   0.312770 0.758691 0.223099 -0.141215
C50   C     C_R   0.978788 0.254964 0.068665 -0.143184
C51   C     C_R   0.069220 0.254585 0.977153 -0.096161
H1    H     H_    0.971118 0.829812 0.146958 0.101372
H2    H     H_    0.507490 0.468715 0.780287 0.153206
H3    H     H_    0.387505 0.516812 0.802797 0.154845
H4    H     H_    0.570717 0.403524 0.034020 0.181694
H5    H     H_    0.675443 0.687967 0.075864 0.188346
H6    H     H_    0.606923 0.656911 0.937154 0.163505
H7    H     H_    0.473728 0.669072 0.963009 0.115982
H8    H     H_    0.616487 0.539328 0.119842 0.220387
H9    H     H_    0.368352 0.827425 0.529988 0.123388
H10   H     H_    0.052141 0.676815 0.799469 0.109051
H11   H     H_    0.496272 0.902337 0.421201 0.148355
H12   H     H_    0.183713 0.326510 0.855598 0.156460
H13   H     H_    0.523982 0.002572 0.693812 0.131929
H14   H     H_    0.644889 0.965372 0.569527 0.183360
H15   H     H_    0.934353 0.589227 0.587652 0.110965
H16   H     H_    0.779470 0.363688 0.298820 0.149408
H17   H     H_    0.003061 0.565878 0.483260 0.135694
H18   H     H_    0.192979 0.163399 0.029274 0.180406
H19   H     H_    0.083598 0.168338 0.169497 0.136173
H20   H     H_    0.214264 0.019304 0.066016 0.131562
H21   H     H_    0.017716 0.992913 0.096051 0.134528
H22   H     H_    0.881283 0.324376 0.623082 0.119032
H23   H     H_    0.376202 0.772843 0.203086 0.139169
H24   H     H_    0.804443 0.679242 0.061476 0.104691
H25   H     H_    0.669741 0.161068 0.836242 0.127515
H26   H     H_    0.144713 0.830298 0.974320 0.091649
H27   H     H_    0.036442 0.675187 0.362326 0.102187
H28   H     H_    0.986216 0.173845 0.645947 0.322509
H29   H     H_    0.258175 0.279686 0.747104 0.271260
H30   H     H_    0.210050 0.369336 0.720872 0.254946
H31   H     H_    0.279587 0.327207 0.656798 0.264324
H32   H     H_    0.340078 0.168309 0.833040 0.329065
H33   H     H_    0.569804 0.857296 0.234993 0.333141
H34   H     H_    0.949833 0.245273 0.123691 0.106351
H35   H     H_    0.356199 0.440174 0.107719 0.260124
H36   H     H_    0.477469 0.435046 0.165342 0.250417
H37   H     H_    0.481368 0.559594 0.179004 0.280823
H38   H     H_    0.666574 0.283145 0.375077 0.250160
H39   H     H_    0.768720 0.249324 0.428749 0.253970
H40   H     H_    0.727350 0.319965 0.516764 0.251525
H41   H     H_    0.475199 0.158396 0.739980 0.326505
H42   H     H_    0.122023 0.244983 0.946777 0.156942
H43   H     H_    0.202826 0.774758 0.380033 0.092096
H44   H     H_    0.858765 0.324578 0.184497 0.106656
H45   H     H_    0.347526 0.676146 0.021514 0.152113
H46   H     H_    0.458370 0.353593 0.796605 0.262730
N1    N     N_R   0.993980 0.704500 0.053430 -0.041303
N2    N     N_R   0.053690 0.556380 0.849240 -0.046657
N3    N     N_R   0.790390 0.443640 0.997160 -0.066091
N4    N     N_R   0.998260 0.443670 0.792970 -0.031533
N5    N     N_R   0.845830 0.556350 0.053430 -0.046096
N6    N     N_R   0.792820 0.295510 0.849240 -0.064610
N7    N     N_R   0.051260 0.704510 0.997160 -0.044389
N8    N     N_R   0.001740 0.556330 0.207030 -0.043900
N9    N     N_R   0.154170 0.443650 0.946570 -0.035782
N10   N     N_R   0.207180 0.704490 0.150760 -0.044337
N11   N     N_R   0.948740 0.295490 0.002840 -0.050032
N12   N     N_R   0.006020 0.295500 0.946570 -0.037621
N13   N     N_R   0.149890 0.704480 0.207030 -0.045116
N14   N     N_R   0.946310 0.443620 0.150760 -0.046357
N15   N     N_R   0.209610 0.556360 0.002840 -0.041850
N16   N     N_R   0.850110 0.295520 0.792970 -0.064872
Ni1   Ni    Ni4+2 0.997880 0.629240 0.129060 0.215304
Ni2   Ni    Ni4+2 0.002120 0.370760 0.870940 0.259170
Ni3   Ni    Ni4+2 0.129260 0.629260 0.000000 0.219167
Ni4   Ni    Ni4+2 0.870740 0.370740 0.000000 0.233584
O1    O     O_2   0.792163 0.072680 0.552959 -0.655802
O2    O     O_R   0.960491 0.208377 0.694686 -0.823962
O3    O     O_2   0.292749 0.265533 0.951314 -0.710753
O4    O     O_R   0.392387 0.250199 0.871581 -0.813499
O5    O     O_2   0.610896 0.712830 0.206732 -0.651687
O6    O     O_R   0.531698 0.804197 0.153053 -0.836480
O7    O     O_2   0.593642 0.247974 0.935991 -0.656629
O8    O     O_R   0.529661 0.237305 0.768317 -0.806581

loop_
_geom_bond_atom_site_label_1
_geom_bond_atom_site_label_2
_ccdc_geom_bond_type
C40   O1    D    
C28   C47   S    
C6    C45   A    
C27   C29   D    
C14   H5    S    
C9    C51   A    
C3    C6    A    
H41   O8    S    
C5    H45   S    
C41   H29   S    
C49   N10   A    
C46   H38   S    
N9    N15   A    
H33   O6    S    
C33   C39   S    
C13   C18   S    
N6    N16   A    
C10   C15   S    
C18   C42   S    
C30   C31   D    
N1    Ni1   S    
N11   N12   A    
C36   N5    A    
C23   C26   S    
C12   C37   A    
C10   H2    S    
C38   N7    A    
C33   H21   S    
N7    Ni3   S    
C31   H19   S    
C48   N9    A    
C4    C40   S    
C19   C43   S    
C9    C31   S    
C7    C17   S    
H28   O2    S    
C45   H27   S    
C20   H9    S    
C44   H36   S    
N13   Ni1   S    
C15   C34   S    
C50   H34   S    
C28   N3    A    
N8    N14   A    
C28   C34   A    
C51   N12   A    
C50   N11   A    
N6    Ni4   S    
C44   H35   S    
C14   C19   S    
C45   N8    A    
C47   O8    S    
C32   H20   S    
C19   H7    S    
C26   H15   S    
C4    N16   A    
C2    H43   S    
C3    N14   A    
N2    Ni3   S    
C5    C7    A    
C1    C39   A    
C48   H12   S    
C46   H40   S    
C25   C26   D    
C10   H46   S    
N5    Ni1   S    
C36   H24   S    
C18   C44   S    
C29   H17   S    
N8    Ni1   S    
C41   H30   S    
C6    C29   S    
N3    N5    A    
C17   C18   S    
H32   O4    S    
C43   O5    D    
C21   H11   S    
C11   H3    S    
C24   H14   S    
C51   H42   S    
C13   H8    S    
N2    N4    A    
C37   H25   S    
C20   C22   S    
C16   C23   A    
C23   C35   A    
C13   C15   S    
N4    Ni2   S    
N10   N13   A    
C22   C24   D    
C4    C12   A    
C16   H10   S    
C43   O6    S    
N15   Ni3   S    
C30   H18   S    
C37   N6    A    
C14   H6    S    
C35   H22   S    
C14   C15   S    
N11   Ni4   S    
C11   C17   S    
C2    C8    A    
C9    C50   A    
C35   N4    A    
C8    C21   S    
C1    N1    A    
C16   N2    A    
C46   H39   S    
C38   H26   S    
C25   C27   S    
C5    N15   A    
C12   C24   S    
N9    Ni2   S    
N14   Ni4   S    
C7    C48   A    
C32   C33   D    
C30   C32   S    
C42   O3    D    
C47   O7    D    
C38   C39   A    
N1    N7    A    
C41   H31   S    
C8    C49   A    
C17   C19   S    
C11   C41   S    
C34   C36   A    
C1    H1    S    
N10   Ni3   S    
C27   H16   S    
C10   C11   S    
N12   Ni2   S    
C22   H13   S    
C40   O2    S    
C20   C21   D    
C49   H23   S    
C3    H44   S    
N3    Ni4   S    
N16   Ni2   S    
C44   H37   S    
C25   C46   S    
C42   O4    S    
C13   H4    S    
C2    N13   A    
