data_mof_unit_30097.cif
_audit_creation_date              2012-12-10T17:17:25-0500
_audit_creation_method            fapswitch 2.2
_symmetry_space_group_name_H-M    P1
_symmetry_Int_Tables_number       1
_space_group_crystal_system       triclinic
_cell_length_a                    10.227139
_cell_length_b                    10.847635
_cell_length_c                    12.474976
_cell_angle_alpha                 90.697481
_cell_angle_beta                  109.657742
_cell_angle_gamma                 95.482368
_cell_volume                      1295.90535617

loop_
_atom_site_label
_atom_site_type_symbol
_atom_type_description
_atom_site_fract_x
_atom_site_fract_y
_atom_site_fract_z
_atom_type_partial_charge
C1    C     C_R   0.049823 0.731897 0.490013 0.933998
C2    C     C_R   0.438901 0.566622 0.986506 0.098375
C3    C     C_R   0.366682 0.575138 0.869728 0.097784
C4    C     C_R   0.578284 0.535569 0.019363 0.034255
C5    C     C_R   0.643512 0.519582 0.936410 0.160193
C6    C     C_R   0.577244 0.555469 0.825876 -0.245501
C7    C     C_R   0.443674 0.590196 0.795605 -0.201038
C8    C     C_R   0.651932 0.514746 0.131604 -0.265895
C9    C     C_R   0.849690 0.460613 0.082956 -0.210706
C10   C     C_R   0.219657 0.567832 0.830355 -0.130616
C11   C     C_2   0.073101 0.862854 0.475981 -0.377005
C12   C     C_R   0.138043 0.526901 0.711603 0.870333
C13   C     C_2   0.970869 0.932176 0.471715 -0.141820
C14   C     C_2   0.912078 0.135456 0.498912 -0.383271
C15   C     C_2   0.993836 0.063833 0.468588 -0.150558
C16   C     C_2   0.432552 0.514764 0.500924 -0.009485
C17   C     C_2   0.569765 0.487935 0.489400 -0.151482
C18   C     C_R   0.947085 0.267759 0.504749 0.956486
C19   C     C_R   0.864562 0.486626 0.286635 0.880817
C20   C     C_R   0.774687 0.471727 0.967272 0.188407
C21   C     C_R   0.789170 0.486151 0.164823 -0.102436
C22   C     C_R   0.151819 0.592382 0.907591 -0.199156
C23   C     C_R   0.225959 0.604515 0.023663 -0.144513
C24   C     C_R   0.367106 0.587137 0.063799 -0.192774
H1    H     H_    0.953319 0.430277 0.108924 0.159169
H2    H     H_    0.871470 0.892813 0.477154 0.188491
H3    H     H_    0.822369 0.096675 0.520228 0.150161
H4    H     H_    0.172295 0.902685 0.470651 0.148156
H5    H     H_    0.604096 0.522068 0.195581 0.168765
H6    H     H_    0.172712 0.622803 0.083034 0.150435
H7    H     H_    0.400134 0.628450 0.713495 0.160935
N1    N     N_2   0.313640 0.446500 0.454900 -0.041113
N2    N     N_2   0.686360 0.553430 0.545150 -0.206921
O1    O     O_R   0.936910 0.692950 0.509080 -0.611077
O2    O     O_R   0.138320 0.658600 0.480130 -0.625272
O3    O     O_R   0.002900 0.525670 0.675280 -0.611205
O4    O     O_R   0.204310 0.491320 0.646330 -0.605367
O5    O     O_R   0.861680 0.341400 0.519870 -0.607310
O6    O     O_R   0.063090 0.307050 0.490920 -0.605256
O7    O     O_R   0.795690 0.508680 0.353670 -0.618709
O8    O     O_R   0.997100 0.474330 0.324720 -0.614144
Zn1   Zn    Zn3+2 0.865520 0.522940 0.519330 0.927588
Zn2   Zn    Zn3+2 0.134480 0.477060 0.480670 0.945037
H8    H     H_    0.573106 0.412295 0.433160 0.178008
H9    H     H_    0.433598 0.596928 0.551073 0.104743
H10   H     H_    0.681179 0.626602 0.596498 0.149106
C25   C     C_3   0.306441 0.339044 0.382237 -0.648169
H11   H     H_    0.197020 0.295851 0.347502 0.229961
H12   H     H_    0.339046 0.366756 0.308723 0.179875
H13   H     H_    0.372147 0.269308 0.431789 0.188639
H14   H     H_    0.627603 0.558645 0.762478 0.150127
C26   C     C_3   0.829335 0.422494 0.878740 -0.917585
H15   H     H_    0.756062 0.343311 0.829332 0.250970
H16   H     H_    0.837690 0.494457 0.818721 0.240469
H17   H     H_    0.933542 0.389109 0.918090 0.244471
H18   H     H_    0.041968 0.602644 0.878470 0.166585
H19   H     H_    0.416476 0.593583 0.155020 0.130046
H20   H     H_    0.083899 0.102126 0.447372 0.185995

loop_
_geom_bond_atom_site_label_1
_geom_bond_atom_site_label_2
_ccdc_geom_bond_type
C16   H9    S    
O4    Zn2   S    
C2    C4    A    
C23   C24   A    
O5    Zn1   S    
C6    C7    A    
C14   H3    S    
C16   N1    D    
C11   C13   D    
C14   C18   S    
C9    C20   A    
O3    Zn1   S    
C25   H11   S    
O1    Zn1   S    
C26   H17   S    
C4    C8    A    
C18   O6    A    
O2    Zn2   S    
O7    Zn1   S    
C2    C3    A    
C18   O5    A    
C17   H8    S    
C9    H1    S    
C25   H12   S    
C3    C10   A    
C10   C22   A    
N2    H10   S    
O8    Zn2   S    
C9    C21   A    
C16   C17   S    
C17   N2    D    
C11   H4    S    
N2    Zn1   S    
C10   C12   S    
N1    C25   S    
C19   C21   S    
N1    Zn2   S    
C26   H16   S    
C1    O1    A    
C8    C21   A    
C25   H13   S    
C3    C7    A    
C13   C15   S    
C2    C24   A    
C5    C6    A    
C6    H14   S    
C15   H20   S    
C13   H2    S    
C12   O3    A    
C19   O7    A    
C8    H5    S    
C22   H18   S    
C23   H6    S    
C7    H7    S    
C26   H15   S    
C1    O2    A    
C20   C26   S    
C12   O4    A    
C5    C20   A    
C14   C15   D    
C4    C5    A    
O6    Zn2   S    
C22   C23   A    
C19   O8    A    
C24   H19   S    
C1    C11   S    
