data_mof_unit_49900.cif
_audit_creation_date              2012-12-11T14:49:46-0500
_audit_creation_method            fapswitch 2.2
_symmetry_space_group_name_H-M    P1
_symmetry_Int_Tables_number       1
_space_group_crystal_system       triclinic
_cell_length_a                    16.951193
_cell_length_b                    16.7169
_cell_length_c                    19.450023
_cell_angle_alpha                 117.796752
_cell_angle_beta                  62.127809
_cell_angle_gamma                 100.910158
_cell_volume                      4307.06852115

loop_
_atom_site_label
_atom_site_type_symbol
_atom_type_description
_atom_site_fract_x
_atom_site_fract_y
_atom_site_fract_z
_atom_type_partial_charge
C1    C     C_R   0.040296 0.759843 0.011730 -0.133212
C2    C     C_R   0.251439 0.520528 0.827738 -0.130886
C3    C     C_R   0.181677 0.490486 0.088949 -0.137340
C4    C     C_R   0.764173 0.418698 0.164317 -0.142523
C5    C     C_R   0.987492 0.341076 0.759641 -0.146540
C6    C     C_R   0.255099 0.541691 0.067485 0.069216
C7    C     C_R   0.938396 0.264950 0.759584 0.082081
C8    C     C_R   0.258249 0.459372 0.746092 0.073812
C9    C     C_R   0.027600 0.222281 0.003622 0.061451
C10   C     C_R   0.850894 0.132830 0.706951 -0.260355
C11   C     C_R   0.901077 0.207455 0.698074 0.114915
C12   C     C_R   0.767129 0.437328 0.240282 0.084850
C13   C     C_R   0.922491 0.221834 0.625681 -0.257543
C14   C     C_R   0.907242 0.155240 0.556491 0.141475
C15   C     C_R   0.867620 0.074766 0.561217 0.027519
C16   C     C_R   0.803985 0.551917 0.953089 0.070671
C17   C     C_R   0.834872 0.065693 0.638450 0.143080
C18   C     C_R   0.939586 0.163729 0.479452 -0.205568
C19   C     C_R   0.942174 0.089083 0.404667 -0.205539
C20   C     C_R   0.912498 0.005727 0.406715 0.143538
C21   C     C_R   0.870141 0.999845 0.486148 0.026604
C22   C     C_R   0.839681 0.916411 0.488877 0.140265
C23   C     C_R   0.722340 0.542055 0.015774 0.011104
C24   C     C_R   0.797572 0.911015 0.568013 -0.203841
C25   C     C_R   0.795299 0.985518 0.642674 -0.206712
C26   C     C_R   0.933621 0.926595 0.330143 -0.256630
C27   C     C_R   0.915906 0.842237 0.332674 0.116780
C28   C     C_R   0.953001 0.672857 0.248954 -0.132567
C29   C     C_R   0.861165 0.838124 0.411797 -0.255967
C30   C     C_R   0.423803 0.435450 0.671743 -0.255423
C31   C     C_R   0.341008 0.415054 0.668288 0.115076
C32   C     C_R   0.338680 0.360913 0.588237 -0.256287
C33   C     C_R   0.416837 0.341221 0.511767 0.141323
C34   C     C_R   0.962026 0.759643 0.255073 0.074395
C35   C     C_R   0.498380 0.373438 0.515850 0.026336
C36   C     C_R   0.502565 0.416499 0.595914 0.139318
C37   C     C_R   0.413306 0.298239 0.431849 -0.204376
C38   C     C_R   0.487989 0.295727 0.357618 -0.207301
C39   C     C_R   0.566589 0.336205 0.362911 0.144640
C40   C     C_R   0.738522 0.481758 0.038542 -0.152252
C41   C     C_R   0.573436 0.370995 0.441236 0.029065
C42   C     C_R   0.652241 0.411791 0.447087 0.145441
C43   C     C_R   0.658539 0.446019 0.525215 -0.208481
C44   C     C_R   0.583927 0.448290 0.599413 -0.201036
C45   C     C_R   0.249318 0.570117 0.013525 -0.141714
C46   C     C_R   0.634783 0.350513 0.293886 -0.259896
C47   C     C_R   0.708276 0.401475 0.303231 0.111461
C48   C     C_R   0.719787 0.425718 0.377475 -0.275596
C49   C     C_R   0.634701 0.583874 0.051188 0.135449
C50   C     C_R   0.320669 0.568404 0.102490 0.128977
C51   C     C_R   0.401712 0.528524 0.157063 -0.223380
C52   C     C_R   0.023895 0.753139 0.174037 -0.125648
C53   C     C_R   0.325080 0.524573 0.147182 -0.173910
C54   C     C_R   0.387106 0.628092 0.080710 -0.279634
C55   C     C_R   0.466151 0.627958 0.085584 0.189605
C56   C     C_R   0.920405 0.262053 0.835586 -0.134211
C57   C     C_R   0.474888 0.573471 0.119476 0.186015
C58   C     C_R   0.558813 0.554488 0.104676 -0.270532
C59   C     C_R   0.624628 0.649480 0.029598 -0.161422
C60   C     C_R   0.540147 0.671700 0.046988 -0.230516
C61   C     C_R   0.833817 0.185798 0.152324 0.124645
C62   C     C_R   0.960368 0.865102 0.999114 0.129146
C63   C     C_R   0.886473 0.953376 0.973818 -0.225772
C64   C     C_R   0.842394 0.487294 0.240110 -0.146522
C65   C     C_R   0.925011 0.871789 0.949319 -0.174484
C66   C     C_R   0.959092 0.942822 0.072704 -0.275337
C67   C     C_R   0.172469 0.450951 0.751292 -0.130143
C68   C     C_R   0.919524 0.024751 0.098337 0.188313
C69   C     C_R   0.881834 0.029691 0.049014 0.189925
C70   C     C_R   0.838797 0.110463 0.076753 -0.285531
C71   C     C_R   0.871821 0.181395 0.200575 -0.156577
C72   C     C_R   0.914554 0.101246 0.173909 -0.228995
C73   C     C_R   0.960933 0.691686 0.937196 -0.139070
C74   C     C_R   0.988755 0.775756 0.980821 0.052937
C75   C     C_1   0.813525 0.566225 0.882107 -0.023089
C76   C     C_R   0.050706 0.307448 0.051894 -0.123620
C77   C     C_R   0.972644 0.238573 0.975572 -0.116592
H1    H     H_    0.082748 0.807982 0.037738 0.087303
H2    H     H_    0.957956 0.280683 0.619048 0.117754
H3    H     H_    0.968647 0.225930 0.475547 0.127693
H4    H     H_    0.723239 0.369945 0.136429 0.084012
H5    H     H_    0.973272 0.094840 0.344261 0.122778
H6    H     H_    0.970940 0.931073 0.269319 0.113649
H7    H     H_    0.842288 0.773905 0.414740 0.118695
H8    H     H_    0.772497 0.847527 0.571029 0.130077
H9    H     H_    0.768389 0.978368 0.702124 0.128222
H10   H     H_    0.427300 0.473113 0.732917 0.119556
H11   H     H_    0.275849 0.340662 0.584383 0.118694
H12   H     H_    0.873031 0.220137 0.863568 0.084113
H13   H     H_    0.351353 0.271931 0.427680 0.129826
H14   H     H_    0.482430 0.267441 0.297391 0.128123
H15   H     H_    0.626150 0.328221 0.236048 0.115112
H16   H     H_    0.777410 0.462134 0.384758 0.117194
H17   H     H_    0.719261 0.476207 0.530183 0.129461
H18   H     H_    0.588312 0.480266 0.660403 0.132474
H19   H     H_    0.563958 0.508722 0.127396 0.117172
H20   H     H_    0.681488 0.680505 0.995826 0.132456
H21   H     H_    0.407113 0.488321 0.185274 0.126438
H22   H     H_    0.533850 0.716594 0.023631 0.129016
H23   H     H_    0.152197 0.408474 0.700734 0.096473
H24   H     H_    0.273381 0.480805 0.167888 0.114504
H25   H     H_    0.382716 0.666242 0.050413 0.116813
H26   H     H_    0.808896 0.115460 0.040332 0.117498
H27   H     H_    0.910947 0.651236 0.298741 0.096317
H28   H     H_    0.867640 0.240183 0.258959 0.124447
H29   H     H_    0.858516 0.956214 0.934977 0.125754
H30   H     H_    0.942876 0.098785 0.212642 0.123257
H31   H     H_    0.925564 0.813537 0.892083 0.119961
H32   H     H_    0.984846 0.938711 0.112574 0.115902
H33   H     H_    0.692029 0.455502 0.083379 0.105752
H34   H     H_    0.090840 0.320951 0.085686 0.097273
H35   H     H_    0.050457 0.808394 0.157241 0.086425
H36   H     H_    0.873160 0.501682 0.282141 0.085417
H37   H     H_    0.928848 0.678400 0.897014 0.110160
H38   H     H_    0.288103 0.620910 0.993333 0.087844
H39   H     H_    0.940205 0.188015 0.938299 0.095778
H40   H     H_    0.304183 0.542645 0.848064 0.096833
H41   H     H_    0.157409 0.468573 0.139396 0.084323
H42   H     H_    0.001884 0.372733 0.717894 0.092114
H43   H     H_    0.830852 0.122265 0.763589 0.116010
N1    N     N_R   0.036080 0.671900 0.995420 -0.038150
N2    N     N_R   0.867430 0.509300 0.948100 -0.056984
N3    N     N_R   0.003360 0.617250 0.167070 -0.041030
N4    N     N_R   0.825450 0.461270 0.995400 -0.048227
N5    N     N_R   0.045340 0.665280 0.119770 -0.039888
N6    N     N_R   0.883740 0.497640 0.167070 -0.037959
N7    N     N_R   0.987050 0.628910 0.948110 -0.041108
N8    N     N_R   0.174550 0.538730 0.004600 -0.038903
N9    N     N_1   0.820879 0.577081 0.824825 -0.099994
N10   N     N_R   0.954660 0.334720 0.880230 -0.039223
N11   N     N_R   0.116260 0.502360 0.832930 -0.041835
N12   N     N_R   0.012950 0.371090 0.051890 -0.041714
N13   N     N_R   0.963920 0.328100 0.004580 -0.042234
N14   N     N_R   0.165290 0.545350 0.880240 -0.042072
N15   N     N_R   0.132570 0.490700 0.051900 -0.037919
N16   N     N_R   0.996640 0.382750 0.832930 -0.039918
N17   N     N_R   0.834710 0.454650 0.119760 -0.037174
Ni1   Ni    Ni4+2 0.104370 0.604370 0.000010 0.212450
Ni2   Ni    Ni4+2 0.895630 0.395630 0.999990 0.206619
Ni3   Ni    Ni4+2 0.991920 0.505780 0.891500 0.220763
Ni4   Ni    Ni4+2 0.008080 0.494220 0.108500 0.208971

loop_
_geom_bond_atom_site_label_1
_geom_bond_atom_site_label_2
_ccdc_geom_bond_type
C61   C70   A    
C5    N16   A    
C66   C68   A    
C63   C65   A    
N6    N17   A    
C26   H6    S    
C6    C45   A    
C27   C29   A    
C16   C75   S    
C11   C13   A    
C41   C42   A    
C14   C18   A    
N4    Ni2   S    
C35   C36   A    
N16   Ni3   S    
N11   N14   A    
C13   H2    S    
C28   N3    A    
C39   C41   A    
C7    C11   S    
N17   Ni2   S    
C26   C27   A    
C50   C54   A    
C37   H13   S    
C5    H42   S    
C1    C74   A    
C22   C29   A    
N1    N7    A    
C30   C31   A    
C12   C64   A    
C23   C49   S    
C46   H15   S    
C52   H35   S    
C10   C17   A    
C23   C40   A    
C32   H11   S    
C43   H17   S    
C18   C19   A    
C73   C74   A    
C58   H19   S    
C16   N2    A    
N11   Ni3   S    
C4    N17   A    
C54   C55   A    
C4    H4    S    
C63   C69   A    
C53   H24   S    
N12   N13   A    
C51   C57   A    
C9    C76   A    
C4    C12   A    
C77   H39   S    
C24   H8    S    
C65   H31   S    
C55   C60   A    
C61   C71   A    
C51   H21   S    
C28   C34   A    
C59   C60   A    
C13   C14   A    
N8    Ni1   S    
C1    H1    S    
C77   N13   A    
C7    C56   A    
C12   C47   S    
N10   Ni2   S    
C2    H40   S    
C27   C34   S    
C40   N4    A    
N10   N16   A    
C50   C53   A    
C48   H16   S    
C62   C66   A    
C10   H43   S    
C24   C25   A    
C29   H7    S    
N8    N15   A    
C5    C7    A    
C70   H26   S    
C68   C69   A    
C40   H33   S    
C73   N7    A    
C38   H14   S    
C33   C37   A    
C73   H37   S    
C51   C53   A    
N1    Ni1   S    
C43   C44   A    
C37   C38   A    
C3    H41   S    
C28   H27   S    
C47   C48   A    
C72   H30   S    
N15   Ni4   S    
C68   C72   A    
N3    Ni4   S    
C42   C48   A    
C6    C50   S    
C63   H29   S    
C67   H23   S    
C39   C46   A    
C56   H12   S    
N13   Ni2   S    
C16   C23   A    
C64   N6    A    
C71   H28   S    
C59   H20   S    
C22   C24   A    
C36   C44   A    
N7    Ni3   S    
N2    N4    A    
C19   H5    S    
N12   Ni4   S    
C15   C17   A    
C46   C47   A    
C64   H36   S    
C62   C65   A    
C8    C31   S    
C54   H25   S    
C31   C32   A    
C67   N11   A    
C45   H38   S    
N14   Ni1   S    
C60   H22   S    
C52   N5    A    
C2    N14   A    
N5    Ni1   S    
N6    Ni4   S    
C34   C52   A    
C49   C59   A    
C30   C36   A    
C17   C25   A    
C32   C33   A    
C19   C20   A    
C55   C57   A    
C9    C77   A    
N2    Ni3   S    
C71   C72   A    
C44   H18   S    
C76   N12   A    
C57   C58   A    
C38   C39   A    
C20   C26   A    
C76   H34   S    
C25   H9    S    
C33   C35   A    
C3    N15   A    
C66   H32   S    
C69   C70   A    
C35   C41   A    
C1    N1    A    
N3    N5    A    
C10   C11   A    
C49   C58   A    
C15   C21   A    
C20   C21   A    
C8    C67   A    
C18   H3    S    
C42   C43   A    
C3    C6    A    
C2    C8    A    
C14   C15   A    
C62   C74   S    
C45   N8    A    
C30   H10   S    
C21   C22   A    
C56   N10   A    
C75   N9    T    
