data_mof_unit_47763.cif
_audit_creation_date              2012-12-11T14:52:48-0500
_audit_creation_method            fapswitch 2.2
_symmetry_space_group_name_H-M    P1
_symmetry_Int_Tables_number       1
_space_group_crystal_system       triclinic
_cell_length_a                    20.570146
_cell_length_b                    7.257368
_cell_length_c                    20.329693
_cell_angle_alpha                 89.999841
_cell_angle_beta                  101.660961
_cell_angle_gamma                 89.999369
_cell_volume                      2972.28217239

loop_
_atom_site_label
_atom_site_type_symbol
_atom_type_description
_atom_site_fract_x
_atom_site_fract_y
_atom_site_fract_z
_atom_type_partial_charge
O1    O     O_R   0.673670 0.377510 0.185950 -0.532230
O2    O     O_R   0.326330 0.622490 0.814050 -0.532326
O3    O     O_R   0.826330 0.877510 0.314050 -0.532231
O4    O     O_R   0.173670 0.122490 0.685950 -0.532327
O5    O     O_R   0.806260 0.705340 0.185590 -0.539099
O6    O     O_R   0.193740 0.294660 0.814410 -0.536833
O7    O     O_R   0.693740 0.205340 0.314410 -0.539099
O8    O     O_R   0.306260 0.794660 0.685590 -0.536833
C1    C     C_R   0.825886 0.538426 0.171154 0.739602
C2    C     C_R   0.174622 0.461699 0.829381 0.737142
C3    C     C_R   0.674113 0.038428 0.328846 0.739605
C4    C     C_R   0.325378 0.961698 0.670619 0.737145
O9    O     O_R   0.672940 0.707120 0.178050 -0.535643
O10   O     O_R   0.327060 0.292880 0.821950 -0.536979
O11   O     O_R   0.827060 0.207120 0.321950 -0.535642
O12   O     O_R   0.172940 0.792880 0.678050 -0.536979
O13   O     O_R   0.692060 0.879040 0.306460 -0.529269
O14   O     O_R   0.307940 0.120960 0.693540 -0.529662
O15   O     O_R   0.807940 0.379040 0.193540 -0.529270
O16   O     O_R   0.192060 0.620960 0.806460 -0.529662
C5    C     C_R   0.648354 0.539727 0.161539 0.688024
C6    C     C_R   0.351631 0.460265 0.838498 0.686516
C7    C     C_R   0.851646 0.039725 0.338460 0.688024
C8    C     C_R   0.148369 0.960267 0.661502 0.686515
O17   O     O_3   0.756430 0.544390 0.292140 -0.377540
O18   O     O_3   0.243570 0.455610 0.707860 -0.377458
O19   O     O_3   0.743570 0.044390 0.207860 -0.377539
O20   O     O_3   0.256430 0.955610 0.792140 -0.377457
V1    V     V_3+5 0.748810 0.818610 0.242180 1.451575
V2    V     V_3+5 0.251190 0.181390 0.757820 1.463686
V3    V     V_3+5 0.751190 0.318610 0.257820 1.451574
V4    V     V_3+5 0.248810 0.681390 0.742180 1.463688
C9    C     C_R   0.086179 0.961210 0.608878 -0.098140
C10   C     C_R   0.913857 0.038680 0.391029 -0.098507
C11   C     C_R   0.413821 0.461204 0.891123 -0.098143
C12   C     C_R   0.586144 0.538687 0.108970 -0.098510
C13   C     C_R   0.021139 0.175853 0.441728 -0.208537
C14   C     C_R   0.978957 0.823784 0.558095 -0.202623
C15   C     C_R   0.478864 0.675874 0.058266 -0.208541
C16   C     C_R   0.521040 0.323763 0.941911 -0.202626
C17   C     C_R   0.966117 0.164274 0.388308 -0.040872
C18   C     C_R   0.034016 0.835168 0.611476 -0.044335
C19   C     C_R   0.533885 0.664295 0.111687 -0.040874
C20   C     C_R   0.465981 0.335148 0.888529 -0.044335
C21   C     C_R   0.919295 0.923034 0.447417 -0.223209
C22   C     C_R   0.080699 0.077029 0.552524 -0.222234
C23   C     C_R   0.580703 0.423027 0.052586 -0.223206
C24   C     C_R   0.419302 0.577036 0.947473 -0.222230
C25   C     C_R   0.974468 0.935854 0.501255 0.141585
C26   C     C_R   0.025562 0.064079 0.498643 0.142071
C27   C     C_R   0.525531 0.435847 0.998747 0.141585
C28   C     C_R   0.474439 0.564086 0.001355 0.142070
H1    H     H_    0.120446 0.172956 0.549658 0.123023
H2    H     H_    0.879511 0.827258 0.450321 0.122925
H3    H     H_    0.379558 0.672974 0.950336 0.123026
H4    H     H_    0.620486 0.327239 0.049685 0.122928
H5    H     H_    0.060609 0.272895 0.438902 0.123966
H6    H     H_    0.939543 0.726493 0.560855 0.126631
H7    H     H_    0.439396 0.772927 0.061088 0.123967
H8    H     H_    0.560452 0.226461 0.939154 0.126630
C29   C     C_3   0.556004 0.070766 0.530421 0.469312
C30   C     C_3   0.440286 0.940387 0.465585 0.454549
C31   C     C_3   0.943998 0.570774 0.969581 0.469315
C32   C     C_3   0.059712 0.440351 0.034412 0.454541
C33   C     C_3   0.522038 0.895006 0.549476 -0.093582
C34   C     C_3   0.474056 0.116558 0.446820 -0.121163
C35   C     C_3   0.977960 0.395013 0.950519 -0.093576
C36   C     C_3   0.025946 0.616521 0.053185 -0.121131
H9    H     H_    0.513507 0.690156 0.456993 0.146356
H10   H     H_    0.480176 0.318553 0.539516 0.144233
H11   H     H_    0.986485 0.190131 0.042994 0.146336
H12   H     H_    0.019832 0.818552 0.960499 0.144224
C37   C     C_1   0.370366 0.972664 0.624303 -0.143534
C38   C     C_1   0.627603 0.028326 0.373572 -0.161669
C39   C     C_1   0.129634 0.472665 0.875697 -0.143531
C40   C     C_1   0.872396 0.528320 0.126427 -0.161668
C41   C     C_3   0.489426 0.178323 0.521625 -0.331027
C42   C     C_3   0.506509 0.831643 0.475161 -0.341279
C43   C     C_3   0.010578 0.678316 0.978383 -0.331041
C44   C     C_3   0.993486 0.331622 0.024832 -0.341331
C45   C     C_3   0.455568 0.999366 0.539856 0.035078
C46   C     C_3   0.540646 0.010041 0.456336 0.000371
C47   C     C_3   0.044432 0.499359 0.960144 0.035083
C48   C     C_3   0.959353 0.510020 0.043663 0.000381
C49   C     C_1   0.408461 0.984981 0.586027 0.042070
C50   C     C_1   0.588317 0.018909 0.410672 0.006957
C51   C     C_1   0.091540 0.484980 0.913973 0.042065
C52   C     C_1   0.911682 0.518894 0.089327 0.006959
C53   C     C_1   0.035000 0.717765 0.669072 0.323104
N1    N     N_1   0.035634 0.623654 0.715155 -0.351468
C54   C     C_1   0.965345 0.280677 0.330489 0.313500
N2    N     N_1   0.964918 0.373928 0.284223 -0.364977
C55   C     C_1   0.464996 0.217730 0.830937 0.323107
N3    N     N_1   0.464361 0.123607 0.784857 -0.351469
C56   C     C_1   0.534659 0.780712 0.169502 0.313502
N4    N     N_1   0.535087 0.873975 0.215764 -0.364980
C57   C     C_1   0.548512 0.779140 0.607900 0.343725
N5    N     N_1   0.569307 0.688683 0.654239 -0.348832
C58   C     C_1   0.448302 0.238388 0.389969 0.310602
N6    N     N_1   0.428057 0.333585 0.344853 -0.385894
C59   C     C_1   0.951483 0.279165 0.892092 0.343731
N7    N     N_1   0.930686 0.188722 0.845750 -0.348821
C60   C     C_1   0.051704 0.738302 0.110049 0.310632
N8    N     N_1   0.071952 0.833456 0.155176 -0.385914
O21   O     O_3   0.620451 0.118917 0.565433 -0.567864
C61   C     C_3   0.630738 0.311620 0.566533 0.109229
H13   H     H_    0.674715 0.339787 0.606922 0.171494
H14   H     H_    0.589106 0.388789 0.580724 0.126990
C62   C     C_3   0.645403 0.382359 0.499858 -0.361565
H15   H     H_    0.682137 0.290199 0.483286 0.214292
H16   H     H_    0.598947 0.382556 0.460950 0.191124
C63   C     C_3   0.673472 0.577693 0.506548 -0.777525
H17   H     H_    0.638607 0.673021 0.524303 0.246271
H18   H     H_    0.681195 0.626313 0.456896 0.232355
H19   H     H_    0.721896 0.580350 0.542550 0.235087
O22   O     O_3   0.376350 0.877066 0.435209 -0.570710
C64   C     C_3   0.376203 0.813040 0.369690 0.083621
H20   H     H_    0.410218 0.693452 0.371156 0.153056
H21   H     H_    0.391516 0.923831 0.338231 0.134931
C65   C     C_3   0.305840 0.751810 0.337500 -0.278402
H22   H     H_    0.291137 0.634272 0.366396 0.206739
H23   H     H_    0.270747 0.867343 0.339257 0.204558
C66   C     C_3   0.300766 0.693356 0.264520 -0.809946
H24   H     H_    0.314153 0.809935 0.234421 0.234119
H25   H     H_    0.248976 0.650995 0.242915 0.237385
H26   H     H_    0.334262 0.575110 0.261395 0.257093
O23   O     O_3   0.879552 0.618944 0.934569 -0.567864
C67   C     C_3   0.869269 0.811650 0.933475 0.109231
H27   H     H_    0.825295 0.839833 0.893084 0.171498
H28   H     H_    0.910905 0.888814 0.919287 0.126974
C68   C     C_3   0.854603 0.882378 0.000150 -0.361563
H29   H     H_    0.817870 0.790215 0.016720 0.214296
H30   H     H_    0.901059 0.882568 0.039058 0.191115
C69   C     C_3   0.826533 0.077713 0.993462 -0.777531
H31   H     H_    0.861394 0.173042 0.975704 0.246271
H32   H     H_    0.818813 0.126330 0.043116 0.232359
H33   H     H_    0.778106 0.080370 0.957464 0.235085
O24   O     O_3   0.123648 0.377032 0.064791 -0.570713
C70   C     C_3   0.123782 0.312882 0.130291 0.083636
H34   H     H_    0.089814 0.193174 0.128779 0.153069
H35   H     H_    0.108397 0.423550 0.161756 0.134928
C71   C     C_3   0.194160 0.251841 0.162512 -0.278425
H36   H     H_    0.208933 0.134417 0.133610 0.206709
H37   H     H_    0.229209 0.367506 0.160798 0.204555
C72   C     C_3   0.199214 0.193255 0.235477 -0.809950
H38   H     H_    0.185743 0.309713 0.265580 0.234131
H39   H     H_    0.251018 0.151073 0.257109 0.237377
H40   H     H_    0.165772 0.074856 0.238557 0.257128

loop_
_geom_bond_atom_site_label_1
_geom_bond_atom_site_label_2
_ccdc_geom_bond_type
O17   V3    S    
C24   H3    S    
C47   C51   S    
O1    C5    A    
C59   N7    T    
C16   H8    S    
O19   V1    S    
O13   V1    S    
O3    C7    A    
C56   N4    T    
C36   C60   S    
C44   C48   S    
C68   C69   S    
O15   V3    S    
C67   H27   S    
C69   H33   S    
C63   H18   S    
C72   H38   S    
C66   H24   S    
C14   C25   A    
C31   C43   S    
O7    C3    A    
C6    C11   S    
C55   N3    T    
C9    C18   A    
C32   C36   S    
O9    V1    S    
C14   C18   A    
H12   C43   S    
C29   C46   S    
C62   H16   S    
O4    C8    A    
C70   C71   S    
C66   H25   S    
C61   H13   S    
O1    V3    S    
O22   C64   S    
C12   C23   A    
O2    V4    S    
O3    V1    S    
C63   H17   S    
C20   C55   S    
C14   H6    S    
C1    O15   A    
C29   C41   S    
O2    C6    A    
C19   C56   S    
O14   V2    S    
C1    C40   S    
C21   C25   A    
C29   O21   S    
C40   C52   T    
C16   C20   A    
C65   C66   S    
C45   C49   S    
C36   C43   S    
O11   C7    A    
C15   C28   A    
O12   C8    A    
C4    C37   S    
H10   C41   S    
C9    C22   A    
C32   C44   S    
C71   C72   S    
H9    C42   S    
C10   C17   A    
O10   V2    S    
C11   C24   A    
H11   C44   S    
C72   H39   S    
C65   H23   S    
C57   N5    T    
O5    V1    S    
C15   C19   A    
C31   C35   S    
O7    V3    S    
C30   C34   S    
C27   C28   A    
O8    V4    S    
O24   C70   S    
C62   C63   S    
C2    O16   A    
C54   N2    T    
C5    C12   S    
O18   V4    S    
C66   H26   S    
C23   C27   A    
C46   C50   S    
O4    V2    S    
C36   C48   S    
C34   C58   S    
C32   C47   S    
O5    C1    A    
C34   C46   S    
C2    C39   S    
C42   C46   S    
C33   C45   S    
C58   N6    T    
C41   C45   S    
O8    C4    A    
C7    C10   S    
C15   H7    S    
O9    C5    A    
C10   C21   A    
C35   C47   S    
C38   C50   T    
C11   C20   A    
C37   C49   T    
C39   C51   T    
O6    V2    S    
C30   C45   S    
C21   H2    S    
C71   H37   S    
C64   C65   S    
C68   H29   S    
C67   C68   S    
C32   O24   S    
C72   H40   S    
C65   H22   S    
C35   C59   S    
O16   V4    S    
C34   C41   S    
C3    O13   A    
C33   C42   S    
C17   C54   S    
C30   C42   S    
C35   C44   S    
C48   C52   S    
C68   H30   S    
C3    C38   S    
C67   H28   S    
O6    C2    A    
C69   H32   S    
C70   H34   S    
O11   V3    S    
C69   H31   S    
O12   V4    S    
C16   C27   A    
O21   C61   S    
C22   C26   A    
C8    C9    S    
C31   C48   S    
C18   C53   S    
O10   C6    A    
C64   H21   S    
C33   C57   S    
C62   H15   S    
C43   C47   S    
C13   C26   A    
C70   H35   S    
C61   H14   S    
C22   H1    S    
O20   V2    S    
C13   C17   A    
C31   O23   S    
C30   O22   S    
C29   C33   S    
C24   C28   A    
C25   C26   A    
C4    O14   A    
C60   N8    T    
C71   H36   S    
C12   C19   A    
C53   N1    T    
C64   H20   S    
C63   H19   S    
C13   H5    S    
O23   C67   S    
C23   H4    S    
C61   C62   S    
