data_mof_unit_15855.cif
_audit_creation_date              2013-03-05T15:42:33-0500
_audit_creation_method            fapswitch 2.2
_symmetry_space_group_name_H-M    P1
_symmetry_Int_Tables_number       1
_space_group_crystal_system       triclinic
_cell_length_a                    29.514688
_cell_length_b                    17.480928
_cell_length_c                    18.89875
_cell_angle_alpha                 89.703437
_cell_angle_beta                  139.772038
_cell_angle_gamma                 90.399254
_cell_volume                      6297.14460626

loop_
_atom_site_label
_atom_site_type_symbol
_atom_site_description
_atom_site_fract_x
_atom_site_fract_y
_atom_site_fract_z
_atom_type_partial_charge
C1    C     C_R   0.668879 0.924086 0.814789 -0.110219
C2    C     C_R   0.687222 0.102514 0.798667 -0.146076
C3    C     C_R   0.186922 0.398269 0.798960 -0.147457
C4    C     C_R   0.168103 0.575532 0.814592 -0.132610
H1    H     H_    0.715766 0.958117 0.875693 0.096607
H2    H     H_    0.736856 0.074039 0.850898 0.094340
H3    H     H_    0.236671 0.426886 0.850426 0.093608
H4    H     H_    0.214961 0.541941 0.875893 0.091781
N1    N     N_R   0.625250 0.928170 0.708660 -0.040300
N2    N     N_R   0.625250 0.071830 0.708660 -0.036805
N3    N     N_R   0.125250 0.428170 0.708660 -0.036947
N4    N     N_R   0.125250 0.571830 0.708660 -0.037014
C5    C     C_R   0.343717 0.087819 0.455169 -0.149002
C6    C     C_R   0.329700 0.898362 0.415576 -0.123341
C7    C     C_R   0.828465 0.601767 0.409171 -0.189632
C8    C     C_R   0.864253 0.430141 0.492671 -0.117818
H5    H     H_    0.297003 0.056077 0.413780 0.106027
H6    H     H_    0.279363 0.926425 0.355945 0.096024
H7    H     H_    0.778340 0.572882 0.354242 0.112784
H8    H     H_    0.824917 0.467945 0.466800 0.111548
N5    N     N_R   0.386350 0.070500 0.452620 -0.045261
N6    N     N_R   0.386350 0.929500 0.452620 -0.048481
N7    N     N_R   0.886350 0.570500 0.452620 -0.040218
N8    N     N_R   0.886350 0.429500 0.452620 -0.050533
C9    C     C_R   0.409815 0.805366 0.501185 -0.023193
C10   C     C_R   0.425765 0.181654 0.543380 -0.038902
C11   C     C_R   0.938161 0.330399 0.569197 -0.021153
C12   C     C_R   0.908861 0.694970 0.496212 -0.043053
N9    N     N_R   0.437960 0.869720 0.507940 -0.046095
N10   N     N_R   0.437960 0.130280 0.507940 -0.078295
N11   N     N_R   0.937960 0.369720 0.507940 -0.038641
N12   N     N_R   0.937960 0.630280 0.507940 -0.076109
C13   C     C_R   0.606643 0.193275 0.710330 -0.104753
C14   C     C_R   0.585929 0.833505 0.728136 -0.065563
C15   C     C_R   0.084982 0.665384 0.727378 -0.150200
C16   C     C_R   0.105580 0.307349 0.712117 -0.127071
H9    H     H_    0.584053 0.249224 0.680089 0.092319
H10   H     H_    0.558440 0.783209 0.713111 0.102948
H11   H     H_    0.056452 0.714793 0.710884 0.093009
H12   H     H_    0.081682 0.251695 0.685301 0.164442
N13   N     N_R   0.573630 0.128950 0.653340 -0.046316
N14   N     N_R   0.573630 0.871050 0.653340 -0.020235
N15   N     N_R   0.073630 0.628950 0.653340 -0.046823
N16   N     N_R   0.073630 0.371050 0.653340 -0.042655
C17   C     C_R   0.646096 0.864653 0.830186 -0.045244
C18   C     C_R   0.677142 0.178621 0.801312 -0.017055
C19   C     C_R   0.176089 0.322737 0.803063 0.013718
C20   C     C_R   0.144903 0.634235 0.829622 0.005214
C21   C     C_R   0.367718 0.156177 0.512917 0.044073
C22   C     C_R   0.341644 0.820940 0.443595 -0.021621
C23   C     C_R   0.840918 0.678102 0.435214 0.041641
C24   C     C_R   0.894435 0.368985 0.563780 -0.036101
C25   C     C_R   0.658224 0.095606 0.559044 -0.128610
C26   C     C_R   0.658068 0.905177 0.558982 -0.101763
C27   C     C_R   0.135741 0.576735 0.511877 -0.127540
C28   C     C_R   0.168360 0.396032 0.594025 -0.155803
H13   H     H_    0.707032 0.066986 0.605880 0.099732
H14   H     H_    0.706985 0.934108 0.605710 0.108452
H15   H     H_    0.174589 0.538503 0.536881 0.100596
H16   H     H_    0.218453 0.424915 0.656890 0.096907
N17   N     N_R   0.609990 0.071870 0.547380 -0.045652
N18   N     N_R   0.609990 0.928130 0.547380 -0.052866
N19   N     N_R   0.109990 0.571870 0.547380 -0.046207
N20   N     N_R   0.109990 0.428130 0.547380 -0.042584
C29   C     C_R   0.311752 0.892702 0.196963 -0.141703
C30   C     C_R   0.327856 0.083172 0.185050 -0.141633
C31   C     C_R   0.828387 0.417658 0.185126 -0.123230
C32   C     C_R   0.811387 0.607491 0.197959 -0.138608
H17   H     H_    0.261041 0.919556 0.141057 0.093713
H18   H     H_    0.279336 0.051544 0.121805 0.097209
H19   H     H_    0.780039 0.449135 0.122162 0.096297
H20   H     H_    0.760663 0.579997 0.141754 0.092313
N21   N     N_R   0.371090 0.922150 0.291340 -0.036838
N22   N     N_R   0.371090 0.077850 0.291340 -0.041200
N23   N     N_R   0.871090 0.422150 0.291340 -0.040810
N24   N     N_R   0.871090 0.577850 0.291340 -0.032687
C33   C     C_R   0.575476 0.812054 0.470376 -0.051869
C34   C     C_R   0.577858 0.189290 0.475439 -0.078069
C35   C     C_R   0.086686 0.304474 0.502392 -0.099719
C36   C     C_R   0.057252 0.671525 0.431411 -0.087627
H21   H     H_    0.548940 0.757387 0.435728 0.114603
H22   H     H_    0.555233 0.245868 0.449534 0.091883
H23   H     H_    0.060280 0.249836 0.473204 0.158339
H24   H     H_    0.026893 0.722558 0.389023 0.144316
N25   N     N_R   0.558380 0.869490 0.492060 -0.046247
N26   N     N_R   0.558380 0.130510 0.492060 -0.050448
N27   N     N_R   0.058380 0.369490 0.492060 -0.051222
N28   N     N_R   0.058380 0.630510 0.492060 -0.059418
C37   C     C_R   0.412974 0.167641 0.277875 -0.087515
C38   C     C_R   0.398490 0.811520 0.288573 -0.098973
C39   C     C_R   0.897575 0.689849 0.290679 -0.076756
C40   C     C_R   0.914156 0.334796 0.277662 -0.100866
H25   H     H_    0.442929 0.218134 0.301330 0.106054
H26   H     H_    0.428500 0.759663 0.319220 0.120505
H27   H     H_    0.926339 0.743132 0.323542 0.092574
H28   H     H_    0.946122 0.286605 0.301407 0.099313
N29   N     N_R   0.422710 0.124520 0.346660 -0.050547
N30   N     N_R   0.422710 0.875480 0.346660 -0.034656
N31   N     N_R   0.922710 0.624520 0.346660 -0.042365
N32   N     N_R   0.922710 0.375480 0.346660 -0.034447
Ni1   Ni    Ni4+2 0.616550 0.000000 0.626870 0.224571
Ni2   Ni    Ni4+2 0.116550 0.500000 0.626870 0.210509
Ni3   Ni    Ni4+2 0.379790 1.000000 0.373130 0.208699
Ni4   Ni    Ni4+2 0.879790 0.500000 0.373130 0.212441
Ni5   Ni    Ni4+2 0.498170 0.870760 0.500000 0.300215
Ni6   Ni    Ni4+2 0.498170 0.129240 0.500000 0.197942
Ni7   Ni    Ni4+2 0.998170 0.370760 0.500000 0.283255
Ni8   Ni    Ni4+2 0.998170 0.629240 0.500000 0.204378
C41   C     C_R   0.637299 0.167128 0.511132 0.139930
C42   C     C_R   0.636646 0.834106 0.510285 0.113700
C43   C     C_R   0.102129 0.637571 0.436389 0.092378
C44   C     C_R   0.156427 0.318583 0.569276 0.110022
C45   C     C_R   0.327607 0.820543 0.194188 -0.026959
C46   C     C_R   0.353499 0.141532 0.173534 0.023313
C47   C     C_R   0.854536 0.361091 0.173044 -0.019473
C48   C     C_R   0.826864 0.680490 0.196423 -0.010969
C49   C     C_3   0.713763 0.314912 0.866108 -0.391436
C50   C     C_3   0.655375 0.785494 0.951043 -0.386189
C51   C     C_3   0.154383 0.716575 0.948060 -0.391992
C52   C     C_3   0.207750 0.280010 0.957756 -0.385032
H29   H     H_    0.720910 0.326405 0.817106 0.164163
H30   H     H_    0.609125 0.750869 0.879631 0.151415
H31   H     H_    0.108789 0.750930 0.875715 0.161004
H32   H     H_    0.153305 0.259073 0.902705 0.159171
H33   H     H_    0.659365 0.331312 0.815541 0.174452
H34   H     H_    0.635995 0.832359 0.962324 0.173265
H35   H     H_    0.134022 0.671146 0.959885 0.164858
H36   H     H_    0.210152 0.340865 0.977744 0.162535
C53   C     C_3   0.205218 0.769267 0.048963 -0.385854
C54   C     C_3   0.258686 0.233100 0.062726 -0.384471
C55   C     C_3   0.764190 0.365362 0.969478 -0.373775
C56   C     C_3   0.705890 0.733985 0.053325 -0.388688
H37   H     H_    0.208983 0.750607 0.109723 0.164912
H38   H     H_    0.289000 0.271820 0.134279 0.160274
H39   H     H_    0.732610 0.406211 0.963282 0.157151
H40   H     H_    0.711220 0.755388 0.114800 0.164043
H41   H     H_    0.798010 0.399695 0.973511 0.171428
H42   H     H_    0.682753 0.675604 0.028705 0.155121
H43   H     H_    0.183079 0.827931 0.021876 0.155276
H44   H     H_    0.228072 0.193294 0.060669 0.166065
H45   H     H_    0.814524 0.222162 0.927140 0.158806
H46   H     H_    0.677409 0.718061 0.844539 0.182879
H47   H     H_    0.179710 0.779725 0.843914 0.164983
H48   H     H_    0.165212 0.166991 0.807792 0.182850
H49   H     H_    0.254680 0.855094 0.992537 0.163327
H50   H     H_    0.232503 0.097050 0.961036 0.163244
H51   H     H_    0.889211 0.295486 0.083877 0.164671
H52   H     H_    0.750282 0.643239 0.993391 0.160921
C57   C     C_3   0.804705 0.211128 0.972634 -0.391276
C58   C     C_3   0.721479 0.753870 0.917212 -0.343720
C59   C     C_3   0.222775 0.743698 0.916906 -0.378406
C60   C     C_3   0.219958 0.188545 0.869353 -0.321348
C61   C     C_3   0.255150 0.632079 0.034695 -0.404980
C62   C     C_3   0.303301 0.299225 0.980563 -0.412475
C63   C     C_3   0.714841 0.213784 0.963622 -0.368429
C64   C     C_3   0.757542 0.867308 0.034581 -0.384035
C65   C     C_3   0.727008 0.228842 0.898350 0.358637
C66   C     C_3   0.693831 0.819552 0.931585 0.339171
C67   C     C_3   0.192984 0.679912 0.930659 0.371325
C68   C     C_3   0.226060 0.273386 0.900101 0.325046
H53   H     H_    0.285697 0.605264 0.027896 0.153883
H54   H     H_    0.316785 0.297791 0.939363 0.175257
H55   H     H_    0.725444 0.152688 0.989278 0.163936
H56   H     H_    0.787867 0.892186 0.025955 0.168996
H57   H     H_    0.659204 0.225296 0.911654 0.191044
H58   H     H_    0.739223 0.915135 0.046586 0.172183
H59   H     H_    0.235196 0.585635 0.046120 0.163491
H60   H     H_    0.311113 0.358847 0.008750 0.161682
C69   C     C_3   0.279040 0.767764 0.101743 0.373849
C70   C     C_3   0.309406 0.188514 0.074499 0.320085
C71   C     C_3   0.810334 0.314434 0.073034 0.353898
C72   C     C_3   0.778888 0.732816 0.103628 0.342665
C73   C     C_3   0.273495 0.794884 0.017559 -0.393647
C74   C     C_3   0.266565 0.137812 0.971939 -0.419489
C75   C     C_3   0.854055 0.260993 0.076788 -0.386172
C76   C     C_3   0.771121 0.702903 0.018009 -0.370431
C77   C     C_3   0.305872 0.684140 0.135924 -0.383857
C78   C     C_3   0.352887 0.246716 0.081466 -0.315880
C79   C     C_3   0.762689 0.264743 0.064766 -0.380409
C80   C     C_3   0.807860 0.815846 0.136240 -0.381075
H61   H     H_    0.310566 0.664023 0.197295 0.172858
H62   H     H_    0.386085 0.283839 0.154906 0.166620
H63   H     H_    0.729770 0.301715 0.059839 0.169542
H64   H     H_    0.814373 0.837962 0.198756 0.172535
H65   H     H_    0.358552 0.680032 0.173760 0.153936
H66   H     H_    0.388087 0.215738 0.086500 0.216208
H67   H     H_    0.795246 0.228318 0.139119 0.175643
H68   H     H_    0.860053 0.817798 0.172094 0.200741
H69   H     H_    0.817021 0.150118 0.998202 0.158835
H70   H     H_    0.749450 0.777869 0.903622 0.198215
H71   H     H_    0.250479 0.717865 0.904054 0.161922
H72   H     H_    0.237346 0.183461 0.834206 0.208501
H73   H     H_    0.325971 0.793306 0.054217 0.161899
H74   H     H_    0.302500 0.103511 0.981225 0.177291
H75   H     H_    0.887517 0.222218 0.148787 0.163323
H76   H     H_    0.823109 0.701901 0.053158 0.222271
C81   C     C_R   0.672686 0.791418 0.501345 -0.052272
C82   C     C_R   0.674793 0.214988 0.507951 -0.046760
C83   C     C_R   0.208305 0.265706 0.601763 -0.024615
C84   C     C_R   0.115974 0.665938 0.379965 0.000229
C85   C     C_R   0.335517 0.194607 0.533939 0.086020
C86   C     C_R   0.287412 0.767289 0.406609 0.080168
C87   C     C_R   0.799201 0.720207 0.433820 0.108135
C88   C     C_R   0.860351 0.336374 0.583946 0.077388
C89   C     C_R   0.318631 0.311065 0.580025 -0.091065
C90   C     C_R   0.252097 0.638479 0.401673 -0.077361
C91   C     C_R   0.720051 0.822478 0.368547 -0.106404
C92   C     C_R   0.860899 0.272251 0.698229 -0.060012
C93   C     C_R   0.338547 0.274270 0.542304 -0.086779
C94   C     C_R   0.293479 0.687344 0.408868 -0.199465
C95   C     C_R   0.763608 0.786201 0.371614 -0.076858
C96   C     C_R   0.897369 0.306869 0.685565 -0.189088
C97   C     C_R   0.302591 0.151335 0.547405 -0.226007
C98   C     C_R   0.228388 0.797043 0.370292 -0.208926
C99   C     C_R   0.791495 0.687457 0.490937 -0.245117
C100  C     C_R   0.787758 0.334852 0.495422 -0.205260
C101  C     C_R   0.274685 0.187749 0.572579 0.144215
C102  C     C_R   0.183979 0.749339 0.355822 0.139337
C103  C     C_R   0.748485 0.720546 0.488368 0.147063
C104  C     C_R   0.750711 0.301028 0.504487 0.141864
C105  C     C_R   0.713804 0.789847 0.430004 0.088599
C106  C     C_R   0.786553 0.266494 0.604653 0.093391
C107  C     C_R   0.286691 0.266901 0.595937 0.080092
C108  C     C_R   0.200621 0.671288 0.384454 0.077667
C109  C     C_R   0.676529 0.824987 0.439057 -0.308847
C110  C     C_R   0.746829 0.223503 0.604573 -0.316233
C111  C     C_R   0.261980 0.300788 0.627072 -0.293075
C112  C     C_R   0.168311 0.630950 0.401549 -0.302763
C113  C     C_R   0.703830 0.720724 0.554330 0.361006
C114  C     C_R   0.639271 0.252448 0.410257 0.374730
C115  C     C_R   0.197193 0.185848 0.581901 0.338303
C116  C     C_R   0.086010 0.734982 0.318836 0.360676
C117  C     C_R   0.741653 0.685358 0.546454 -0.313450
C118  C     C_R   0.678016 0.297086 0.410540 -0.304168
C119  C     C_R   0.233509 0.146823 0.572133 -0.304494
C120  C     C_R   0.124025 0.779172 0.315911 -0.314804
H77   H     H_    0.651748 0.879809 0.401271 0.139051
H78   H     H_    0.770992 0.193588 0.677136 0.125658
H79   H     H_    0.277237 0.358743 0.655819 0.123864
H80   H     H_    0.187643 0.575330 0.439756 0.123240
H81   H     H_    0.226036 0.085707 0.557057 0.176525
H82   H     H_    0.106156 0.836048 0.280567 0.179590
H83   H     H_    0.768205 0.631915 0.589400 0.174137
H84   H     H_    0.651919 0.324346 0.334994 0.172179
H85   H     H_    0.355591 0.308536 0.518055 0.154826
H86   H     H_    0.329277 0.662174 0.414545 0.156768
H87   H     H_    0.768951 0.807927 0.324403 0.165768
H88   H     H_    0.954104 0.311246 0.753947 0.156112
H89   H     H_    0.297815 0.089759 0.536904 0.128323
H90   H     H_    0.218547 0.857904 0.359311 0.119414
H91   H     H_    0.819389 0.635258 0.537686 0.137368
H92   H     H_    0.759502 0.356651 0.416032 0.127031
N33   N     N_R   0.700596 0.686375 0.619881 0.235772
O1    O     O_R   0.703305 0.728425 0.679689 -0.403287
O2    O     O_R   0.703338 0.612344 0.630139 -0.392704
N34   N     N_R   0.565531 0.241527 0.309133 0.220835
O3    O     O_R   0.538234 0.173152 0.278051 -0.422800
O4    O     O_R   0.528028 0.297914 0.240224 -0.431421
N35   N     N_R   0.150753 0.143879 0.572541 0.225313
O5    O     O_R   0.145266 0.162301 0.632310 -0.450297
O6    O     O_R   0.120391 0.081488 0.514480 -0.385250
N36   N     N_R   0.016448 0.758438 0.254867 0.217551
O7    O     O_R   0.966227 0.707841 0.198356 -0.436104
O8    O     O_R   0.000633 0.830710 0.238736 -0.414025
C121  C     C_2   0.681053 0.891852 0.298902 0.540211
H93   H     H_    0.636417 0.912793 0.275027 0.006861
O9    O     O_2   0.697865 0.926309 0.265118 -0.561311
C122  C     C_2   0.901380 0.243321 0.808351 0.529714
H94   H     H_    0.875878 0.229881 0.827675 -0.009511
O10   O     O_2   0.964917 0.235395 0.880637 -0.583655
C123  C     C_2   0.326964 0.395681 0.593056 0.572708
H95   H     H_    0.291268 0.430721 0.580827 -0.054004
O11   O     O_2   0.374215 0.427589 0.616891 -0.524940
C124  C     C_2   0.261496 0.554291 0.407549 0.563933
H96   H     H_    0.224957 0.515022 0.389095 -0.021276
O12   O     O_2   0.309789 0.527424 0.430981 -0.553835
C125  C     C_2   0.443018 0.730220 0.531901 0.407240
H97   H     H_    0.438733 0.686933 0.567842 0.047108
O13   O     O_2   0.478021 0.716958 0.521062 -0.574355
C126  C     C_2   0.464879 0.253651 0.596886 0.469887
H98   H     H_    0.474060 0.288820 0.561287 -0.002698
O14   O     O_2   0.487846 0.273800 0.681560 -0.553024
C127  C     C_2   0.958360 0.249564 0.599823 0.462195
H99   H     H_    0.967998 0.224453 0.662950 0.024999
O15   O     O_2   0.960923 0.209126 0.550485 -0.558045
C128  C     C_2   0.938686 0.771622 0.518289 0.463364
H100  H     H_    0.985636 0.777509 0.542235 0.009785
O16   O     O_2   0.911420 0.828870 0.509844 -0.556645

loop_
_geom_bond_atom_site_label_1
_geom_bond_atom_site_label_2
_geom_bond_distance
_ccdc_geom_bond_type
C101  C107  1.412644 A    
C58   C76   1.519240 S    
C60   C68   1.554052 S    
N24   Ni4   1.919444 S    
C110  H78   1.080319 S    
N6    N9    1.443784 A    
C27   H15   1.079239 S    
N19   N28   1.429353 A    
C63   C65   1.546489 S    
C109  H77   1.080955 S    
C6    H6    1.079709 S    
C1    C17   1.379190 A    
C15   H11   1.076455 S    
C14   N14   1.330731 A    
N14   Ni5   1.871636 S    
C40   H28   1.077890 S    
C96   H88   1.083895 S    
C71   C79   1.550896 S    
C101  C119  1.400395 A    
C10   C126  1.466174 S    
C115  C119  1.400705 A    
C77   H65   1.112367 S    
C2    H2    1.079462 S    
C2    C18   1.374746 A    
N24   N31   1.280280 A    
N20   Ni2   1.855997 S    
N31   Ni8   1.873426 S    
C72   C76   1.544314 S    
C26   C42   1.379361 A    
N1    N14   1.403089 A    
H52   C76   1.114301 S    
N30   Ni5   1.873472 S    
C116  N36   1.435773 S    
C35   C44   1.385196 A    
C70   C78   1.557129 S    
C1    H1    1.075737 S    
C53   C69   1.557205 S    
C8    H8    1.079007 S    
C38   N30   1.330237 A    
C126  O14   1.220854 D    
C112  H80   1.078715 S    
N4    N15   1.410478 A    
C3    H3    1.079955 S    
C50   H30   1.111309 S    
N33   O1    1.301554 A    
N28   Ni8   1.894104 S    
C12   C23   1.379347 A    
H51   C75   1.112669 S    
C115  N35   1.437130 S    
C76   H76   1.113474 S    
C79   H67   1.113921 S    
C89   C93   1.384686 A    
C106  C110  1.387231 A    
C92   C106  1.423337 A    
C123  H95   1.083665 S    
C30   N22   1.325794 A    
C105  C109  1.383782 A    
C116  C120  1.393145 A    
C36   N28   1.327594 A    
C29   N21   1.319326 A    
C39   C48   1.370055 A    
C48   C72   1.458377 S    
C16   C19   1.375713 A    
C46   C70   1.466582 S    
C124  H96   1.083393 S    
C84   C112  1.405358 A    
C38   C45   1.373651 A    
C120  H82   1.084144 S    
C4    H4    1.075819 S    
C83   C115  1.417149 A    
C9    C22   1.402768 A    
C119  H81   1.084049 S    
C50   H34   1.112789 S    
C49   H29   1.112767 S    
C100  H92   1.086140 S    
C80   H68   1.113066 S    
C37   N29   1.327838 A    
C7    H7    1.082244 S    
C25   N17   1.327026 A    
C117  H83   1.084810 S    
C90   C108  1.413641 A    
C60   H72   1.110955 S    
N34   O4    1.301372 A    
C98   H90   1.081356 S    
C128  O16   1.219846 D    
C28   N20   1.322590 A    
C97   H89   1.084106 S    
C11   C127  1.470910 S    
C7    C23   1.371750 A    
C4    N4    1.321207 A    
C15   N15   1.328960 A    
C121  H93   1.081911 S    
C44   C83   1.467726 S    
C31   H19   1.079982 S    
C81   C109  1.392382 A    
C125  O13   1.220646 D    
C36   H24   1.071527 S    
N18   Ni1   1.855997 S    
C60   C74   1.537667 S    
C72   C80   1.550790 S    
C7    N7    1.325907 A    
C39   H27   1.078831 S    
C33   N25   1.325780 A    
C8    N8    1.323759 A    
C21   C85   1.449337 S    
C35   N27   1.337774 A    
N10   Ni6   1.894337 S    
C42   C81   1.415536 S    
C91   C95   1.398352 A    
C13   C18   1.375298 A    
C62   H60   1.112690 S    
C41   C82   1.419978 S    
N26   Ni6   1.894104 S    
C87   C95   1.390529 A    
C86   C94   1.406457 A    
N19   Ni2   1.847275 S    
N25   Ni5   1.894412 S    
C15   C20   1.393684 A    
C108  C112  1.403474 A    
N5    Ni3   1.839784 S    
C69   C77   1.551308 S    
C92   C96   1.401744 A    
C20   C67   1.469636 S    
C63   C79   1.523096 S    
C64   H58   1.112821 S    
C38   H26   1.078963 S    
N22   N29   1.280280 A    
C79   H63   1.113703 S    
C19   C68   1.467641 S    
C22   C86   1.485832 S    
C9    N9    1.341054 A    
N21   N30   1.286897 A    
C85   C93   1.396865 A    
C61   C77   1.534656 S    
C23   C87   1.421755 S    
N13   Ni6   1.871638 S    
C90   C124  1.487314 S    
C49   C65   1.556555 S    
C77   H61   1.113167 S    
C100  C104  1.360352 A    
C12   N12   1.336340 A    
C1    N1    1.319915 A    
C89   C123  1.488373 S    
N9    Ni5   1.894085 S    
C9    C125  1.471160 S    
C98   C102  1.388524 A    
C10   C21   1.396763 A    
N33   O2    1.301471 A    
C25   H13   1.080472 S    
N36   O8    1.301503 A    
C26   N18   1.324597 A    
C63   H55   1.114137 S    
C92   C122  1.488346 S    
C18   C65   1.475569 S    
C71   C75   1.555390 S    
C89   C107  1.412606 A    
C104  C118  1.393902 A    
C13   H9    1.072006 S    
N6    Ni3   1.831154 S    
C28   H16   1.079814 S    
C27   N19   1.346193 A    
C32   H20   1.080576 S    
C57   C75   1.542118 S    
N11   Ni7   1.894085 S    
C59   C67   1.554444 S    
C61   C67   1.557968 S    
N17   Ni1   1.847275 S    
C6    C22   1.396626 A    
N4    Ni2   1.855104 S    
C55   H41   1.112831 S    
C99   C103  1.365355 A    
C43   C84   1.485601 S    
C103  C105  1.418256 A    
C90   C94   1.404625 A    
C55   H39   1.110911 S    
C113  N33   1.440984 S    
N7    Ni4   1.839784 S    
C53   H43   1.110766 S    
C50   C66   1.550360 S    
C16   H12   1.072634 S    
C56   H42   1.111032 S    
C56   H40   1.113170 S    
C3    N3    1.326491 A    
C111  H79   1.072435 S    
N34   O3    1.301535 A    
C88   C96   1.393414 A    
C52   H36   1.114273 S    
C107  C111  1.376225 A    
C5    N5    1.332419 A    
N3    N16   1.403089 A    
C14   C17   1.391861 A    
C126  H98   1.084339 S    
C28   C44   1.387146 A    
C121  O9    1.221593 D    
C6    N6    1.336379 A    
C85   C97   1.395267 A    
N3    Ni2   1.846678 S    
C78   H62   1.109699 S    
C32   C48   1.360010 A    
C53   H37   1.113147 S    
N29   Ni6   1.873426 S    
C12   C128  1.474097 S    
C51   C67   1.549619 S    
C91   C121  1.489148 S    
H49   C73   1.114376 S    
C91   C105  1.423742 A    
C81   C113  1.404406 A    
C62   C78   1.536205 S    
C11   N11   1.339414 A    
C73   H73   1.114227 S    
N23   Ni4   1.928233 S    
C125  H97   1.083745 S    
C5    C21   1.393570 A    
C57   H69   1.111280 S    
C16   N16   1.328725 A    
C47   C71   1.474966 S    
C31   N23   1.327071 A    
C59   H71   1.114010 S    
C94   H86   1.074396 S    
N35   O5    1.299889 A    
C2    N2    1.331028 A    
C93   H85   1.080192 S    
C127  H99   1.083983 S    
C11   C24   1.393082 A    
C40   N32   1.332020 A    
C4    C20   1.382906 A    
C26   H14   1.080607 S    
N16   Ni7   1.871636 S    
C87   C99   1.382513 A    
C123  O11   1.221255 D    
C37   C46   1.375041 A    
N32   Ni7   1.873472 S    
C97   C101  1.385182 A    
H47   C59   1.113532 S    
C58   C66   1.553311 S    
C74   H74   1.113016 S    
C27   C43   1.410064 A    
C14   H10   1.073685 S    
C29   C45   1.363536 A    
C62   H54   1.113022 S    
N2    Ni1   1.855104 S    
C17   C66   1.468348 S    
C8    C24   1.383073 A    
C122  O10   1.221457 D    
C34   H22   1.081107 S    
N22   Ni3   1.919444 S    
C45   C69   1.460327 S    
C59   C73   1.520141 S    
C82   C114  1.406456 A    
C102  C108  1.411212 A    
N36   O7    1.301631 A    
C55   C71   1.551279 S    
C70   C74   1.549544 S    
C51   H31   1.110957 S    
C32   N24   1.320142 A    
C56   C72   1.555302 S    
N5    N10   1.436231 A    
C88   C100  1.384350 A    
C95   H87   1.084293 S    
C114  N34   1.439573 S    
C5    H5    1.080610 S    
C104  C106  1.416421 A    
C13   N13   1.329904 A    
N7    N12   1.436231 A    
H46   C58   1.113437 S    
C122  H94   1.082379 S    
C64   C66   1.558091 S    
C54   H44   1.113566 S    
C102  C120  1.393868 A    
H45   C57   1.112821 S    
H48   C60   1.109924 S    
N35   O6    1.301484 A    
C39   N31   1.332174 A    
C113  C117  1.383801 A    
C52   C54   1.521312 S    
C35   H23   1.078213 S    
C64   C80   1.532944 S    
C34   N26   1.322560 A    
C128  H100  1.084662 S    
C49   C55   1.539200 S    
C57   C65   1.554062 S    
C63   H57   1.114242 S    
C29   H17   1.080189 S    
H50   C74   1.111792 S    
C36   C43   1.391266 A    
C3    C19   1.372054 A    
N23   N32   1.286897 A    
C51   C53   1.538215 S    
C52   H32   1.114227 S    
N8    Ni4   1.831154 S    
C114  C118  1.376535 A    
C34   C41   1.372119 A    
C124  O12   1.221358 D    
N15   Ni8   1.871638 S    
C37   H25   1.073315 S    
C33   C42   1.375140 A    
C54   H38   1.113940 S    
C40   C47   1.380654 A    
C31   C47   1.381180 A    
N8    N11   1.443784 A    
C50   C56   1.539545 S    
N17   N26   1.429353 A    
C62   C68   1.553344 S    
C58   H70   1.114146 S    
C78   H66   1.112647 S    
C82   C110  1.395388 A    
N21   Ni3   1.928233 S    
C99   H91   1.087411 S    
N27   Ni7   1.894412 S    
C30   H18   1.080381 S    
C64   H56   1.110608 S    
C86   C98   1.399868 A    
N1    Ni1   1.846678 S    
C33   H21   1.080912 S    
N12   Ni8   1.894337 S    
C61   H53   1.110185 S    
C103  C117  1.397611 A    
C52   C68   1.547261 S    
C69   C73   1.542212 S    
N18   N25   1.421871 A    
C54   C70   1.550414 S    
C25   C41   1.381891 A    
C84   C116  1.419108 A    
C24   C88   1.434381 S    
C30   C46   1.378188 A    
C49   H33   1.110825 S    
C83   C111  1.395361 A    
C75   H75   1.110908 S    
N20   N27   1.421871 A    
C61   H59   1.112776 S    
C80   H64   1.113195 S    
C118  H84   1.085186 S    
C127  O15   1.220698 D    
N2    N13   1.410478 A    
C10   N10   1.327957 A    
C51   H35   1.112810 S    
