data_mof_unit_16638.cif
_audit_creation_date              2013-03-05T15:48:24-0500
_audit_creation_method            fapswitch 2.2
_symmetry_space_group_name_H-M    P1
_symmetry_Int_Tables_number       1
_space_group_crystal_system       triclinic
_cell_length_a                    11.709681
_cell_length_b                    12.982909
_cell_length_c                    11.727333
_cell_angle_alpha                 100.250226
_cell_angle_beta                  94.109156
_cell_angle_gamma                 90.680087
_cell_volume                      1749.34129246

loop_
_atom_site_label
_atom_site_type_symbol
_atom_site_description
_atom_site_fract_x
_atom_site_fract_y
_atom_site_fract_z
_atom_type_partial_charge
O1    O     O_R   0.505930 0.354460 0.582000 -0.604660
O2    O     O_R   0.494070 0.645540 0.418000 -0.604660
O3    O     O_R   0.491820 0.341410 0.386200 -0.533480
O4    O     O_R   0.508180 0.658590 0.613800 -0.533481
C1    C     C_R   0.503984 0.299396 0.478308 0.824423
C2    C     C_R   0.496018 0.700604 0.521692 0.824428
O5    O     O_R   0.344250 0.506540 0.597900 -0.602571
O6    O     O_R   0.655750 0.493460 0.402100 -0.602576
O7    O     O_R   0.330140 0.493480 0.402100 -0.525687
O8    O     O_R   0.669860 0.506520 0.597900 -0.525686
C3    C     C_R   0.283954 0.499920 0.499973 0.821523
C4    C     C_R   0.716046 0.500080 0.500027 0.821519
Cu1   Cu    Cu3+1 0.508350 0.507730 0.615930 0.994127
Cu2   Cu    Cu3+1 0.491650 0.492270 0.384070 0.994128
C5    C     C_1   0.162307 0.499966 0.499953 -0.127763
C6    C     C_1   0.837692 0.500033 0.500047 -0.127760
C7    C     C_1   0.059872 0.499990 0.499975 0.028004
C8    C     C_1   0.940128 0.500010 0.500025 0.028004
C9    C     C_R   0.485724 0.814002 0.534098 -0.074811
C10   C     C_R   0.514282 0.185998 0.465903 -0.074808
C11   C     C_R   0.570522 0.016142 0.364372 0.194431
C12   C     C_R   0.429491 0.983859 0.635633 0.194434
C13   C     C_R   0.572786 0.126464 0.376228 0.173276
C14   C     C_R   0.427224 0.873538 0.623775 0.173277
C15   C     C_R   0.465894 0.138139 0.548835 -0.283785
C16   C     C_R   0.534112 0.861861 0.451165 -0.283785
C17   C     C_R   0.474119 0.030788 0.546860 0.072373
C18   C     C_R   0.525890 0.969213 0.453142 0.072375
H1    H     H_    0.579091 0.813456 0.384778 0.171850
H2    H     H_    0.420911 0.186543 0.615220 0.171851
N1    N     N_R   0.520920 0.519350 0.790130 -0.258903
N2    N     N_R   0.479080 0.480650 0.209870 -0.258903
C19   C     C_R   0.391006 0.400306 0.019542 0.002614
C20   C     C_R   0.608995 0.599693 0.980457 0.002614
C21   C     C_R   0.402215 0.410037 0.142707 0.532472
C22   C     C_R   0.597785 0.589962 0.857292 0.532467
C23   C     C_R   0.546369 0.542381 0.158094 -0.036112
C24   C     C_R   0.453631 0.457619 0.841906 -0.036112
C25   C     C_R   0.539368 0.535977 0.035032 -0.032319
C26   C     C_R   0.460633 0.464022 0.964968 -0.032319
H3    H     H_    0.394437 0.403330 0.785960 0.162299
H4    H     H_    0.605562 0.596670 0.214040 0.162299
C27   C     C_3   0.355629 0.820148 0.700268 -0.785631
H5    H     H_    0.275722 0.863250 0.718587 0.226308
H6    H     H_    0.325413 0.740627 0.656694 0.219123
H7    H     H_    0.405712 0.815414 0.783159 0.262676
C28   C     C_3   0.644383 0.179853 0.299736 -0.785617
H8    H     H_    0.724311 0.136767 0.281456 0.226301
H9    H     H_    0.594314 0.184550 0.216824 0.262659
H10   H     H_    0.674568 0.259390 0.343292 0.219139
C29   C     C_3   0.612710 0.948383 0.256981 -0.864428
H11   H     H_    0.626862 0.991841 0.185858 0.254616
H12   H     H_    0.693952 0.911169 0.280152 0.229691
H13   H     H_    0.546852 0.887027 0.219760 0.232799
C30   C     C_3   0.387317 0.051618 0.743029 -0.864431
H14   H     H_    0.373190 0.008162 0.814159 0.254621
H15   H     H_    0.453172 0.112982 0.780236 0.232797
H16   H     H_    0.306065 0.088825 0.719872 0.229693
N3    N     N_R   0.668068 0.654860 0.802864 0.133957
O9    O     O_R   0.773765 0.629291 0.787940 -0.365093
O10   O     O_R   0.639980 0.751652 0.803825 -0.377300
N4    N     N_R   0.331933 0.345139 0.197136 0.133957
O11   O     O_R   0.226235 0.370707 0.212059 -0.365095
O12   O     O_R   0.360023 0.248347 0.196177 -0.377290
C31   C     C_3   0.305178 0.322722 0.946714 -0.796404
H17   H     H_    0.255570 0.276748 0.997951 0.286759
H18   H     H_    0.242490 0.365086 0.897733 0.229047
H19   H     H_    0.350659 0.265894 0.884750 0.216568
C32   C     C_3   0.694823 0.677277 0.053286 -0.796401
H20   H     H_    0.744433 0.723249 0.002049 0.286760
H21   H     H_    0.649343 0.734106 0.115249 0.216567
H22   H     H_    0.757511 0.634912 0.102268 0.229046

loop_
_geom_bond_atom_site_label_1
_geom_bond_atom_site_label_2
_geom_bond_distance
_ccdc_geom_bond_type
C32   H22   1.110368 S    
C24   C26   1.427098 A    
O7    Cu2   1.917953 S    
C10   C13   1.413940 A    
N4    O11   1.301075 A    
C15   C17   1.394382 A    
C27   H6    1.108981 S    
C16   C18   1.394386 A    
C28   H8    1.110559 S    
N1    C24   1.363308 A    
O6    C4    1.293055 A    
C28   H10   1.109001 S    
C27   H5    1.110524 S    
C22   N3    1.429989 S    
C17   C18   1.417329 A    
C29   H13   1.110504 S    
C30   H14   1.107499 S    
C30   H15   1.110505 S    
C9    C14   1.413938 A    
C19   C31   1.516869 S    
N3    O9    1.301072 A    
C23   C25   1.427098 A    
C1    C10   1.460706 S    
O2    C2    1.294826 A    
Cu1   Cu2   2.683404 S    
O5    C3    1.293055 A    
C2    C9    1.460706 S    
O7    C3    1.293366 A    
C20   C32   1.516869 S    
C12   C30   1.519599 S    
O3    Cu2   1.963223 S    
O8    C4    1.293366 A    
C16   H1    1.082117 S    
O1    C1    1.294826 A    
O4    C2    1.293871 A    
C19   C21   1.423718 A    
C11   C18   1.422772 A    
C7    C8    1.402219 S    
C21   N4    1.429991 S    
C20   C22   1.423718 A    
C12   C17   1.422770 A    
C11   C13   1.413927 A    
C32   H20   1.106424 S    
O2    Cu2   1.958073 S    
C27   H7    1.110439 S    
C12   C14   1.413924 A    
N3    O10   1.301061 A    
C11   C29   1.519603 S    
O1    Cu1   1.958071 S    
C10   C15   1.392375 A    
C25   C26   1.412679 A    
C29   H11   1.107502 S    
C19   C26   1.416273 A    
N2    C21   1.375779 A    
C4    C6    1.424426 S    
C32   H21   1.109057 S    
O4    Cu1   1.963225 S    
C31   H19   1.109056 S    
C13   C28   1.517664 S    
C29   H12   1.110353 S    
C9    C16   1.392375 A    
C24   H3    1.079970 S    
C28   H9    1.110472 S    
C31   H17   1.106420 S    
C30   H16   1.110353 S    
C23   H4    1.079969 S    
C5    C7    1.199505 T    
C14   C27   1.517665 S    
N1    C22   1.375778 A    
C15   H2    1.082119 S    
N4    O12   1.301065 A    
O5    Cu1   1.917612 S    
O6    Cu2   1.917613 S    
C31   H18   1.110366 S    
N2    C23   1.363307 A    
C3    C5    1.424426 S    
Cu1   N1    2.016075 S    
C6    C8    1.199505 T    
C20   C25   1.416274 A    
Cu2   N2    2.016076 S    
O3    C1    1.293872 A    
O8    Cu1   1.917953 S    
