data_mof_unit_67781.cif
_audit_creation_date              2013-03-05T15:41:21-0500
_audit_creation_method            fapswitch 2.2
_symmetry_space_group_name_H-M    P1
_symmetry_Int_Tables_number       1
_space_group_crystal_system       triclinic
_cell_length_a                    8.195288
_cell_length_b                    9.016143
_cell_length_c                    11.146967
_cell_angle_alpha                 95.286002
_cell_angle_beta                  83.742045
_cell_angle_gamma                 91.07571
_cell_volume                      815.226577447

loop_
_atom_site_label
_atom_site_type_symbol
_atom_site_description
_atom_site_fract_x
_atom_site_fract_y
_atom_site_fract_z
_atom_type_partial_charge
O1    O     O_R   0.389250 0.738570 0.508370 -0.591329
O2    O     O_R   0.678390 0.711620 0.486510 -0.594163
C1    C     C_R   0.542493 0.792499 0.504208 1.045458
O3    O     O_R   0.355430 0.513500 0.696140 -0.574950
O4    O     O_R   0.644580 0.486550 0.674270 -0.523050
C2    C     C_R   0.499806 0.504123 0.741182 0.946234
Zn1   Zn    Zn3+2 0.306940 0.517990 0.514600 1.044527
Zn2   Zn    Zn3+2 0.693060 0.482010 0.485400 1.058436
O5    O     O_R   0.321610 0.288380 0.513490 -0.658743
O6    O     O_R   0.610750 0.261430 0.491630 -0.573431
O7    O     O_R   0.355420 0.513450 0.325730 -0.631409
O8    O     O_R   0.644570 0.486500 0.303860 -0.575786
C3    C     C_R   0.458442 0.208517 0.505860 0.967585
C4    C     C_R   0.501584 0.493225 0.258564 1.001535
C5    C     C_3   0.377455 0.625943 0.953260 -0.259932
C6    C     C_3   0.361247 0.601752 0.096788 -0.063465
C7    C     C_3   0.459634 0.327547 0.911452 -0.030110
C8    C     C_3   0.690200 0.548277 0.912665 -0.336827
C9    C     C_3   0.503412 0.500419 0.878088 -0.206810
C10   C     C_3   0.506589 0.490872 0.120411 -0.155359
C11   C     C_3   0.476341 0.317665 0.058917 -0.180415
C12   C     C_3   0.683141 0.558105 0.062527 -0.048529
C13   C     C_2   0.567431 0.954407 0.510558 -0.080212
C14   C     C_2   0.437430 0.049376 0.516455 -0.214515
N1    N     N_2   0.950330 0.457950 0.465890 -0.067213
N2    N     N_2   0.049670 0.542050 0.534110 -0.118835
H1    H     H_    0.995806 0.638685 0.574732 0.238336
C15   C     C_2   0.203551 0.642471 0.918246 0.964477
O9    O     O_2   0.137408 0.547357 0.857870 -0.607229
O10   O     O_R   0.119267 0.775035 0.954503 -0.713882
H2    H     H_    0.044200 0.768470 0.031711 0.361082
C16   C     C_3   0.837543 0.478466 0.094863 -0.788086
H3    H     H_    0.872852 0.498403 0.186946 0.285935
H4    H     H_    0.854666 0.359166 0.081962 0.277873
H5    H     H_    0.934595 0.525475 0.035225 0.210446
C17   C     C_2   0.563652 0.210272 0.825365 0.985218
O11   O     O_2   0.639013 0.240422 0.731294 -0.657169
O12   O     O_R   0.552273 0.060859 0.840251 -0.707748
H6    H     H_    0.632749 0.000587 0.780386 0.386926
C18   C     C_2   0.616514 0.215305 0.090288 0.949667
O13   O     O_2   0.644207 0.214241 0.196094 -0.628949
O14   O     O_R   0.712687 0.120690 0.006687 -0.663259
H7    H     H_    0.804068 0.071657 0.042805 0.394908
C19   C     C_3   0.746612 0.005919 0.499890 -0.796260
H8    H     H_    0.833159 0.917428 0.510289 0.225144
H9    H     H_    0.781135 0.047595 0.410003 0.256481
H10   H     H_    0.772475 0.089981 0.573220 0.298177
C20   C     C_2   0.264125 0.998041 0.524286 0.926840
O15   O     O_2   0.192774 0.966515 0.620911 -0.588129
O16   O     O_R   0.185057 0.985030 0.419153 -0.766307
H11   H     H_    0.080876 0.924056 0.427631 0.339083
C21   C     C_3   0.010594 0.314551 0.417567 -0.480059
H12   H     H_    0.929786 0.266199 0.350266 0.195547
H13   H     H_    0.133450 0.326213 0.371153 0.260790
H14   H     H_    0.010843 0.240374 0.491499 0.213827
C22   C     C_2   0.432620 0.779174 0.915036 0.942738
O17   O     O_2   0.443185 0.798124 0.806998 -0.595426
O18   O     O_R   0.422259 0.904575 0.997292 -0.675394
H15   H     H_    0.340597 0.977111 0.976106 0.400158
C23   C     C_2   0.344819 0.751494 0.181291 1.101102
O19   O     O_2   0.232667 0.837344 0.174939 -0.586623
O20   O     O_R   0.446900 0.789262 0.270869 -0.806545
H16   H     H_    0.445992 0.900156 0.295111 0.375786
C24   C     C_3   0.191699 0.528751 0.135005 -0.926260
H17   H     H_    0.160208 0.448882 0.064670 0.264365
H18   H     H_    0.166638 0.464389 0.212677 0.263610
H19   H     H_    0.096538 0.613502 0.156868 0.248026
C25   C     C_3   0.290485 0.272562 0.866131 -0.678411
H20   H     H_    0.177232 0.319506 0.910820 0.301828
H21   H     H_    0.286266 0.283382 0.768498 0.220314
H22   H     H_    0.269229 0.151453 0.870327 0.273533
C26   C     C_2   0.328096 0.237566 0.129796 0.896164
O21   O     O_2   0.336943 0.212634 0.234943 -0.600999
O22   O     O_R   0.185591 0.187312 0.080149 -0.827542
H23   H     H_    0.103706 0.138113 0.139381 0.375011
C27   C     C_2   0.822245 0.433881 0.847384 1.044454
O23   O     O_2   0.848352 0.316003 0.886002 -0.617956
O24   O     O_R   0.914096 0.460704 0.738762 -0.708836
H24   H     H_    0.988323 0.374264 0.705073 0.359698
C28   C     C_2   0.757904 0.696616 0.856461 0.993273
O25   O     O_2   0.835250 0.789414 0.912205 -0.555900
O26   O     O_R   0.747682 0.723184 0.735975 -0.758705
H25   H     H_    0.812665 0.813791 0.709938 0.344343
C29   C     C_2   0.712927 0.717398 0.126168 0.982153
O27   O     O_2   0.654871 0.827622 0.093552 -0.569818
O28   O     O_R   0.804356 0.739941 0.225931 -0.785522
H26   H     H_    0.818673 0.848919 0.254384 0.355008

loop_
_geom_bond_atom_site_label_1
_geom_bond_atom_site_label_2
_geom_bond_distance
_ccdc_geom_bond_type
C1    C13   1.466518 S    
C8    C28   1.593700 S    
C19   H8    1.099673 S    
Zn1   O7    2.096260 S    
C2    C9    1.533038 S    
N2    H1    1.028200 S    
Zn1   N2    2.109083 S    
C12   C16   1.558173 S    
C15   O9    1.199133 D    
C27   O24   1.392681 S    
O12   H6    1.013052 S    
O7    C4    1.347660 A    
C5    C6    1.625355 S    
C22   O17   1.225416 D    
C23   O20   1.386233 S    
C8    C9    1.658681 S    
C6    C23   1.572580 S    
O5    C3    1.334712 A    
C16   H4    1.081713 S    
C21   H13   1.088553 S    
C25   H20   1.078818 S    
C13   C14   1.371560 D    
C7    C17   1.560168 S    
C19   H10   1.097776 S    
Zn2   O8    2.108462 S    
C18   O14   1.391402 S    
C8    C12   1.659405 S    
Zn2   N1    2.109082 S    
O3    Zn1   2.108463 S    
C19   H9    1.108489 S    
O22   H23   1.014510 S    
C11   C26   1.576300 S    
C14   C20   1.481483 S    
C24   H19   1.094586 S    
C4    C10   1.534252 S    
C27   O23   1.213897 D    
C26   O22   1.396539 S    
O24   H24   1.016141 S    
C26   O21   1.223610 D    
O18   H15   1.005349 S    
C7    C11   1.674882 S    
C13   C19   1.527302 S    
C3    C14   1.455977 S    
C23   O19   1.224715 D    
O1    C1    1.335782 A    
C24   H18   1.085297 S    
C5    C9    1.651995 S    
C16   H5    1.085444 S    
O20   H16   1.011337 S    
O10   H2    1.007594 S    
C6    C10   1.627610 S    
O16   H11   1.007211 S    
C29   O27   1.211701 D    
C20   O16   1.394416 S    
C28   O26   1.397413 S    
C18   O13   1.226024 D    
O8    C4    1.330058 A    
O3    C2    1.341746 A    
O14   H7    1.014568 S    
C21   H12   1.108448 S    
O28   H26   1.012987 S    
Zn1   O5    2.074758 S    
C20   O15   1.222976 D    
C7    C25   1.582195 S    
C8    C27   1.579975 S    
O1    Zn1   2.092836 S    
Zn2   O6    2.092835 S    
O2    Zn2   2.074758 S    
C10   C12   1.647089 S    
C28   O25   1.207519 D    
O6    C3    1.326345 A    
O4    Zn2   2.096261 S    
C21   H14   1.108341 S    
C16   H3    1.094733 S    
C15   O10   1.396472 S    
O2    C1    1.329329 A    
N1    N2    1.349656 D    
N1    C21   1.429453 S    
C24   H17   1.064409 S    
C5    C15   1.531562 S    
O4    C2    1.334718 A    
C11   C18   1.574962 S    
C25   H22   1.106956 S    
C17   O12   1.372613 S    
C7    C9    1.659245 S    
C22   O18   1.386315 S    
C5    C22   1.528933 S    
C10   C11   1.671937 S    
C17   O11   1.208279 D    
O26   H25   1.014334 S    
C25   H21   1.105900 S    
C29   O28   1.404887 S    
C6    C24   1.560021 S    
C12   C29   1.569204 S    
