data_mof_unit_59628.cif
_audit_creation_date              2012-12-10T18:46:18-0500
_audit_creation_method            fapswitch 2.2
_symmetry_space_group_name_H-M    P1
_symmetry_Int_Tables_number       1
_space_group_crystal_system       triclinic
_cell_length_a                    9.892961
_cell_length_b                    10.768243
_cell_length_c                    13.278142
_cell_angle_alpha                 90.632824
_cell_angle_beta                  71.354507
_cell_angle_gamma                 89.171019
_cell_volume                      1339.95313806

loop_
_atom_site_label
_atom_site_type_symbol
_atom_type_description
_atom_site_fract_x
_atom_site_fract_y
_atom_site_fract_z
_atom_type_partial_charge
C1    C     C_R   0.503348 0.739412 0.489822 0.852646
C2    C     C_R   0.376244 0.551150 0.818365 -0.196908
C3    C     C_R   0.635307 0.936902 0.456590 -0.020414
C4    C     C_R   0.421948 0.516641 0.702845 0.873842
C5    C     C_R   0.630135 0.064144 0.468810 -0.191259
C6    C     C_R   0.498553 0.127051 0.503555 -0.113545
C7    C     C_R   0.370002 0.063063 0.522072 -0.061346
C8    C     C_R   0.377043 0.939228 0.493063 -0.082282
C9    C     C_R   0.506356 0.872595 0.476131 -0.141471
C10   C     C_R   0.949464 0.404179 0.453976 0.574764
C11   C     C_R   0.093565 0.405131 0.452561 0.491397
C12   C     C_R   0.439812 0.547653 0.981398 0.083163
C13   C     C_R   0.051009 0.596109 0.544234 0.579960
C14   C     C_R   0.909830 0.597916 0.540562 -0.328702
C15   C     C_R   0.498575 0.260107 0.504366 0.894382
C16   C     C_R   0.578009 0.499675 0.297074 0.908773
C17   C     C_R   0.788211 0.452630 0.008292 0.635404
C18   C     C_R   0.622312 0.503204 0.182083 -0.181502
C19   C     C_R   0.232901 0.579770 0.879327 -0.040238
C20   C     C_R   0.193401 0.583224 0.991112 0.028301
C21   C     C_R   0.293805 0.553426 0.040597 -0.197847
C22   C     C_1   0.230378 0.121027 0.572191 0.303075
C23   C     C_R   0.480334 0.556428 0.870604 0.024351
C24   C     C_1   0.259680 0.890683 0.462479 0.357084
C25   C     C_1   0.430708 0.656333 0.189787 0.190758
C26   C     C_1   0.131190 0.622917 0.830012 0.300423
C27   C     C_1   0.054186 0.627136 0.057171 0.216010
C28   C     C_1   0.654517 0.693807 0.757678 0.202618
C29   C     C_1   0.774453 0.877370 0.414478 0.250597
C30   C     C_R   0.548943 0.532459 0.027995 -0.024689
C31   C     C_R   0.688803 0.499533 0.962452 -0.009626
C32   C     C_R   0.728076 0.529432 0.855058 -0.193791
C33   C     C_R   0.624419 0.580049 0.816517 0.012731
C34   C     C_R   0.527754 0.556420 0.135102 -0.053736
C35   C     C_R   0.750596 0.447017 0.118829 -0.264150
F1    F     F_    0.904543 0.309133 0.405838 -0.626723
F2    F     F_    0.183694 0.311747 0.401835 -0.607002
F3    F     F_    0.095865 0.692068 0.590572 -0.642287
F4    F     F_    0.919201 0.411270 0.946866 -0.675694
H1    H     H_    0.824038 0.405297 0.154720 0.206345
H2    H     H_    0.729348 0.114067 0.449912 0.226612
H3    H     H_    0.844709 0.679464 0.567108 0.225928
H4    H     H_    0.838697 0.528121 0.806129 0.198412
H5    H     H_    0.256895 0.541126 0.125724 0.164966
N1    N     N_R   0.142790 0.500030 0.500030 -0.212810
N2    N     N_R   0.857180 0.499940 0.500010 -0.186144
N3    N     N_1   0.119089 0.166496 0.612508 -0.147860
N4    N     N_1   0.166194 0.855754 0.435862 -0.118833
N5    N     N_1   0.353862 0.736314 0.232711 -0.187497
N6    N     N_1   0.048104 0.660712 0.793201 -0.130332
N7    N     N_1   0.944047 0.664607 0.110466 -0.191046
N8    N     N_1   0.674223 0.787783 0.714330 -0.188293
N9    N     N_1   0.885788 0.830014 0.379998 -0.161441
O1    O     O_R   0.385370 0.683250 0.500010 -0.572957
O2    O     O_R   0.614700 0.683220 0.500010 -0.627127
O3    O     O_R   0.328400 0.499990 0.653620 -0.590610
O4    O     O_R   0.557730 0.499960 0.653620 -0.610764
O5    O     O_R   0.385300 0.316780 0.499990 -0.567993
O6    O     O_R   0.614630 0.316750 0.499990 -0.566790
O7    O     O_R   0.442270 0.500040 0.346380 -0.588141
O8    O     O_R   0.671600 0.500010 0.346380 -0.591537
Zn1   Zn    Zn3+2 0.346870 0.500020 0.500000 1.068932
Zn2   Zn    Zn3+2 0.653130 0.499980 0.500000 1.021917

loop_
_geom_bond_atom_site_label_1
_geom_bond_atom_site_label_2
_ccdc_geom_bond_type
C4    O4    A    
C10   N2    A    
C2    C4    S    
C1    O1    A    
O5    Zn1   S    
C6    C7    A    
C3    C9    A    
C20   C27   S    
C21   H5    S    
C18   C34   A    
C18   C35   A    
C25   C34   S    
O6    Zn2   S    
C31   C32   A    
C15   O6    A    
N2    Zn2   S    
C14   H3    S    
C32   C33   A    
O8    Zn2   S    
C22   N3    T    
C1    O2    A    
C7    C8    A    
C14   N2    A    
C13   C14   A    
C4    O3    A    
C13   N1    A    
C28   N8    T    
C12   C23   A    
C3    C29   S    
C13   F3    S    
C30   C31   A    
C29   N9    T    
C16   O8    A    
O7    Zn1   S    
C8    C24   S    
C32   H4    S    
C27   N7    T    
C28   C33   S    
O4    Zn2   S    
C25   N5    T    
C26   N6    T    
C16   O7    A    
C5    C6    A    
C17   C31   A    
C15   O5    A    
O3    Zn1   S    
C11   N1    A    
C10   C11   A    
C30   C34   A    
C35   H1    S    
C7    C22   S    
N1    Zn1   S    
C1    C9    S    
C20   C21   A    
C23   C33   A    
C16   C18   S    
C17   F4    S    
C2    C23   A    
C11   F2    S    
C19   C26   S    
C5    H2    S    
C10   F1    S    
C17   C35   A    
C12   C30   A    
C6    C15   S    
C2    C19   A    
O1    Zn1   S    
C12   C21   A    
C19   C20   A    
O2    Zn2   S    
C8    C9    A    
C3    C5    A    
C24   N4    T    
