data_mof_unit_48687.cif
_audit_creation_date              2012-12-11T17:43:33-0500
_audit_creation_method            fapswitch 2.2
_symmetry_space_group_name_H-M    P1
_symmetry_Int_Tables_number       1
_space_group_crystal_system       triclinic
_cell_length_a                    15.098574
_cell_length_b                    15.238847
_cell_length_c                    17.000719
_cell_angle_alpha                 108.3437
_cell_angle_beta                  105.746462
_cell_angle_gamma                 109.395596
_cell_volume                      3178.52007997

loop_
_atom_site_label
_atom_site_type_symbol
_atom_type_description
_atom_site_fract_x
_atom_site_fract_y
_atom_site_fract_z
_atom_type_partial_charge
C1    C     C_R   0.089005 0.284950 0.067090 -0.178486
C2    C     C_R   0.961711 0.013579 0.947045 0.480097
C3    C     C_R   0.984188 0.909967 0.024960 -0.151068
C4    C     C_R   0.002567 0.098535 0.032864 -0.201232
C5    C     C_R   0.948886 0.918120 0.942995 -0.124950
C6    C     C_R   0.035027 0.090895 0.115094 -0.121192
C7    C     C_R   0.011403 0.225487 0.226106 -0.143905
C8    C     C_R   0.966459 0.817982 0.804991 -0.078112
C9    C     C_R   0.153979 0.358003 0.370528 -0.068624
C10   C     C_R   0.816099 0.673694 0.671874 -0.098217
C11   C     C_R   0.606673 0.754712 0.277818 0.596801
C12   C     C_R   0.905763 0.718556 0.968134 -0.209005
C13   C     C_R   0.466979 0.216104 0.668310 0.584848
C14   C     C_R   0.563535 0.690531 0.183942 -0.173046
C15   C     C_R   0.467043 0.260996 0.753995 -0.190551
C16   C     C_R   0.938582 0.511930 0.744004 -0.084411
C17   C     C_R   0.060540 0.550925 0.263072 -0.100307
C18   C     C_R   0.506316 0.582519 0.148789 0.067985
C19   C     C_R   0.458441 0.353743 0.782603 0.063404
C20   C     C_R   0.489853 0.539212 0.208362 -0.153364
C21   C     C_R   0.449752 0.401523 0.724476 -0.165410
C22   C     C_R   0.529864 0.603168 0.301741 -0.149941
C23   C     C_R   0.030634 0.557596 0.736712 0.072817
C24   C     C_R   0.449577 0.357136 0.638894 -0.134882
C25   C     C_R   0.588339 0.710486 0.336681 -0.298833
C26   C     C_R   0.458261 0.264960 0.610717 -0.242775
C27   C     C_R   0.568002 0.496497 0.042509 0.485483
C28   C     C_R   0.381871 0.419721 0.888666 0.480279
C29   C     C_R   0.554484 0.441617 0.953219 -0.102973
C30   C     C_R   0.396196 0.475622 0.978135 -0.110548
C31   C     C_R   0.463886 0.403952 0.875497 -0.187787
C32   C     C_R   0.487973 0.514700 0.055409 -0.201550
C33   C     C_R   0.050931 0.313777 0.308502 -0.105050
C34   C     C_R   0.966801 0.538387 0.269872 0.083236
C35   C     C_R   0.922146 0.741021 0.715141 -0.118129
C36   C     C_R   0.951954 0.578460 0.354106 -0.016920
C37   C     C_R   0.038288 0.582358 0.661308 -0.161172
C38   C     C_R   0.122151 0.695795 0.602331 -0.361519
C39   C     C_R   0.856699 0.507437 0.430321 -0.319368
C40   C     C_R   0.770351 0.203953 0.814007 -0.183587
C41   C     C_R   0.279484 0.783571 0.177384 -0.169560
C42   C     C_R   0.121486 0.673005 0.676058 0.503384
C43   C     C_R   0.856052 0.525617 0.355108 0.436879
C44   C     C_R   0.954128 0.520091 0.574635 0.406584
C45   C     C_R   0.742712 0.196246 0.727015 -0.101683
C46   C     C_R   0.039559 0.646022 0.437724 0.431312
C47   C     C_R   0.949367 0.553725 0.507417 -0.000661
C48   C     C_R   0.037985 0.633878 0.516467 -0.106575
C49   C     C_R   0.689011 0.098297 0.645626 0.150096
C50   C     C_R   0.432397 0.855953 0.328649 0.114011
C51   C     C_R   0.593301 0.013264 0.397751 -0.180889
C52   C     C_R   0.553187 0.923182 0.570430 -0.214083
C53   C     C_R   0.504010 0.935250 0.320485 -0.087132
C54   C     C_R   0.626814 0.009397 0.649646 -0.062825
C55   C     C_R   0.450870 0.853645 0.412472 -0.293177
C56   C     C_R   0.333373 0.778179 0.254175 -0.101986
C57   C     C_R   0.688979 0.094662 0.562360 -0.314470
C58   C     C_R   0.539822 0.927181 0.487699 0.168083
C59   C     C_R   0.610233 0.010678 0.482103 0.138875
C60   C     C_R   0.217596 0.313888 0.350324 -0.133699
C61   C     C_R   0.753483 0.685107 0.717636 -0.115254
C62   C     C_R   0.178506 0.225894 0.267742 -0.084493
C63   C     C_R   0.796892 0.764199 0.806465 -0.148485
C64   C     C_R   0.275293 0.552376 0.964741 -0.097421
C65   C     C_R   0.698898 0.402072 0.993457 -0.021545
C66   C     C_R   0.075210 0.181353 0.204769 0.227996
C67   C     C_R   0.312814 0.490382 0.990798 0.196649
C68   C     C_R   0.903992 0.829836 0.851260 0.238131
C69   C     C_R   0.767453 0.296552 0.734866 0.530373
C70   C     C_R   0.272793 0.684232 0.249333 0.516485
C71   C     C_R   0.266786 0.455107 0.041329 -0.111265
C72   C     C_R   0.705641 0.500511 0.920475 -0.093995
C73   C     C_R   0.110507 0.587991 0.818305 -0.054721
C74   C     C_R   0.888502 0.466042 0.184289 -0.081440
C75   C     C_R   0.916228 0.202107 0.994534 0.520284
C76   C     C_R   0.079014 0.805525 0.037765 0.521591
C77   C     C_R   0.002890 0.192457 0.033897 -0.072703
C78   C     C_R   0.643055 0.436210 0.944500 0.122244
C79   C     C_R   0.989006 0.816025 0.019359 -0.008629
C80   C     C_R   0.026707 0.995750 0.111428 0.528700
H1    H     H_    0.167332 0.306410 0.110506 0.135751
H2    H     H_    0.490194 0.938128 0.255686 0.123431
H3    H     H_    0.646633 0.076831 0.392314 0.150142
H4    H     H_    0.500482 0.857770 0.574432 0.131062
H5    H     H_    0.297410 0.348264 0.398435 0.112246
H6    H     H_    0.671126 0.633772 0.683792 0.114741
H7    H     H_    0.228962 0.193344 0.252273 0.133214
H8    H     H_    0.747331 0.774335 0.840463 0.106716
H9    H     H_    0.282933 0.409300 0.074973 0.099141
H10   H     H_    0.683312 0.534729 0.876500 0.098964
H11   H     H_    0.191944 0.635653 0.841082 0.157957
H12   H     H_    0.824987 0.699271 0.938249 0.134136
H13   H     H_    0.806479 0.436011 0.162349 0.193207
H14   H     H_    0.620572 0.758712 0.409506 0.137415
H15   H     H_    0.458316 0.231852 0.544276 0.123195
H16   H     H_    0.700509 0.891793 0.377886 0.319037
H17   H     H_    0.474793 0.103918 0.581234 0.312868
H18   H     H_    0.580793 0.724014 0.139084 0.144406
H19   H     H_    0.474444 0.223906 0.798644 0.141389
H20   H     H_    0.517580 0.569286 0.347435 0.142157
H21   H     H_    0.443168 0.394505 0.594466 0.128483
H22   H     H_    0.657771 0.552964 0.173016 0.355587
H23   H     H_    0.931458 0.192079 0.178572 0.129045
H24   H     H_    0.281084 0.329448 0.761315 0.331129
H25   H     H_    0.188295 0.725485 0.482578 0.311791
H26   H     H_    0.909011 0.390403 0.583726 0.328860
H27   H     H_    0.705224 0.454981 0.295013 0.315143
H28   H     H_    0.249941 0.799694 0.760849 0.320414
H29   H     H_    0.187105 0.764002 0.614050 0.161037
H30   H     H_    0.785172 0.456106 0.427957 0.190087
H31   H     H_    0.001767 0.348080 0.324159 0.120255
H32   H     H_    0.969702 0.734657 0.678519 0.131353
H33   H     H_    0.742366 0.160969 0.559971 0.162747
H34   H     H_    0.048699 0.869941 0.837669 0.131847
H35   H     H_    0.392540 0.798282 0.421579 0.164106
H36   H     H_    0.184513 0.426445 0.434220 0.109271
H37   H     H_    0.782350 0.613617 0.602550 0.126393
H38   H     H_    0.761623 0.141821 0.833016 0.192562
H39   H     H_    0.311136 0.839735 0.154220 0.141712
H40   H     H_    0.301344 0.597059 0.930087 0.104314
H41   H     H_    0.670541 0.345863 0.018047 0.098314
H42   H     H_    0.672661 0.264209 0.616040 0.316182
H43   H     H_    0.380941 0.658450 0.312767 0.320735
H44   H     H_    0.814240 0.080166 0.988525 0.316684
H45   H     H_    0.450633 0.455711 0.183186 0.121292
H46   H     H_    0.213272 0.848538 0.038691 0.300932
H47   H     H_    0.034342 0.915714 0.181390 0.328855
H48   H     H_    0.973899 0.092676 0.876083 0.319959
H49   H     H_    0.444295 0.473687 0.745965 0.136398
H50   H     H_    0.863092 0.497359 0.700517 0.199668
H51   H     H_    0.137728 0.598874 0.316538 0.182462
H52   H     H_    0.627019 0.008759 0.713073 0.127864
N1    N     N_R   0.055660 0.348550 0.045620 -0.066610
N2    N     N_R   0.185200 0.638170 0.176300 -0.066273
N3    N     N_R   0.201680 0.494570 0.045620 -0.044771
N4    N     N_R   0.798320 0.505430 0.954380 -0.047139
N5    N     N_R   0.068420 0.560530 0.871650 -0.068262
N6    N     N_R   0.931580 0.439470 0.128350 -0.066598
N7    N     N_R   0.948070 0.295860 0.997670 -0.079710
N8    N     N_R   0.051930 0.704140 0.002330 -0.111212
N9    N     N_R   0.944340 0.651450 0.954380 -0.064551
N10   N     N_R   0.960830 0.507850 0.823700 -0.053402
N11   N     N_R   0.039170 0.492150 0.176300 -0.047366
N12   N     N_R   0.811290 0.303410 0.871650 -0.071298
N13   N     N_R   0.188710 0.696590 0.128350 -0.076277
N14   N     N_R   0.205200 0.552990 0.997670 -0.064368
N15   N     N_R   0.794800 0.447010 0.002330 -0.053158
N16   N     N_R   0.814800 0.361830 0.823700 -0.078192
Ni1   Ni    Ni4+2 0.119340 0.493420 0.109960 0.257776
Ni2   Ni    Ni4+2 0.880660 0.506580 0.890040 0.236139
Ni3   Ni    Ni4+2 0.872590 0.372590 0.000000 0.248854
Ni4   Ni    Ni4+2 0.127410 0.627410 0.000000 0.196838
O1    O     O_3   0.670350 0.858946 0.310210 -0.755957
O2    O     O_3   0.304872 0.627898 0.289283 -0.798554
O3    O     O_3   0.816058 0.140537 0.977232 -0.785921
O4    O     O_3   0.175162 0.883049 0.063667 -0.756968
O5    O     O_3   0.058903 0.989256 0.192949 -0.736801
O6    O     O_3   0.932727 0.020922 0.865579 -0.749946
O7    O     O_3   0.475618 0.125094 0.643000 -0.765669
O8    O     O_3   0.663869 0.538177 0.114382 -0.736704
O9    O     O_3   0.286947 0.381533 0.817386 -0.756757
O10   O     O_3   0.124846 0.718223 0.438588 -0.751025
O11   O     O_3   0.877081 0.424291 0.552354 -0.756056
O12   O     O_3   0.764036 0.488291 0.281485 -0.770942
O13   O     O_3   0.199104 0.740068 0.762680 -0.783119
O14   O     O_3   0.734004 0.325666 0.668242 -0.785676

loop_
_geom_bond_atom_site_label_1
_geom_bond_atom_site_label_2
_ccdc_geom_bond_type
C40   H38   S    
H28   O13   S    
H42   O14   S    
C63   H8    S    
C27   C29   A    
C1    C77   A    
C14   C18   A    
C16   N10   A    
C76   C79   A    
N12   N16   A    
C19   C31   S    
H48   O6    S    
C15   C19   A    
C74   N6    A    
C55   H35   S    
H17   O7    S    
C19   C21   A    
C24   C26   A    
C38   C42   A    
N12   Ni3   S    
N6    N11   A    
C71   N3    A    
C11   C14   A    
C20   H45   S    
C57   C59   A    
C67   C71   A    
C17   H51   S    
C11   C25   A    
C1    H1    S    
C49   C54   A    
C12   C79   A    
C49   C57   A    
C12   N9    A    
C60   C62   A    
C24   H21   S    
N7    Ni3   S    
C37   C42   A    
C61   C63   A    
C69   O14   S    
C72   C78   A    
C39   H30   S    
C29   C78   S    
H16   O1    S    
C22   C25   A    
C28   O9    S    
N11   Ni1   S    
N5    Ni4   S    
C36   C46   A    
C10   C35   A    
C33   H31   S    
C44   O11   S    
C65   H41   S    
C65   N15   A    
C16   H50   S    
H44   O3    S    
H47   O5    S    
C38   C48   A    
C30   C67   S    
C42   O13   S    
C8    H34   S    
C43   O12   S    
C3    C79   S    
C25   H14   S    
C7    H23   S    
N4    N15   A    
C9    C33   A    
C7    C33   A    
C74   H13   S    
C23   C73   A    
C5    C68   S    
C1    N1    A    
C3    C80   A    
C52   C54   A    
N9    Ni2   S    
C14   H18   S    
C51   C59   A    
C76   N8    A    
C40   C45   A    
C46   C48   A    
N5    N10   A    
C22   H20   S    
C62   C66   A    
C45   C69   A    
C50   C53   A    
C64   C67   A    
N1    Ni1   S    
N8    N9    A    
C73   H11   S    
C4    C6    A    
H22   O8    S    
H24   O9    S    
C39   C43   A    
C58   C59   A    
N3    Ni1   S    
N2    Ni1   S    
C76   O4    S    
C50   C56   S    
C53   H2    S    
C51   C53   A    
C8    C35   A    
C2    C4    A    
C41   C56   A    
N4    Ni2   S    
C72   H10   S    
C6    C80   A    
C47   C48   A    
C71   H9    S    
C45   C49   S    
C2    O6    S    
N3    N14   A    
H26   O11   S    
C41   H39   S    
C38   H29   S    
C75   C77   A    
C21   H49   S    
C52   C58   A    
C34   C74   A    
N14   Ni4   S    
C20   C22   A    
C8    C68   A    
C16   C23   A    
C56   C70   A    
C13   C15   A    
C46   O10   S    
C13   C26   A    
C55   C58   A    
C10   C61   A    
C18   C32   S    
C17   C34   A    
C51   H3    S    
C39   C47   A    
C26   H15   S    
N2    N13   A    
N8    Ni4   S    
C63   C68   A    
C65   C78   A    
C64   N14   A    
C27   C32   A    
C70   O2    S    
C9    H36   S    
C12   H12   S    
C28   C31   A    
N16   Ni2   S    
C3    C5    A    
C57   H33   S    
C60   H5    S    
C44   C47   A    
N1    N7    A    
N6    Ni3   S    
C54   H52   S    
C62   H7    S    
C50   C55   A    
C64   H40   S    
C40   N12   A    
C17   N11   A    
C9    C60   A    
N10   Ni2   S    
C37   C44   A    
C52   H4    S    
C27   O8    S    
C4    C77   S    
C29   C31   A    
C10   H37   S    
C23   C37   S    
C7    C66   A    
C30   C32   A    
C80   O5    S    
C73   N5    A    
N15   Ni3   S    
C28   C30   A    
C34   C36   S    
C18   C20   A    
N13   Ni4   S    
C72   N4    A    
C61   H6    S    
C11   O1    S    
C2    C5    A    
C75   O3    S    
C6    C66   S    
C41   N13   A    
H27   O12   S    
C15   H19   S    
C21   C24   A    
C70   N2    A    
C69   N16   A    
H25   O10   S    
C36   C43   A    
C75   N7    A    
C13   O7    S    
C35   H32   S    
H43   O2    S    
H46   O4    S    
