data_mof_unit_58959.cif
_audit_creation_date              2012-12-11T15:28:36-0500
_audit_creation_method            fapswitch 2.2
_symmetry_space_group_name_H-M    P1
_symmetry_Int_Tables_number       1
_space_group_crystal_system       triclinic
_cell_length_a                    6.959328
_cell_length_b                    19.587277
_cell_length_c                    23.367907
_cell_angle_alpha                 96.016755
_cell_angle_beta                  91.174445
_cell_angle_gamma                 88.682805
_cell_volume                      3166.47101444

loop_
_atom_site_label
_atom_site_type_symbol
_atom_type_description
_atom_site_fract_x
_atom_site_fract_y
_atom_site_fract_z
_atom_type_partial_charge
O1    O     O_R   0.617180 0.809390 0.808140 -0.528851
O2    O     O_R   0.382820 0.190610 0.191860 -0.528830
O3    O     O_R   0.293300 0.672410 0.795490 -0.523229
O4    O     O_R   0.706700 0.327590 0.204510 -0.523228
O5    O     O_R   0.117220 0.690610 0.691850 -0.514553
O6    O     O_R   0.882780 0.309390 0.308150 -0.514549
C1    C     C_R   0.464661 0.647604 0.805169 0.812948
C2    C     C_R   0.535339 0.352396 0.194830 0.812833
O7    O     O_R   0.287840 0.807750 0.814460 -0.531649
O8    O     O_R   0.712160 0.192250 0.185540 -0.531636
O9    O     O_R   0.111720 0.826910 0.710960 -0.538836
O10   O     O_R   0.888280 0.173090 0.289040 -0.538827
C3    C     C_R   0.456523 0.830731 0.833187 0.689544
C4    C     C_R   0.543477 0.169268 0.166813 0.689605
O11   O     O_R   0.622680 0.673080 0.789040 -0.518786
O12   O     O_R   0.377320 0.326920 0.210960 -0.518780
O13   O     O_3   0.448820 0.756130 0.716020 -0.362187
O14   O     O_3   0.551180 0.243870 0.283980 -0.362235
V1    V     V_3+5 0.176220 0.748860 0.756300 1.473526
V2    V     V_3+5 0.823780 0.251140 0.243700 1.473468
O15   O     O_R   0.781670 0.827580 0.704500 -0.541353
O16   O     O_R   0.218330 0.172420 0.295500 -0.541339
C5    C     C_R   0.947834 0.851935 0.694268 0.670679
C6    C     C_R   0.052166 0.148064 0.305732 0.670722
O17   O     O_R   0.787130 0.692240 0.685530 -0.514431
O18   O     O_R   0.212870 0.307760 0.314470 -0.514561
C7    C     C_R   0.956119 0.669315 0.666743 0.782609
C8    C     C_R   0.043881 0.330686 0.333257 0.782563
V3    V     V_3+5 0.675510 0.751130 0.743690 1.483177
V4    V     V_3+5 0.324490 0.248870 0.256310 1.482896
O19   O     O_3   0.952780 0.743870 0.783980 -0.363963
O20   O     O_3   0.047220 0.256130 0.216020 -0.363920
C9    C     C_1   0.966686 0.617237 0.614699 -0.141046
C10   C     C_1   0.033315 0.382764 0.385301 -0.141096
C11   C     C_1   0.978252 0.573682 0.571913 0.038834
C12   C     C_1   0.021749 0.426319 0.428086 0.039015
C13   C     C_1   0.993445 0.521861 0.521318 0.036467
C14   C     C_1   0.006557 0.478140 0.478681 0.036520
C15   C     C_R   0.946444 0.914122 0.663673 -0.039851
C16   C     C_R   0.053556 0.085878 0.336327 -0.039861
C17   C     C_R   0.863411 0.034618 0.663494 -0.156333
C18   C     C_R   0.136589 0.965382 0.336506 -0.156329
C19   C     C_R   0.880840 0.976103 0.692321 -0.165483
C20   C     C_R   0.119160 0.023897 0.307679 -0.165477
C21   C     C_R   0.994112 0.910924 0.605201 -0.214695
C22   C     C_R   0.005888 0.089076 0.394799 -0.214699
C23   C     C_R   0.973749 0.969836 0.574242 0.087845
C24   C     C_R   0.026252 0.030164 0.425758 0.087848
C25   C     C_R   0.907575 0.032009 0.604975 0.133604
C26   C     C_R   0.092425 0.967991 0.395025 0.133598
C27   C     C_R   0.013575 0.969225 0.514032 0.055768
C28   C     C_R   0.986426 0.030775 0.485968 0.055773
C29   C     C_R   0.921072 0.090869 0.519092 -0.182057
C30   C     C_R   0.078929 0.909131 0.480908 -0.182048
C31   C     C_R   0.883119 0.091284 0.577194 -0.189974
C32   C     C_R   0.116882 0.908716 0.422806 -0.189966
H1    H     H_    0.832506 0.138769 0.600667 0.136811
H2    H     H_    0.167495 0.861231 0.399333 0.136822
H3    H     H_    0.958900 0.138473 0.414882 0.093868
H4    H     H_    0.041101 0.861528 0.585118 0.093879
H5    H     H_    0.158473 0.020972 0.262843 0.108160
H6    H     H_    0.841527 0.979028 0.737157 0.108157
H7    H     H_    0.812092 0.082018 0.686903 0.121385
H8    H     H_    0.187908 0.917982 0.313097 0.121388
H9    H     H_    0.896846 0.138943 0.501375 0.128075
H10   H     H_    0.103155 0.861057 0.498625 0.128088
C33   C     C_R   0.482373 0.583912 0.834016 -0.185737
C34   C     C_R   0.517629 0.416092 0.165989 -0.185718
C35   C     C_R   0.562776 0.462935 0.831423 -0.235505
C36   C     C_R   0.437163 0.537063 0.168582 -0.235444
C37   C     C_R   0.528332 0.520919 0.802471 0.466233
C38   C     C_R   0.471565 0.479075 0.197532 0.466197
C39   C     C_R   0.465095 0.587020 0.894002 -0.279539
C40   C     C_R   0.535014 0.412994 0.106007 -0.279491
C41   C     C_R   0.495630 0.527956 0.924417 0.095297
C42   C     C_R   0.504472 0.472058 0.075593 0.095281
C43   C     C_R   0.550563 0.465179 0.891946 0.004109
C44   C     C_R   0.449483 0.534829 0.108063 0.004104
C45   C     C_R   0.477583 0.529823 0.985864 0.022764
C46   C     C_R   0.522546 0.470194 0.014147 0.022764
C47   C     C_R   0.585784 0.410366 0.980363 -0.171486
C48   C     C_R   0.414342 0.589650 0.019648 -0.171482
C49   C     C_R   0.596268 0.406006 0.920167 0.132432
C50   C     C_R   0.403814 0.594005 0.079842 0.132435
H11   H     H_    0.565364 0.362697 0.084563 0.108819
H12   H     H_    0.434825 0.637323 0.915449 0.108811
H13   H     H_    0.602535 0.416026 0.805578 0.167796
H14   H     H_    0.397330 0.583965 0.194426 0.167776
H15   H     H_    0.630920 0.366159 0.000595 0.137775
H16   H     H_    0.369219 0.633858 0.999415 0.137777
C51   C     C_1   0.467255 0.882787 0.885252 -0.212929
C52   C     C_1   0.532745 0.117213 0.114748 -0.212937
C53   C     C_1   0.478680 0.926306 0.928076 -0.003079
C54   C     C_1   0.521320 0.073693 0.071924 -0.003074
C55   C     C_1   0.493578 0.978129 0.978684 -0.002239
C56   C     C_1   0.506422 0.021871 0.021316 -0.002237
C57   C     C_3   0.659257 0.338803 0.885289 -0.344044
C58   C     C_3   0.705456 0.277149 0.918803 -0.770672
H17   H     H_    0.829650 0.288020 0.948735 0.226810
H18   H     H_    0.577949 0.263661 0.942812 0.226003
H19   H     H_    0.744973 0.232066 0.888127 0.225930
H20   H     H_    0.542619 0.322952 0.853806 0.190723
H21   H     H_    0.790101 0.348453 0.861097 0.193295
C59   C     C_3   0.340805 0.661206 0.114719 -0.344048
C60   C     C_3   0.294697 0.722868 0.081207 -0.770687
H22   H     H_    0.422244 0.736347 0.057213 0.226013
H23   H     H_    0.170529 0.712013 0.051263 0.226805
H24   H     H_    0.255180 0.767950 0.111883 0.225935
H25   H     H_    0.209916 0.651559 0.138891 0.193292
H26   H     H_    0.457402 0.677046 0.146219 0.190735
S1    S     S_3+6 0.448045 0.486756 0.273359 0.003438
O21   O     O_2   0.465095 0.560469 0.297953 -0.321637
O22   O     O_2   0.253682 0.461534 0.287014 -0.344291
O23   O     O_3   0.619515 0.439346 0.303346 -0.508677
H27   H     H_    0.581863 0.439252 0.343989 0.352558
S2    S     S_3+6 0.551602 0.513222 0.726636 0.003316
O24   O     O_2   0.745806 0.538516 0.712908 -0.344179
O25   O     O_2   0.534695 0.439496 0.702067 -0.321860
O26   O     O_3   0.379864 0.560558 0.696694 -0.508746
H28   H     H_    0.416761 0.560325 0.655957 0.352698

loop_
_geom_bond_atom_site_label_1
_geom_bond_atom_site_label_2
_ccdc_geom_bond_type
C59   H26   S    
C21   H4    S    
C22   H3    S    
C36   C44   A    
C39   C41   A    
C35   C43   A    
S1    O21   D    
O4    C2    A    
V1    O19   S    
C57   C58   S    
C23   C25   A    
C7    C9    S    
C16   C22   A    
C60   H23   S    
O9    V1    S    
C40   C42   A    
C11   C13   S    
C42   C44   A    
O5    V1    S    
O3    C1    A    
C59   H25   S    
C9    C11   T    
C33   C37   A    
C43   C49   A    
C34   C40   A    
O13   V3    S    
S2    O24   D    
C1    C33   S    
C21   C23   A    
C35   C37   A    
O7    C3    A    
C48   C50   A    
C6    C16   S    
O5    C7    A    
O7    V1    S    
O6    C8    A    
C55   C56   T    
O8    V2    S    
O3    V1    S    
C33   C39   A    
C29   H9    S    
O14   V2    S    
C57   H20   S    
C35   H13   S    
C15   C21   A    
C47   H15   S    
C24   C26   A    
C38   S1    S    
C36   H14   S    
C2    O12   A    
C3    C51   S    
C17   C19   A    
C18   C20   A    
C17   C25   A    
C59   C60   S    
C47   C49   A    
O11   V3    S    
C22   C24   A    
C29   C31   A    
O17   V3    S    
C60   H24   S    
C30   C32   A    
C27   C28   A    
S2    O25   D    
O8    C4    A    
C15   C19   A    
C1    O11   A    
C25   C31   A    
O15   V3    S    
C26   C32   A    
C13   C14   T    
C51   C53   T    
C16   C20   A    
C34   C38   A    
O10   V2    S    
O1    V3    S    
S1    O22   D    
C54   C56   S    
C41   C43   A    
C4    C52   S    
C57   H21   S    
C18   C26   A    
O14   V4    S    
C2    C34   S    
C58   H18   S    
C31   H1    S    
C50   C59   S    
O16   C6    A    
O1    C3    A    
C17   H7    S    
O12   V4    S    
C12   C14   S    
C18   H8    S    
C28   C29   A    
V2    O20   S    
O16   V4    S    
C42   C46   A    
C46   C47   A    
C45   C48   A    
C23   C27   A    
O26   H28   S    
O23   H27   S    
C30   H10   S    
C20   H5    S    
O17   C7    A    
C58   H19   S    
O6    V2    S    
C60   H22   S    
O10   C6    A    
O18   C8    A    
C48   H16   S    
S2    O26   S    
O2    V4    S    
C27   C30   A    
O15   C5    A    
V3    O19   S    
V4    O20   S    
C52   C54   T    
C5    C15   S    
O9    C5    A    
O13   V1    S    
C32   H2    S    
C37   S2    S    
S1    O23   S    
C10   C12   T    
C40   H11   S    
O2    C4    A    
C39   H12   S    
C8    C10   S    
C45   C46   A    
O4    V2    S    
C44   C50   A    
C24   C28   A    
C53   C55   S    
C58   H17   S    
C49   C57   S    
C36   C38   A    
C41   C45   A    
C19   H6    S    
O18   V4    S    
