data_mof_unit_16065.cif
_audit_creation_date              2013-03-05T16:47:35-0500
_audit_creation_method            fapswitch 2.2
_symmetry_space_group_name_H-M    P1
_symmetry_Int_Tables_number       1
_space_group_crystal_system       triclinic
_cell_length_a                    18.147107
_cell_length_b                    18.167759
_cell_length_c                    18.312978
_cell_angle_alpha                 119.973287
_cell_angle_beta                  89.924445
_cell_angle_gamma                 119.929692
_cell_volume                      4278.30800167

loop_
_atom_site_label
_atom_site_type_symbol
_atom_site_description
_atom_site_fract_x
_atom_site_fract_y
_atom_site_fract_z
_atom_type_partial_charge
Zn1   Zn    Zn3+2 0.207400 0.586780 0.791530 0.960749
Zn2   Zn    Zn3+2 0.792600 0.413220 0.208470 0.962560
Zn3   Zn    Zn3+2 0.208510 0.413230 0.792630 0.966269
Zn4   Zn    Zn3+2 0.791490 0.586770 0.207370 0.966414
Zn5   Zn    Zn3+2 0.383150 0.586740 0.791530 0.969980
Zn6   Zn    Zn3+2 0.616850 0.413260 0.208470 0.963669
Zn7   Zn    Zn3+2 0.207400 0.413250 0.618010 0.963820
Zn8   Zn    Zn3+2 0.792600 0.586750 0.381990 0.961239
O1    O     O_3   0.251620 0.500000 0.748430 -0.481330
O2    O     O_3   0.748380 0.500000 0.251570 -0.479996
O3    O     O_R   0.134680 0.268390 0.572240 -0.645054
O4    O     O_R   0.865320 0.731610 0.427760 -0.645634
O5    O     O_R   0.306670 0.731630 0.863510 -0.642105
O6    O     O_R   0.693330 0.268370 0.136490 -0.646538
O7    O     O_R   0.135450 0.439270 0.865360 -0.646406
O8    O     O_R   0.864550 0.560730 0.134640 -0.647522
O9    O     O_R   0.429670 0.560710 0.692610 -0.634423
O10   O     O_R   0.570330 0.439290 0.307390 -0.635956
O11   O     O_R   0.308540 0.439240 0.865360 -0.647821
O12   O     O_R   0.691460 0.560760 0.134640 -0.647734
O13   O     O_R   0.133580 0.439310 0.571150 -0.638942
O14   O     O_R   0.866420 0.560690 0.428850 -0.641604
O15   O     O_R   0.430770 0.560690 0.864590 -0.633478
O16   O     O_R   0.569230 0.439310 0.135410 -0.635910
O17   O     O_R   0.133580 0.560760 0.692610 -0.649762
O18   O     O_R   0.866420 0.439240 0.307390 -0.645761
O19   O     O_R   0.134680 0.560740 0.864590 -0.634032
O20   O     O_R   0.865320 0.439260 0.135410 -0.633204
O21   O     O_R   0.306670 0.439270 0.571150 -0.645040
O22   O     O_R   0.693330 0.560730 0.428850 -0.647204
O23   O     O_R   0.135450 0.268370 0.694460 -0.634518
O24   O     O_R   0.864550 0.731630 0.305540 -0.635126
O25   O     O_R   0.429670 0.731610 0.863510 -0.637583
O26   O     O_R   0.570330 0.268390 0.136490 -0.642192
C1    C     C_R   0.112219 0.220059 0.609761 0.786913
C2    C     C_R   0.887778 0.779939 0.390243 0.787722
C3    C     C_R   0.392734 0.780989 0.888288 0.770679
C4    C     C_R   0.607230 0.218959 0.112136 0.778377
C5    C     C_R   0.109509 0.499482 0.888382 0.790818
C6    C     C_R   0.889789 0.499860 0.110950 0.794460
C7    C     C_R   0.392298 0.499961 0.607679 0.773309
C8    C     C_R   0.607712 0.500033 0.392330 0.775760
C9    C     C_R   0.394017 0.501375 0.889901 0.798410
C10   C     C_R   0.606067 0.500001 0.111361 0.799090
C11   C     C_R   0.108968 0.500097 0.607663 0.779813
C12   C     C_R   0.890726 0.499566 0.392260 0.783347
C13   C     C_3   0.021232 0.433710 0.447470 -0.189127
C14   C     C_3   0.977863 0.565029 0.552081 -0.186274
C15   C     C_3   0.044194 0.530057 0.450703 -0.233525
C16   C     C_3   0.954882 0.468639 0.548770 -0.238499
H1    H     H_    0.080186 0.555852 0.410328 0.136500
H2    H     H_    0.918719 0.442467 0.588869 0.132483
H3    H     H_    0.039714 0.379992 0.405532 0.150153
H4    H     H_    0.959869 0.619105 0.594521 0.147940
C17   C     C_3   0.947955 0.499175 0.449142 -0.028571
C18   C     C_3   0.051178 0.499694 0.550454 -0.027979
C19   C     C_3   0.925006 0.403889 0.445766 0.227296
C20   C     C_3   0.074009 0.594803 0.553646 0.227093
C21   C     C_3   0.412003 0.963072 0.980694 -0.173387
C22   C     C_3   0.587676 0.036397 0.020523 -0.164328
C23   C     C_3   0.483320 0.036241 0.958767 -0.229525
C24   C     C_3   0.516320 0.963424 0.042400 -0.272825
H5    H     H_    0.470175 0.066641 0.924546 0.137672
H6    H     H_    0.529285 0.932754 0.076441 0.137822
H7    H     H_    0.339504 0.931804 0.964146 0.156207
H8    H     H_    0.660025 0.066626 0.036615 0.154287
C25   C     C_3   0.549824 0.102816 0.053611 -0.011908
C26   C     C_3   0.450018 0.897036 0.947669 -0.037726
C27   C     C_3   0.479305 0.030745 0.075374 0.229250
C28   C     C_3   0.520386 0.969081 0.925974 0.213151
C29   C     C_3   0.413182 0.431063 0.447982 -0.108469
C30   C     C_3   0.586899 0.568975 0.552104 -0.102741
C31   C     C_3   0.482134 0.404663 0.447648 -0.170810
C32   C     C_3   0.517933 0.595359 0.552420 -0.160524
H9    H     H_    0.468432 0.326507 0.403526 0.138159
H10   H     H_    0.531624 0.673511 0.596517 0.146855
H11   H     H_    0.340955 0.374599 0.406402 0.194923
H12   H     H_    0.659085 0.625509 0.593977 0.184348
C33   C     C_3   0.550951 0.500229 0.449547 0.040627
C34   C     C_3   0.449114 0.499794 0.550515 0.039275
C35   C     C_3   0.482911 0.526667 0.449052 -0.194233
C36   C     C_3   0.517149 0.473356 0.551017 -0.193644
H13   H     H_    0.469797 0.548249 0.406049 0.134439
H14   H     H_    0.530242 0.451761 0.594016 0.132640
H15   H     H_    0.211083 0.217578 0.928632 0.141161
H16   H     H_    0.785898 0.790644 0.075283 0.140783
C37   C     C_R   0.227223 0.186053 0.801799 -0.129680
C38   C     C_R   0.771124 0.818324 0.201584 -0.132517
H17   H     H_    0.298568 0.220831 0.824609 0.124733
H18   H     H_    0.699954 0.784894 0.180173 0.126350
C39   C     C_R   0.184359 0.143146 0.713711 -0.114108
C40   C     C_R   0.814663 0.858441 0.288453 -0.114971
H19   H     H_    0.222982 0.144910 0.668739 0.103102
H20   H     H_    0.776770 0.856089 0.333930 0.103500
C41   C     C_R   0.091793 0.097978 0.683952 0.146784
C42   C     C_R   0.907102 0.902378 0.316596 0.148691
C43   C     C_R   0.042640 0.095523 0.742984 -0.129726
C44   C     C_R   0.955364 0.905958 0.257030 -0.128160
H21   H     H_    0.971107 0.060429 0.720811 0.135995
H22   H     H_    0.026843 0.940355 0.278029 0.133958
C45   C     C_R   0.085839 0.138965 0.831074 -0.120037
C46   C     C_R   0.911457 0.865164 0.170091 -0.119609
H23   H     H_    0.047845 0.137468 0.876541 0.147434
H24   H     H_    0.948815 0.867761 0.124277 0.146777
C47   C     C_R   0.177998 0.184119 0.860434 -0.121150
C48   C     C_R   0.819498 0.821652 0.142471 -0.127939
C49   C     C_R   0.987994 0.943316 0.534833 -0.251978
C50   C     C_R   0.012214 0.056675 0.465189 -0.251574
H25   H     H_    0.980144 0.899629 0.561942 0.176553
H26   H     H_    0.019956 0.100393 0.438142 0.177975
C51   C     C_R   0.943045 0.892283 0.445083 -0.051936
C52   C     C_R   0.057077 0.107707 0.554936 -0.051965
C53   C     C_R   0.954656 0.949571 0.409695 -0.014670
C54   C     C_R   0.045358 0.050439 0.590377 -0.013881
C55   C     C_R   0.663803 0.663420 0.837703 -0.215205
C56   C     C_R   0.333668 0.363466 0.178179 -0.222854
H27   H     H_    0.682277 0.634448 0.778435 0.165641
H28   H     H_    0.317362 0.398038 0.237735 0.165621
C57   C     C_R   0.622040 0.600188 0.867685 -0.220141
C58   C     C_R   0.383595 0.423914 0.147752 -0.221536
H29   H     H_    0.608494 0.523597 0.831055 0.137714
H30   H     H_    0.405006 0.503800 0.184061 0.137251
C59   C     C_R   0.595620 0.634564 0.943099 0.159990
C60   C     C_R   0.405372 0.381283 0.070602 0.167746
C61   C     C_R   0.613294 0.733805 0.989597 -0.194296
C62   C     C_R   0.377167 0.277776 0.024282 -0.189530
H31   H     H_    0.593047 0.761174 0.047909 0.128416
H32   H     H_    0.393551 0.243947 0.964518 0.131327
C63   C     C_R   0.654837 0.796982 0.959581 -0.214591
C64   C     C_R   0.327378 0.217343 0.054711 -0.230874
H33   H     H_    0.666402 0.872556 0.995813 0.167249
H34   H     H_    0.306585 0.137807 0.017881 0.165394
C65   C     C_R   0.679971 0.762169 0.882882 0.401795
C66   C     C_R   0.304293 0.259176 0.131512 0.401320
C67   C     C_R   0.593525 0.558865 0.022551 -0.282632
C68   C     C_R   0.407258 0.448385 0.983659 -0.282411
H35   H     H_    0.665875 0.601595 0.037016 0.182779
H36   H     H_    0.334896 0.405889 0.969251 0.181564
C69   C     C_R   0.550325 0.499910 0.056048 -0.048014
C70   C     C_R   0.450234 0.505785 0.948941 -0.047649
C71   C     C_R   0.456079 0.444414 0.037066 -0.004603
C72   C     C_R   0.544902 0.564713 0.970843 -0.000894
C73   C     C_R   0.097498 0.796320 0.967100 -0.152464
C74   C     C_R   0.885624 0.214429 0.053767 -0.114906
H37   H     H_    0.137022 0.879624 0.016047 0.183018
H38   H     H_    0.829806 0.133372 0.014631 0.177257
C75   C     C_R   0.082448 0.732792 0.995225 -0.214561
C76   C     C_R   0.898070 0.271857 0.019375 -0.182877
H39   H     H_    0.111119 0.768024 0.065234 0.143771
H40   H     H_    0.851886 0.234332 0.955426 0.134469
C77   C     C_R   0.030936 0.624479 0.933453 0.152166
C78   C     C_R   0.969152 0.377422 0.067676 0.154874
C79   C     C_R   0.992771 0.580327 0.843347 -0.129459
C80   C     C_R   0.028343 0.424913 0.150280 -0.165726
H41   H     H_    0.951615 0.496768 0.795069 0.111918
H42   H     H_    0.083554 0.506447 0.188262 0.123044
C81   C     C_R   0.009101 0.644048 0.814940 -0.158395
C82   C     C_R   0.016369 0.367505 0.184476 -0.193171
H43   H     H_    0.980151 0.608616 0.745007 0.121387
H44   H     H_    0.062934 0.405705 0.248468 0.125733
C83   C     C_R   0.062048 0.752630 0.876509 0.241890
C84   C     C_R   0.944943 0.261788 0.137000 0.252086
C85   C     C_R   0.963024 0.556680 0.019929 -0.263003
C86   C     C_R   0.032961 0.439390 0.976369 -0.257493
H45   H     H_    0.935578 0.601952 0.036140 0.176204
H46   H     H_    0.060637 0.394416 0.960695 0.176724
C87   C     C_R   0.945747 0.498017 0.053983 -0.058879
C88   C     C_R   0.050967 0.498814 0.942843 -0.060294
C89   C     C_R   0.981397 0.438661 0.032090 -0.001001
C90   C     C_R   0.014989 0.558045 0.964516 0.002836
N1    N     N_R   0.720744 0.826096 0.850622 0.194435
O27   O     O_R   0.747042 0.795674 0.781619 -0.432555
O28   O     O_R   0.730581 0.914544 0.888984 -0.461107
N2    N     N_R   0.250393 0.195886 0.161114 0.197629
O29   O     O_R   0.229990 0.234844 0.232804 -0.439338
O30   O     O_R   0.217998 0.097614 0.114622 -0.458328
C91   C     C_3   0.078743 0.821405 0.846166 -0.411826
C92   C     C_3   0.179023 0.894808 0.864742 -0.866494
H47   H     H_    0.215129 0.952030 0.937691 0.262150
H48   H     H_    0.209007 0.850681 0.835725 0.257831
H49   H     H_    0.188317 0.937722 0.834784 0.254720
H50   H     H_    0.043091 0.773851 0.773343 0.199656
H51   H     H_    0.051777 0.867805 0.881557 0.226206
C93   C     C_3   0.936616 0.204203 0.177841 -0.435042
C94   C     C_3   0.852547 0.092669 0.128264 -0.859952
H52   H     H_    0.790685 0.090944 0.122789 0.249365
H53   H     H_    0.853240 0.043431 0.060841 0.289645
H54   H     H_    0.851574 0.059819 0.165947 0.256882
H55   H     H_    0.997076 0.203078 0.182312 0.229859
H56   H     H_    0.936546 0.248191 0.246938 0.209320
C95   C     C_3   0.837913 0.295337 0.383337 -0.430491
C96   C     C_3   0.839073 0.215724 0.390375 -0.868695
H57   H     H_    0.895043 0.210471 0.370569 0.262940
H58   H     H_    0.847318 0.237616 0.459821 0.255783
H59   H     H_    0.774537 0.138206 0.345023 0.248561
H60   H     H_    0.780083 0.297432 0.400964 0.194114
H61   H     H_    0.828973 0.271772 0.313431 0.222085
C97   C     C_3   0.160749 0.703323 0.616246 -0.425026
C98   C     C_3   0.159347 0.783127 0.609784 -0.867557
H62   H     H_    0.150868 0.761548 0.540419 0.255624
H63   H     H_    0.103440 0.788249 0.629984 0.263044
H64   H     H_    0.223890 0.860624 0.655178 0.247805
H65   H     H_    0.168776 0.725811 0.685676 0.223291
H66   H     H_    0.218881 0.701776 0.598963 0.192646
C99   C     C_3   0.456738 0.064351 0.162087 -0.480140
C100  C     C_3   0.394290 0.098198 0.164745 -0.757306
H67   H     H_    0.423693 0.161612 0.155249 0.282041
H68   H     H_    0.327908 0.031430 0.111748 0.261835
H69   H     H_    0.383513 0.126650 0.230481 0.248270
H70   H     H_    0.423076 0.998045 0.168084 0.209231
H71   H     H_    0.520213 0.129204 0.219633 0.195175
C101  C     C_3   0.543038 0.931654 0.839692 -0.399366
C102  C     C_3   0.619335 0.022595 0.840972 -0.828291
H72   H     H_    0.600152 0.074787 0.848857 0.239984
H73   H     H_    0.681502 0.067475 0.896722 0.264982
H74   H     H_    0.633591 0.992780 0.777159 0.254001
H75   H     H_    0.563347 0.880198 0.831308 0.251503
H76   H     H_    0.482079 0.886117 0.782303 0.181735

loop_
_geom_bond_atom_site_label_1
_geom_bond_atom_site_label_2
_geom_bond_distance
_ccdc_geom_bond_type
C23   C28   1.545181 S    
C14   C17   1.542996 S    
C82   H44   1.083417 S    
N1    O27   1.301465 A    
C60   C71   1.479383 S    
Zn7   O21   1.938202 S    
C37   C39   1.398843 A    
C98   H63   1.110679 S    
C28   C101  1.526980 S    
C64   H34   1.080763 S    
C16   H2    1.110060 S    
C74   C76   1.399039 A    
Zn6   O26   1.922669 S    
C7    C34   1.468348 S    
C52   C54   1.415110 A    
C92   H47   1.108899 S    
C86   H46   1.084895 S    
C87   C89   1.416219 A    
H16   C48   1.081511 S    
C102  H72   1.110662 S    
C14   H4    1.110123 S    
N1    O28   1.301405 A    
C77   C90   1.483626 S    
C32   H10   1.110255 S    
O24   C2    1.275285 A    
C22   C24   1.552807 S    
C85   H45   1.084946 S    
C76   H40   1.083207 S    
C19   C95   1.528376 S    
C30   C33   1.535973 S    
O10   C8    1.279917 A    
C100  H68   1.110455 S    
C88   C90   1.419664 A    
C94   H53   1.110166 S    
Zn5   O9    1.938116 S    
C101  H75   1.110661 S    
O20   C6    1.270568 A    
C41   C54   1.480308 S    
C91   H50   1.112110 S    
C3    C26   1.494425 S    
C40   C42   1.404210 A    
O15   C9    1.265720 A    
C93   C94   1.529174 S    
C73   H37   1.082325 S    
C5    C88   1.455976 S    
C23   H5    1.110133 S    
C85   C90   1.385252 A    
N2    O29   1.301305 A    
C6    C87   1.454962 S    
C24   H6    1.110266 S    
C35   H13   1.110278 S    
C95   H60   1.110713 S    
C67   C72   1.372164 A    
C38   C40   1.398713 A    
C11   C18   1.478180 S    
O19   C5    1.270352 A    
C15   H1    1.110159 S    
C42   C44   1.404535 A    
C12   C17   1.476922 S    
C98   H64   1.110300 S    
C30   H12   1.109976 S    
Zn3   O11   1.952933 S    
C97   C98   1.524798 S    
O4    C2    1.286080 A    
O5    C3    1.283363 A    
C37   C47   1.398584 A    
C68   C70   1.396267 A    
C13   H3    1.109864 S    
O21   C7    1.278240 A    
C27   C99   1.530098 S    
C14   C16   1.552259 S    
C22   H8    1.109955 S    
C8    C33   1.468320 S    
C81   H43   1.082172 S    
C32   C34   1.533365 S    
Zn1   O17   1.954092 S    
C49   H25   1.085064 S    
C86   C89   1.384079 A    
C64   C66   1.406887 A    
C80   H42   1.083150 S    
C29   C34   1.535606 S    
C43   H21   1.083185 S    
O11   C9    1.276717 A    
Zn7   O3    1.924432 S    
O13   C11   1.272711 A    
C57   H29   1.083095 S    
C45   C47   1.397016 A    
Zn6   O10   1.938113 S    
C21   C23   1.555160 S    
C95   C96   1.525031 S    
C96   H59   1.110292 S    
C76   C78   1.401381 A    
C86   C88   1.399650 A    
Zn1   O1    1.941649 S    
C22   C25   1.546136 S    
C30   C32   1.546616 S    
C56   H28   1.082453 S    
C29   C31   1.546499 S    
C82   C84   1.405391 A    
C100  H67   1.108497 S    
C94   H54   1.110718 S    
C55   C65   1.407644 A    
C55   H27   1.082490 S    
C91   H51   1.111325 S    
C16   C18   1.540102 S    
C15   C20   1.543447 S    
C56   C58   1.398091 A    
C24   C27   1.546777 S    
Zn5   O25   1.922667 S    
C25   C27   1.535900 S    
C96   H58   1.110709 S    
C50   C53   1.381622 A    
Zn4   O8    1.935779 S    
C85   C87   1.397588 A    
C49   C54   1.381696 A    
Zn5   O1    1.952514 S    
C68   C71   1.372335 A    
Zn3   O1    1.948069 S    
C61   H31   1.083185 S    
C44   C46   1.397857 A    
C21   C26   1.542981 S    
C39   H19   1.083041 S    
C74   H38   1.080346 S    
C38   C48   1.398606 A    
C23   C25   1.544670 S    
Zn8   O14   1.948600 S    
Zn5   O15   1.950572 S    
C22   C28   1.544130 S    
Zn8   O4    1.924431 S    
Zn6   O16   1.950572 S    
Zn7   O1    1.952970 S    
C2    C51   1.446422 S    
C40   H20   1.083053 S    
C31   C33   1.533444 S    
C74   C84   1.411419 A    
C9    C70   1.432108 S    
C51   C53   1.415066 A    
N2    O30   1.301230 A    
C4    C25   1.495353 S    
C56   C66   1.407077 A    
C46   H24   1.082526 S    
O7    C5    1.283954 A    
Zn4   O24   1.926911 S    
O8    C6    1.283143 A    
C63   C65   1.406920 A    
C68   H36   1.084332 S    
O14   C12   1.273283 A    
C97   H65   1.107623 S    
C78   C80   1.400689 A    
O12   C10   1.275226 A    
C10   C69   1.431321 S    
C36   H14   1.110255 S    
C17   C19   1.532244 S    
C97   H66   1.110696 S    
O16   C10   1.267098 A    
O23   C1    1.275207 A    
C42   C53   1.480393 S    
C79   H41   1.083193 S    
C31   H9    1.110287 S    
C32   C35   1.547878 S    
Zn4   O2    1.948066 S    
O6    C4    1.283835 A    
Zn2   O2    1.941652 S    
C81   C83   1.405355 A    
C31   C36   1.547888 S    
C29   H11   1.109304 S    
Zn3   O7    1.935781 S    
C62   H32   1.083205 S    
C58   H30   1.083138 S    
C60   C62   1.401632 A    
C45   H23   1.082484 S    
C102  H74   1.110183 S    
C50   C52   1.396908 A    
C67   H35   1.083971 S    
C99   C100  1.526469 S    
C20   C97   1.525976 S    
O17   C11   1.277363 A    
C66   N2    1.439407 S    
C75   H39   1.083319 S    
O26   C4    1.285643 A    
C16   C19   1.544354 S    
C49   C51   1.397349 A    
Zn8   O2    1.952970 S    
C95   H61   1.109997 S    
C38   H18   1.082262 S    
C15   C17   1.540145 S    
Zn2   O18   1.954090 S    
Zn6   O2    1.952512 S    
C92   H48   1.109050 S    
C14   C20   1.542890 S    
C41   C43   1.404365 A    
C80   C82   1.397592 A    
C70   C72   1.412743 A    
C57   C59   1.400881 A    
C13   C15   1.552341 S    
C84   C93   1.516742 S    
C67   C69   1.398358 A    
C33   C35   1.533467 S    
C24   C26   1.542293 S    
Zn8   O22   1.938203 S    
C96   H57   1.110625 S    
O3    C1    1.286177 A    
C65   N1    1.439541 S    
C102  H73   1.110512 S    
C73   C75   1.396780 A    
Zn7   O13   1.948601 S    
C21   H7    1.108484 S    
Zn3   O23   1.926911 S    
C78   C89   1.479599 S    
C69   C71   1.411780 A    
C100  H69   1.110453 S    
C94   H52   1.110573 S    
C21   C27   1.544896 S    
C50   H26   1.085110 S    
C101  H76   1.110747 S    
C99   H70   1.110870 S    
C30   C36   1.546495 S    
C75   C77   1.403122 A    
C59   C72   1.480933 S    
C55   C57   1.398540 A    
C34   C36   1.533393 S    
C18   C20   1.531511 S    
O25   C3    1.285488 A    
C46   C48   1.397110 A    
C93   H56   1.109238 S    
C77   C79   1.404293 A    
C99   H71   1.110804 S    
C79   C81   1.399168 A    
Zn2   O6    1.928128 S    
C44   H22   1.083180 S    
O9    C7    1.279764 A    
C92   H49   1.110500 S    
C59   C61   1.402987 A    
O18   C12   1.276223 A    
C39   C41   1.404345 A    
Zn4   O12   1.952935 S    
C61   C63   1.397770 A    
C98   H62   1.110711 S    
Zn1   O5    1.928128 S    
C101  C102  1.525122 S    
C26   C28   1.533666 S    
C91   C92   1.527239 S    
C13   C19   1.543692 S    
Zn1   O19   1.939127 S    
C37   H17   1.082298 S    
C62   C64   1.397300 A    
C93   H55   1.111399 S    
O22   C8    1.278079 A    
Zn2   O20   1.939129 S    
H15   C47   1.081200 S    
C63   H33   1.082601 S    
C83   C91   1.509073 S    
C73   C83   1.404874 A    
C43   C45   1.397719 A    
C1    C52   1.446569 S    
C58   C60   1.400976 A    
C13   C18   1.543640 S    
C29   C35   1.546385 S    
