data_mof_unit_22142.cif
_audit_creation_date              2012-12-10T17:43:40-0500
_audit_creation_method            fapswitch 2.2
_symmetry_space_group_name_H-M    P1
_symmetry_Int_Tables_number       1
_space_group_crystal_system       triclinic
_cell_length_a                    15.007115
_cell_length_b                    10.686359
_cell_length_c                    9.874919
_cell_angle_alpha                 88.982605
_cell_angle_beta                  89.991205
_cell_angle_gamma                 91.721011
_cell_volume                      1582.6904791

loop_
_atom_site_label
_atom_site_type_symbol
_atom_type_description
_atom_site_fract_x
_atom_site_fract_y
_atom_site_fract_z
_atom_type_partial_charge
C1    C     C_R   0.504162 0.259240 0.502125 0.861541
C2    C     C_R   0.184824 0.492869 0.376928 -0.263864
C3    C     C_R   0.230686 0.496773 0.500174 -0.079724
C4    C     C_R   0.326618 0.498991 0.500055 0.867939
C5    C     C_R   0.184924 0.498336 0.623534 -0.246333
C6    C     C_R   0.507220 0.101170 0.761263 -0.172836
C7    C     C_R   0.477170 0.035646 0.876605 -0.258673
C8    C     C_R   0.426934 0.925204 0.863585 -0.143573
C9    C     C_R   0.413750 0.873365 0.736147 0.474695
C10   C     C_R   0.455741 0.931759 0.620404 -0.036832
C11   C     C_R   0.489059 0.054943 0.630076 0.061574
C12   C     C_R   0.907348 0.498308 0.624425 0.119996
C13   C     C_R   0.503563 0.124313 0.507132 -0.094072
C14   C     C_R   0.503080 0.064082 0.382503 -0.217823
C15   C     C_R   0.490846 0.937002 0.378492 -0.202226
C16   C     C_R   0.489157 0.738360 0.499097 0.891895
C17   C     C_R   0.471973 0.869868 0.497886 -0.141446
C18   C     C_R   0.381551 0.337369 0.143209 -0.175771
C19   C     C_R   0.322907 0.258112 0.074050 -0.215709
C20   C     C_R   0.322948 0.258394 0.933928 -0.186036
C21   C     C_R   0.381831 0.337660 0.862253 -0.159347
C22   C     C_R   0.441682 0.419920 0.928988 0.165676
C23   C     C_R   0.953637 0.489777 0.253091 -0.219023
C24   C     C_R   0.441638 0.419893 0.073816 0.169061
C25   C     C_R   0.555578 0.576923 0.070126 -0.135470
C26   C     C_R   0.555542 0.576904 0.926750 -0.100241
C27   C     C_R   0.673405 0.499982 0.499984 0.901212
C28   C     C_R   0.815209 0.499911 0.623401 -0.260088
C29   C     C_R   0.769357 0.498417 0.500051 -0.077561
C30   C     C_R   0.815131 0.494791 0.376815 -0.259297
C31   C     C_R   0.907269 0.493099 0.375968 0.119363
C32   C     C_R   0.953644 0.495128 0.500229 0.061561
C33   C     C_R   0.046205 0.489140 0.253127 -0.215234
C34   C     C_R   0.092651 0.491949 0.376035 0.118738
C35   C     C_R   0.046346 0.494586 0.500267 0.060272
C36   C     C_R   0.092743 0.497333 0.624502 0.113289
C37   C     C_R   0.046370 0.499721 0.747415 -0.210649
C38   C     C_R   0.953795 0.500219 0.747376 -0.219477
H1    H     H_    0.779415 0.502582 0.718693 0.160109
H2    H     H_    0.379204 0.330523 0.755037 0.206331
H3    H     H_    0.779272 0.493351 0.281466 0.161441
H4    H     H_    0.600826 0.639682 0.871388 0.144790
H5    H     H_    0.918382 0.488041 0.157312 0.141126
H6    H     H_    0.081422 0.486939 0.157382 0.146363
H7    H     H_    0.220636 0.491002 0.281591 0.170330
H8    H     H_    0.220823 0.500909 0.718836 0.181989
H9    H     H_    0.081648 0.501624 0.843179 0.147383
H10   H     H_    0.918595 0.502474 0.843123 0.140856
H11   H     H_    0.514842 0.114472 0.287646 0.169343
H12   H     H_    0.547714 0.184572 0.777918 0.181744
H13   H     H_    0.335391 0.763655 0.633076 0.317635
H14   H     H_    0.490321 0.072978 0.976104 0.167384
H15   H     H_    0.398332 0.879363 0.952829 0.158974
H16   H     H_    0.499557 0.891227 0.282521 0.168188
H17   H     H_    0.600908 0.639669 0.123009 0.145052
H18   H     H_    0.377633 0.330852 0.250595 0.209366
H19   H     H_    0.277414 0.195723 0.129721 0.157145
H20   H     H_    0.277764 0.195886 0.880255 0.158647
N1    N     N_R   0.499150 0.498800 0.142780 -0.121174
N2    N     N_R   0.499120 0.498720 0.857170 -0.114664
O1    O     O_R   0.500000 0.316780 0.614690 -0.656848
O2    O     O_R   0.499990 0.316750 0.385360 -0.640574
O3    O     O_R   0.367850 0.499980 0.614680 -0.620926
O4    O     O_R   0.367840 0.499960 0.385350 -0.646438
O5    O     O_R   0.500010 0.683250 0.614640 -0.583839
O6    O     O_R   0.500000 0.683220 0.385310 -0.624040
O7    O     O_R   0.632160 0.500040 0.614650 -0.630093
O8    O     O_R   0.632150 0.500020 0.385320 -0.622570
O9    O     O_3   0.356297 0.770484 0.727927 -0.753639
Zn1   Zn    Zn3+2 0.500010 0.500020 0.653130 0.952976
Zn2   Zn    Zn3+2 0.499990 0.499980 0.346870 0.932133

loop_
_geom_bond_atom_site_label_1
_geom_bond_atom_site_label_2
_ccdc_geom_bond_type
C8    H15   S    
O1    Zn1   S    
C15   H16   S    
C30   H3    S    
C6    C7    A    
C27   O8    A    
N2    Zn1   S    
C27   C29   S    
H13   O9    S    
C9    C10   A    
C4    O4    A    
C32   C35   A    
C38   H10   S    
C31   C32   A    
O3    Zn1   S    
C18   H18   S    
O7    Zn1   S    
C1    O2    A    
C2    C34   A    
C19   C20   A    
C37   H9    S    
C23   H5    S    
C7    C8    A    
O2    Zn2   S    
C27   O7    A    
C21   C22   A    
C19   H19   S    
C12   C38   A    
C11   C13   A    
C4    O3    A    
C29   C30   A    
C21   H2    S    
C12   C28   A    
C24   N1    A    
C18   C24   A    
C28   C29   A    
C37   C38   A    
C9    O9    S    
C7    H14   S    
C2    C3    A    
C6    H12   S    
O8    Zn2   S    
C2    H7    S    
C22   N2    A    
C30   C31   A    
C22   C24   A    
C23   C31   A    
C14   H11   S    
C1    C13   S    
C10   C11   A    
C10   C17   A    
C20   H20   S    
O5    Zn1   S    
C5    C36   A    
C25   H17   S    
C33   C34   A    
C20   C21   A    
C26   H4    S    
C34   C35   A    
C5    H8    S    
O4    Zn2   S    
C6    C11   A    
C15   C17   A    
C18   C19   A    
C14   C15   A    
C36   C37   A    
C16   O6    A    
C16   O5    A    
C25   N1    A    
C28   H1    S    
C3    C5    A    
C25   C26   A    
C13   C14   A    
C33   H6    S    
C26   N2    A    
C12   C32   A    
C3    C4    S    
O6    Zn2   S    
C16   C17   S    
N1    Zn2   S    
C8    C9    A    
C23   C33   A    
C35   C36   A    
C1    O1    A    
