data_mof_unit_51509.cif
_audit_creation_date              2012-12-11T15:07:37-0500
_audit_creation_method            fapswitch 2.2
_symmetry_space_group_name_H-M    P1
_symmetry_Int_Tables_number       1
_space_group_crystal_system       triclinic
_cell_length_a                    21.521226
_cell_length_b                    7.207036
_cell_length_c                    18.659633
_cell_angle_alpha                 90.004392
_cell_angle_beta                  96.079017
_cell_angle_gamma                 89.979568
_cell_volume                      2877.91358846

loop_
_atom_site_label
_atom_site_type_symbol
_atom_type_description
_atom_site_fract_x
_atom_site_fract_y
_atom_site_fract_z
_atom_type_partial_charge
O1    O     O_R   0.449650 0.506500 0.414480 -0.531017
O2    O     O_R   0.550350 0.006500 0.585520 -0.530487
O3    O     O_R   0.432010 0.173150 0.560250 -0.536599
O4    O     O_R   0.567990 0.673150 0.439750 -0.536283
C1    C     C_R   0.415811 0.344664 0.580632 0.690925
C2    C     C_R   0.584192 0.844631 0.419371 0.690147
O5    O     O_R   0.442320 0.176650 0.413480 -0.538597
O6    O     O_R   0.557680 0.676650 0.586520 -0.539267
O7    O     O_R   0.560730 0.008380 0.437700 -0.529718
O8    O     O_R   0.439270 0.508380 0.562300 -0.530068
C3    C     C_R   0.428647 0.344498 0.387378 0.746494
C4    C     C_R   0.571341 0.844466 0.612643 0.743908
O9    O     O_3   0.538840 0.339860 0.508120 -0.375992
O10   O     O_3   0.461160 0.839860 0.491880 -0.376308
V1    V     V_3+5 0.492800 0.064220 0.498490 1.477965
V2    V     V_3+5 0.507200 0.564220 0.501510 1.476758
C5    C     C_R   0.868560 0.022092 0.691123 -0.207233
C6    C     C_R   0.131272 0.519728 0.309057 -0.207159
H1    H     H_    0.782080 0.060481 0.580525 0.123961
H2    H     H_    0.217647 0.557339 0.419783 0.124085
H3    H     H_    0.885125 0.071835 0.641695 0.158959
H4    H     H_    0.114623 0.568295 0.358612 0.159298
C7    C     C_R   0.888259 0.944943 0.817947 -0.138049
C8    C     C_R   0.111744 0.444718 0.182032 -0.137860
C9    C     C_R   0.587480 0.762135 0.742819 -0.089656
C10   C     C_R   0.412720 0.263219 0.257086 -0.085363
C11   C     C_R   0.628290 0.714309 0.803105 -0.227257
C12   C     C_R   0.372033 0.216384 0.196576 -0.231738
C13   C     C_R   0.692441 0.747385 0.806308 0.429703
C14   C     C_R   0.307855 0.249284 0.193292 0.429642
C15   C     C_R   0.717462 0.850440 0.750830 -0.023928
C16   C     C_R   0.282652 0.351029 0.249013 -0.023677
C17   C     C_R   0.676400 0.889913 0.686826 -0.003068
C18   C     C_R   0.323608 0.389699 0.313172 -0.004265
C19   C     C_R   0.782192 0.905450 0.754253 0.092803
C20   C     C_R   0.217851 0.405449 0.245670 0.093181
C21   C     C_R   0.805177 0.976445 0.691276 0.111023
C22   C     C_R   0.194727 0.474971 0.308814 0.111003
C23   C     C_R   0.764757 0.004599 0.628563 -0.187626
C24   C     C_R   0.235072 0.502508 0.371622 -0.187206
C25   C     C_R   0.701450 0.966223 0.626772 -0.164860
C26   C     C_R   0.298426 0.464799 0.373373 -0.164723
C27   C     C_R   0.824601 0.899915 0.818151 -0.227267
C28   C     C_R   0.175478 0.400628 0.181738 -0.227991
C29   C     C_R   0.910845 0.004368 0.753270 -0.014761
C30   C     C_R   0.089023 0.502550 0.246854 -0.014785
C31   C     C_R   0.611570 0.844026 0.682622 -0.152318
C32   C     C_R   0.388478 0.344210 0.317376 -0.152549
H5    H     H_    0.808998 0.872957 0.870072 0.172065
H6    H     H_    0.191132 0.374846 0.129754 0.171449
H7    H     H_    0.610677 0.642404 0.847796 0.175924
H8    H     H_    0.389761 0.145410 0.151734 0.175360
H9    H     H_    0.672401 0.994782 0.577048 0.108468
H10   H     H_    0.327403 0.492803 0.423196 0.107898
C33   C     C_R   0.643627 0.711838 0.321989 -0.184463
C34   C     C_R   0.356394 0.211505 0.677875 -0.170493
C35   C     C_R   0.634200 0.856699 0.370248 -0.103198
C36   C     C_R   0.365832 0.356655 0.629806 -0.111692
C37   C     C_R   0.671377 0.017445 0.369742 -0.172303
C38   C     C_R   0.328645 0.517228 0.630450 -0.170867
C39   C     C_R   0.717441 0.034019 0.322206 0.130326
C40   C     C_R   0.282593 0.533397 0.677983 0.129486
C41   C     C_R   0.726221 0.889001 0.273454 -0.012718
C42   C     C_R   0.273854 0.388165 0.726719 -0.023710
C43   C     C_R   0.688920 0.727221 0.272900 -0.015152
C44   C     C_R   0.311060 0.225977 0.727087 -0.004675
C45   C     C_R   0.754762 0.193874 0.322412 -0.116047
C46   C     C_R   0.245180 0.693122 0.677676 -0.115870
C47   C     C_R   0.800031 0.211314 0.274231 -0.163729
C48   C     C_R   0.199982 0.710719 0.725882 -0.173199
C49   C     C_R   0.809098 0.068809 0.225173 0.103832
C50   C     C_R   0.191024 0.568372 0.774984 0.093177
C51   C     C_R   0.772291 0.906397 0.225080 0.053002
C52   C     C_R   0.227820 0.405764 0.775030 0.045419
C53   C     C_R   0.781795 0.761041 0.176959 0.023872
C54   C     C_R   0.218116 0.260269 0.822841 0.034740
C55   C     C_R   0.744463 0.601554 0.176321 -0.276722
C56   C     C_R   0.255004 0.099840 0.823146 -0.299891
C57   C     C_R   0.697079 0.585647 0.222427 0.444372
C58   C     C_R   0.303032 0.082570 0.777036 0.457678
C59   C     C_R   0.854681 0.085150 0.176733 -0.214535
C60   C     C_R   0.145467 0.584997 0.823428 -0.217189
C61   C     C_R   0.865190 0.939059 0.129399 -0.080962
C62   C     C_R   0.134821 0.438824 0.870602 -0.082664
C63   C     C_R   0.828467 0.777337 0.130135 -0.148308
C64   C     C_R   0.171360 0.276739 0.869620 -0.148966
H11   H     H_    0.614609 0.589012 0.321697 0.202798
H12   H     H_    0.385527 0.088964 0.677787 0.207311
H13   H     H_    0.664740 0.129849 0.406804 0.129268
H14   H     H_    0.335243 0.629804 0.593461 0.130000
H15   H     H_    0.748552 0.306498 0.359477 0.120045
H16   H     H_    0.251324 0.805662 0.640562 0.121557
H17   H     H_    0.827942 0.336607 0.275318 0.134709
H18   H     H_    0.172036 0.836002 0.724775 0.138421
H19   H     H_    0.882966 0.209642 0.177119 0.165192
H20   H     H_    0.117266 0.709712 0.823114 0.166368
H21   H     H_    0.835775 0.664266 0.093614 0.136003
H22   H     H_    0.163844 0.163468 0.905957 0.135798
H23   H     H_    0.751785 0.488628 0.139762 0.148187
H24   H     H_    0.245663 0.987827 0.859106 0.135711
O11   O     O_R   0.060820 0.290050 0.937800 -0.529928
O12   O     O_R   0.939180 0.790050 0.062200 -0.529868
O13   O     O_R   0.057690 0.616620 0.086540 -0.539756
O14   O     O_R   0.942310 0.116620 0.913460 -0.539720
C65   C     C_R   0.071272 0.449079 0.112753 0.750664
C66   C     C_R   0.928733 0.949116 0.887236 0.750587
O15   O     O_R   0.068010 0.619890 0.939770 -0.538498
O16   O     O_R   0.931990 0.119890 0.060230 -0.537992
O17   O     O_R   0.949640 0.787940 0.914460 -0.527989
O18   O     O_R   0.050360 0.287940 0.085540 -0.528103
C67   C     C_R   0.084512 0.451043 0.919288 0.698628
C68   C     C_R   0.915492 0.951103 0.080714 0.698685
O19   O     O_3   0.961210 0.453080 0.991940 -0.376239
O20   O     O_3   0.038790 0.953080 0.008060 -0.376755
V3    V     V_3+5 0.007200 0.728820 0.001500 1.472919
V4    V     V_3+5 0.992800 0.228820 0.998500 1.473972
C69   C     C_2   0.977755 0.052523 0.748704 0.733819
O21   O     O_2   0.018781 0.993417 0.793232 -0.575249
O22   O     O_R   0.994086 0.163750 0.692181 -0.664484
H25   H     H_    0.040761 0.186743 0.694778 0.299185
C70   C     C_2   0.022013 0.549505 0.251553 0.732810
O23   O     O_2   0.981138 0.491969 0.206515 -0.575483
O24   O     O_R   0.005410 0.657747 0.308789 -0.664617
H26   H     H_    0.958695 0.680065 0.306244 0.298455
O25   O     O_3   0.660995 0.426649 0.220702 -0.548110
C71   C     C_3   0.616034 0.435369 0.160095 -0.190192
H27   H     H_    0.638237 0.436364 0.108892 0.126278
H28   H     H_    0.585011 0.558287 0.162925 0.140675
H29   H     H_    0.586329 0.309749 0.159427 0.176737
O26   O     O_3   0.340124 0.924091 0.775276 -0.546840
C72   C     C_3   0.353966 0.842288 0.843840 -0.193193
H30   H     H_    0.315158 0.750214 0.856338 0.136354
H31   H     H_    0.365038 0.947448 0.887064 0.128757
H32   H     H_    0.395978 0.753917 0.842653 0.171887
C73   C     C_2   0.520222 0.712769 0.742685 0.773113
O27   O     O_2   0.479771 0.805001 0.708136 -0.556426
O28   O     O_R   0.503128 0.560470 0.782726 -0.671327
H33   H     H_    0.456438 0.536647 0.776420 0.295449
C74   C     C_2   0.480019 0.213991 0.257277 0.754351
O29   O     O_2   0.520356 0.304848 0.292607 -0.562025
O30   O     O_R   0.497300 0.063500 0.216357 -0.674470
H34   H     H_    0.544042 0.040284 0.222393 0.295703
O31   O     O_3   0.729646 0.668072 0.862974 -0.567039
C75   C     C_3   0.748794 0.491264 0.841280 -0.250039
H35   H     H_    0.776388 0.500736 0.794192 0.148052
H36   H     H_    0.708078 0.397131 0.828775 0.149484
H37   H     H_    0.779454 0.428501 0.886391 0.163912
O32   O     O_3   0.270807 0.171119 0.136257 -0.567475
C76   C     C_3   0.251808 0.993548 0.157210 -0.252600
H38   H     H_    0.224183 0.001443 0.204313 0.148760
H39   H     H_    0.292608 0.899470 0.169356 0.148927
H40   H     H_    0.221226 0.931766 0.111823 0.162990

loop_
_geom_bond_atom_site_label_1
_geom_bond_atom_site_label_2
_ccdc_geom_bond_type
C22   C24   A    
C65   O18   A    
C41   C43   A    
C71   H27   S    
C7    C29   A    
C54   C64   A    
C11   C13   A    
C74   O30   S    
O12   C68   A    
O1    C3    A    
C72   H32   S    
O2    C4    A    
C2    O7    A    
O14   C66   A    
O20   V3    S    
C76   H38   S    
O24   H26   S    
C23   C25   A    
O5    C3    A    
C52   C54   A    
C1    C36   S    
C43   C57   A    
C16   C20   A    
C48   H18   S    
C5    C29   A    
C47   H17   S    
C75   H37   S    
C59   H19   S    
C56   C58   A    
C35   C37   A    
C36   C38   A    
O31   C75   S    
C13   O31   S    
C7    C27   A    
C38   C40   A    
C37   H13   S    
C47   C49   A    
C40   C42   A    
O12   V3    S    
C33   C43   A    
O14   V4    S    
C53   C63   A    
C18   C26   A    
C15   C17   A    
C30   C70   S    
C19   C27   A    
C9    C31   A    
C63   H21   S    
C10   C32   A    
O19   V4    S    
C24   C26   A    
C57   O25   S    
O6    V2    S    
C51   C53   A    
C2    C35   S    
C3    C32   S    
C4    C31   S    
C64   H22   S    
C6    C30   A    
C45   H15   S    
C59   C61   A    
C11   H7    S    
C55   C57   A    
C74   O29   D    
C37   C39   A    
C62   C67   S    
C58   O26   S    
C73   O27   D    
C60   H20   S    
O32   C76   S    
C75   H36   S    
C10   C74   S    
C76   H40   S    
C49   C51   A    
C69   O22   S    
C27   H5    S    
O5    V1    S    
C41   C51   A    
C71   H29   S    
O3    C1    A    
C7    C66   S    
C5    H3    S    
O16   C68   A    
C45   C47   A    
C42   C44   A    
O4    V2    S    
O13   V3    S    
C61   C68   S    
C39   C45   A    
H2    C24   S    
O6    C4    A    
C25   H9    S    
C39   C41   A    
O13   C65   A    
O1    V2    S    
C5    C21   A    
O2    V1    S    
C53   C55   A    
O15   V3    S    
C70   O23   D    
H1    C23   S    
C50   C52   A    
C61   C63   A    
C8    C28   A    
C60   C62   A    
C33   C35   A    
C56   H24   S    
O25   C71   S    
C17   C31   A    
C15   C19   A    
C20   C28   A    
O4    C2    A    
C18   C32   A    
C72   H30   S    
O18   V4    S    
O3    V1    S    
C29   C69   S    
C73   O28   S    
O11   V4    S    
C71   H28   S    
C19   C21   A    
C6    H4    S    
O15   C67   A    
C54   C56   A    
C75   H35   S    
C72   H31   S    
O22   H25   S    
C14   O32   S    
C38   H14   S    
C9    C11   A    
C44   C58   A    
O28   H33   S    
C10   C12   A    
C40   C46   A    
C8    C30   A    
O16   V4    S    
C76   H39   S    
O26   C72   S    
C6    C22   A    
C17   C25   A    
C12   C14   A    
C21   C23   A    
O8    V2    S    
O30   H34   S    
C26   H10   S    
C14   C16   A    
C12   H8    S    
C34   C44   A    
O11   C67   A    
C20   C22   A    
C46   H16   S    
C34   C36   A    
C55   H23   S    
C33   H11   S    
C9    C73   S    
C70   O24   S    
C34   H12   S    
O17   V3    S    
C1    O8    A    
C28   H6    S    
C13   C15   A    
O9    V2    S    
C46   C48   A    
C42   C52   A    
O10   V1    S    
C62   C64   A    
C48   C50   A    
C8    C65   S    
C69   O21   D    
C50   C60   A    
O7    V1    S    
C16   C18   A    
C49   C59   A    
C66   O17   A    
