data_mof_unit_40160.cif
_audit_creation_date              2013-03-05T16:06:19-0500
_audit_creation_method            fapswitch 2.2
_symmetry_space_group_name_H-M    P1
_symmetry_Int_Tables_number       1
_space_group_crystal_system       triclinic
_cell_length_a                    8.541487
_cell_length_b                    15.130012
_cell_length_c                    18.676937
_cell_angle_alpha                 98.949235
_cell_angle_beta                  91.688463
_cell_angle_gamma                 99.698161
_cell_volume                      2346.37166754

loop_
_atom_site_label
_atom_site_type_symbol
_atom_site_description
_atom_site_fract_x
_atom_site_fract_y
_atom_site_fract_z
_atom_type_partial_charge
P1    P     P_3+3 0.033450 0.421470 0.337090 0.496522
O1    O     O_2   0.865610 0.448460 0.327050 -0.386173
O2    O     O_3   0.118280 0.449990 0.414480 -0.353601
O3    O     O_3   0.656850 0.615600 0.375450 -0.409229
O4    O     O_2   0.695296 0.521407 0.246335 -0.340191
O5    O     O_3   0.012546 0.305196 0.302218 -0.635811
O6    O     O_3   0.726970 0.697497 0.254608 -0.405537
C1    C     C_3   0.758244 0.859507 0.270478 -0.726684
H1    H     H_    0.886414 0.865774 0.259971 0.290956
P2    P     P_3+3 0.679030 0.710970 0.562060 0.457211
P3    P     P_3+3 0.137500 0.780831 0.416927 0.469790
O7    O     O_2   0.853800 0.724280 0.541390 -0.357786
O8    O     O_3   0.080770 0.663020 0.412300 -0.350589
O9    O     O_2   0.014842 0.825323 0.462815 -0.374741
O10   O     O_3   0.680106 0.735305 0.657183 -0.662768
O11   O     O_3   0.101484 0.805265 0.329647 -0.519819
C2    C     C_3   0.225230 0.785915 0.284154 0.495697
C3    C     C_3   0.325154 0.874907 0.270209 -1.069391
C4    C     C_3   0.336536 0.742468 0.691585 0.244053
H2    H     H_    0.404999 0.712361 0.648144 0.143845
C5    C     C_3   0.342656 0.843418 0.684345 -0.629052
Ba1   Ba    Ba6+2 0.852310 0.543020 0.467250 1.615892
C6    C     C_3   0.895236 0.248298 0.331856 0.102921
C7    C     C_3   0.835337 0.161744 0.273066 -0.467302
C8    C     C_3   0.814056 0.717538 0.693662 0.299870
C9    C     C_3   0.919161 0.809042 0.725824 -0.666898
H3    H     H_    0.961123 0.845300 0.680914 0.168538
P4    P     P_3+3 0.156260 0.578610 0.662920 0.491445
O12   O     O_2   0.324100 0.551570 0.673000 -0.401025
O13   O     O_3   0.071440 0.550090 0.585530 -0.311587
O14   O     O_3   0.532860 0.384470 0.624560 -0.405245
O15   O     O_3   0.177965 0.697848 0.680887 -0.616590
P5    P     P_3+3 0.053105 0.221413 0.595016 0.412847
O16   O     O_3   0.607860 0.389390 0.460650 -0.339649
O17   O     O_3   0.108950 0.337050 0.587710 -0.410467
O18   O     O_2   0.162248 0.172195 0.544063 -0.363546
O19   O     O_3   0.101190 0.194721 0.682063 -0.617255
Ba2   Ba    Ba6+2 0.337530 0.457060 0.532760 1.577052
P6    P     P_3+3 0.616999 0.601308 0.281622 0.538829
C10   C     C_3   0.702874 0.774461 0.303139 0.454253
H4    H     H_    0.575546 0.772519 0.314337 -0.029601
O20   O     O_3   0.581860 0.610690 0.539360 -0.372698
C11   C     C_3   0.445445 0.233652 0.292032 0.204922
C12   C     C_3   0.385227 0.137269 0.247933 -0.841169
P7    P     P_3+3 0.518422 0.273671 0.442812 0.462856
O21   O     O_2   0.335900 0.275750 0.458650 -0.373853
O22   O     O_3   0.542706 0.222613 0.351661 -0.648196
C13   C     C_3   0.043735 0.245832 0.743875 0.133579
C14   C     C_3   0.042660 0.192142 0.810127 -0.461068
P8    P     P_3+3 0.561169 0.392364 0.718573 0.480493
C15   C     C_3   0.488080 0.217976 0.675863 0.355484
O23   O     O_2   0.444616 0.452014 0.753225 -0.379694
O24   O     O_3   0.498675 0.282548 0.740267 -0.496078
H5    H     H_    0.375200 0.215435 0.645120 0.155891
C16   C     C_3   0.505746 0.121744 0.688056 -0.695258
H6    H     H_    0.479342 0.075738 0.635437 0.166477
N1    N     N_R   0.151857 0.569556 0.960042 -0.043581
N2    N     N_R   0.206158 0.572500 0.028198 -0.071762
C17   C     C_2   0.296034 0.525984 0.296034 -0.355784
C18   C     C_3   0.398668 0.585303 0.251841 0.052025
C19   C     C_2   0.354779 0.558234 0.170425 -0.176970
C20   C     C_2   0.200918 0.518272 0.148223 -0.050893
C21   C     C_2   0.093842 0.483990 0.204873 -0.199210
C22   C     C_1   0.150675 0.484467 0.272473 0.372417
N3    N     N_R   0.001610 0.454998 0.042962 -0.041097
N4    N     N_R   0.946201 0.452367 0.974626 -0.052345
C23   C     C_R   0.021020 0.509143 0.931296 0.233716
C24   C     C_R   0.135020 0.514357 0.071152 0.167253
C25   C     C_R   0.070066 0.539837 0.803157 -0.163548
C26   C     C_R   0.025095 0.526242 0.728396 0.218820
C27   C     C_R   0.764948 0.447350 0.753044 0.275409
C28   C     C_R   0.811723 0.458539 0.827254 -0.154623
C29   C     C_R   0.966129 0.503176 0.853224 0.058652
C30   C     C_R   0.873132 0.478966 0.704031 -0.552711
H7    H     H_    0.836113 0.469836 0.647070 0.179145
C31   C     C_R   0.345483 0.825115 0.457704 0.089236
H8    H     H_    0.211409 0.960927 0.419414 0.190235
C32   C     C_R   0.582471 0.792034 0.517693 0.255034
C33   C     C_R   0.754689 0.234154 0.533399 -0.500007
C34   C     C_R   0.845484 0.175784 0.559309 0.310711
C35   C     C_R   0.785264 0.082481 0.551108 -0.237792
C36   C     C_R   0.633270 0.045322 0.516001 0.044690
C37   C     C_R   0.543321 0.106260 0.489669 -0.008160
C38   C     C_R   0.567970 0.949799 0.505015 0.062106
C39   C     C_R   0.413423 0.918512 0.469308 0.061894
C40   C     C_R   0.328451 0.981140 0.446344 -0.141417
C41   C     C_R   0.393363 0.071827 0.454386 -0.116935
C42   C     C_R   0.648923 0.884553 0.529593 -0.304897
C43   C     C_R   0.433366 0.763335 0.480732 -0.509209
C44   C     C_R   0.605480 0.200424 0.497815 0.230441
H9    H     H_    0.772689 0.779468 0.355185 0.135544
H10   H     H_    0.296512 0.879838 0.733396 0.243875
H11   H     H_    0.467767 0.876037 0.679550 0.182823
C45   C     C_2   0.243541 0.855398 0.620182 0.549907
H12   H     H_    0.181061 0.797024 0.583170 0.134922
O25   O     O_2   0.229409 0.931422 0.609960 -0.610142
H13   H     H_    0.798132 0.285059 0.346193 0.128230
C46   C     C_2   0.958565 0.226498 0.401836 0.462239
H14   H     H_    0.017657 0.281458 0.442933 0.109883
O26   O     O_2   0.943683 0.148534 0.413735 -0.620521
C47   C     C_2   0.798312 0.188045 0.200211 0.643454
H15   H     H_    0.849777 0.253981 0.187440 0.036518
O27   O     O_2   0.714973 0.133840 0.153261 -0.476917
H16   H     H_    0.725714 0.124347 0.292007 0.184934
C48   C     C_2   0.948815 0.094501 0.261560 0.584894
H17   H     H_    0.048307 0.097613 0.299298 0.016613
O28   O     O_2   0.924886 0.031492 0.210742 -0.538199
H18   H     H_    0.882886 0.674881 0.657898 0.129108
C49   C     C_2   0.755124 0.663640 0.751810 0.432354
H19   H     H_    0.656948 0.607365 0.738024 0.042584
O29   O     O_2   0.814548 0.681437 0.813791 -0.538112
H20   H     H_    0.024472 0.797415 0.756942 0.240156
C50   C     C_2   0.829435 0.869012 0.774454 0.794332
H21   H     H_    0.729952 0.894064 0.752105 0.035535
O30   O     O_2   0.867999 0.890120 0.839119 -0.450693
H22   H     H_    0.739547 0.920414 0.308624 0.190333
C51   C     C_2   0.310687 0.274661 0.316779 0.654233
H23   H     H_    0.207606 0.230254 0.329001 -0.019893
O31   O     O_2   0.329480 0.355997 0.337230 -0.598121
C52   C     C_2   0.540129 0.294860 0.245523 0.526314
H24   H     H_    0.657368 0.330736 0.263785 0.054080
O32   O     O_2   0.482488 0.309129 0.188655 -0.584857
H25   H     H_    0.313690 0.094776 0.282782 0.169740
C53   C     C_2   0.286471 0.136637 0.179588 0.857104
H26   H     H_    0.184977 0.171230 0.181507 -0.047813
O33   O     O_2   0.320890 0.098049 0.121342 -0.447631
H27   H     H_    0.486595 0.102504 0.233619 0.275051
H28   H     H_    0.689716 0.856279 0.218425 0.273055
H29   H     H_    0.403293 0.862303 0.224587 0.253069
C54   C     C_2   0.147270 0.337798 0.761907 0.516094
H30   H     H_    0.172856 0.377604 0.719150 0.103721
O34   O     O_2   0.197968 0.370242 0.823967 -0.598136
C55   C     C_2   0.877339 0.263559 0.731232 0.387429
H31   H     H_    0.845243 0.290357 0.683735 -0.021913
O35   O     O_2   0.780454 0.255905 0.777616 -0.540488
C56   C     C_2   0.203110 0.187506 0.843231 0.581851
H32   H     H_    0.310480 0.224335 0.825550 0.121237
O36   O     O_2   0.213475 0.145656 0.893584 -0.467004
H33   H     H_    0.985126 0.228607 0.855787 0.230720
C57   C     C_2   0.947638 0.097661 0.789491 0.760856
H34   H     H_    0.986041 0.049341 0.747408 -0.067446
O37   O     O_2   0.825683 0.075246 0.819555 -0.489991
H35   H     H_    0.584739 0.236972 0.640882 0.057031
H36   H     H_    0.629788 0.119064 0.705185 0.239150
C58   C     C_2   0.156204 0.732163 0.212314 0.565638
H37   H     H_    0.233482 0.720896 0.167962 -0.002668
O38   O     O_2   0.014975 0.700301 0.202688 -0.490786
C59   C     C_2   0.394531 0.082963 0.739451 0.764188
H38   H     H_    0.267639 0.070584 0.726298 0.007441
O39   O     O_2   0.445729 0.061601 0.794826 -0.478323
C60   C     C_2   0.474139 0.582004 0.117231 0.657576
H39   H     H_    0.481084 0.534254 0.068127 0.021639
O40   O     O_2   0.560750 0.656090 0.126279 -0.526030
H40   H     H_    0.969628 0.456246 0.189611 0.166192
H41   H     H_    0.187787 0.576259 0.821769 0.140339
H42   H     H_    0.728004 0.431867 0.864322 0.170634
H43   H     H_    0.349376 0.512325 0.345079 0.191085
C61   C     C_2   0.361798 0.668520 0.473120 0.743735
H44   H     H_    0.397059 0.620183 0.431604 -0.025275
O41   O     O_2   0.269428 0.643557 0.516984 -0.524889
H45   H     H_    0.762008 0.903455 0.559893 0.156978
H46   H     H_    0.304538 0.744850 0.306868 -0.056706
H47   H     H_    0.804611 0.305493 0.537017 0.152998
H48   H     H_    0.861916 0.040839 0.570901 0.152852
H49   H     H_    0.321219 0.114030 0.432295 0.182397
H50   H     H_    0.246886 0.922403 0.256767 0.286040
H51   H     H_    0.404074 0.907402 0.318371 0.249169
C62   C     C_2   0.405196 0.734392 0.765821 0.552269
H52   H     H_    0.413585 0.668300 0.779278 0.023972
O42   O     O_2   0.453095 0.801167 0.811689 -0.523271

loop_
_geom_bond_atom_site_label_1
_geom_bond_atom_site_label_2
_geom_bond_distance
_ccdc_geom_bond_type
C37   C41   1.401752 A    
C16   H6    1.105624 S    
C12   H27   1.105051 S    
C47   H15   1.085268 S    
C28   H42   1.082761 S    
P2    O20   1.589178 S    
P3    O8    1.754459 S    
C54   O34   1.222187 D    
C4    H2    1.100203 S    
C11   C12   1.555035 S    
C58   H37   1.084961 S    
P2    C32   1.867591 S    
C43   C61   1.444938 S    
Ba1   O20   2.957973 S    
P7    O21   1.599940 D    
P2    Ba1   3.435836 S    
C48   O28   1.221821 D    
C9    H3    1.107973 S    
C25   H41   1.081060 S    
P4    O12   1.569618 D    
C4    C5    1.546490 S    
C57   O37   1.220698 D    
Ba2   O20   2.834574 S    
P1    O2    1.561829 S    
P3    C31   1.882903 S    
C49   O29   1.221693 D    
C34   C35   1.401538 A    
P3    O9    1.548011 D    
O10   C8    1.400056 S    
C5    C45   1.498379 S    
P6    C18   1.894884 S    
C42   H45   1.076755 S    
Ba1   Ba2   4.730507 S    
O7    Ba1   2.871310 S    
P5    O18   1.547560 D    
O13   Ba2   2.982686 S    
P1    O1    1.569190 D    
C33   C44   1.397081 A    
C38   C39   1.432051 A    
C1    H28   1.110054 S    
C14   H33   1.114819 S    
O2    Ba2   2.830879 S    
C1    H1    1.108823 S    
O12   Ba2   2.797516 S    
O1    Ba1   2.796984 S    
P8    O23   1.543820 D    
C6    C7    1.573571 S    
C25   C29   1.419371 A    
C23   C29   1.502879 S    
C15   C16   1.539386 S    
C8    C49   1.505759 S    
C11   C52   1.518409 S    
C62   O42   1.221796 D    
N4    C23   1.364936 A    
C60   H39   1.085390 S    
C17   C18   1.504438 S    
C47   O27   1.221072 D    
C61   O41   1.212540 D    
C13   C54   1.501230 S    
C19   C20   1.373616 D    
N1    C23   1.356636 A    
C4    O15   1.401498 S    
C58   O38   1.218290 D    
C52   O32   1.222072 D    
C35   C36   1.421513 A    
P7    O22   1.789877 S    
C32   C43   1.398465 A    
C3    H50   1.111061 S    
Ba1   O16   2.835186 S    
P8    O24   1.770057 S    
C30   H7    1.081922 S    
P1    O5    1.755500 S    
C13   C55   1.508660 S    
P4    O15   1.759816 S    
O17   Ba2   2.768685 S    
C57   H34   1.084924 S    
C56   O36   1.221655 D    
C33   H47   1.082559 S    
C40   C41   1.373780 A    
O11   C2    1.415853 S    
C8    C9    1.540854 S    
C39   C40   1.395848 A    
C12   C53   1.506988 S    
P5    O19   1.787646 S    
C21   C22   1.337775 D    
C18   C19   1.530167 S    
C7    H16   1.106947 S    
C61   H44   1.066924 S    
C2    C58   1.503872 S    
P8    C27   1.848151 S    
C26   C30   1.398074 A    
C20   C21   1.514241 S    
O3    Ba1   2.822698 S    
P3    O11   1.756363 S    
O3    P6    1.748074 S    
P4    Ba2   3.388117 S    
O6    C10   1.408279 S    
N3    C24   1.361997 A    
C2    C3    1.531084 S    
C17   C22   1.322414 D    
O16   P7    1.764335 S    
C59   H38   1.082480 S    
O19   C13   1.433570 S    
C45   O25   1.219764 D    
P7    C44   1.850209 S    
C19   C60   1.484283 S    
P2    O7    1.541070 D    
C11   C51   1.451289 S    
N2    C24   1.361956 A    
C10   H4    1.109943 S    
C6    H13   1.091409 S    
C14   C56   1.503787 S    
H8    C40   1.079559 S    
N3    N4    1.340446 A    
C36   C38   1.439238 A    
C36   C37   1.428175 A    
O4    P6    1.547104 D    
C55   H31   1.077745 S    
C35   H48   1.076778 S    
C4    C62   1.519942 S    
O14   P8    1.748099 S    
P1    C22   1.864148 S    
C9    H20   1.110027 S    
C52   H24   1.073729 S    
C53   O33   1.220579 D    
C50   H21   1.084793 S    
C32   C42   1.399692 A    
C37   C44   1.416952 A    
C62   H52   1.081439 S    
C7    C47   1.515065 S    
C16   H36   1.106833 S    
Ba1   O13   2.830230 S    
O16   Ba2   2.957099 S    
P4    C26   1.860516 S    
C38   C42   1.419717 A    
C21   H40   1.085363 S    
C59   O39   1.220779 D    
C28   C29   1.411042 A    
C3    H29   1.110726 S    
C27   C30   1.399230 A    
C3    H51   1.104662 S    
P5    C34   1.854954 S    
C15   H35   1.096055 S    
C48   H17   1.078001 S    
C31   C43   1.401656 A    
C12   H25   1.109783 S    
C46   O26   1.220529 D    
O14   Ba2   2.822078 S    
C20   C24   1.518825 S    
P2    O10   1.756807 S    
C15   H5    1.099450 S    
C51   O31   1.212300 D    
C54   H30   1.078786 S    
C9    C50   1.501507 S    
C27   C28   1.407457 A    
C49   H19   1.083027 S    
C17   H43   1.074890 S    
N1    N2    1.333450 A    
C41   H49   1.075742 S    
C5    H11   1.111426 S    
C13   C14   1.581754 S    
O5    C6    1.393494 S    
P4    O13   1.561795 S    
P5    O17   1.761860 S    
O8    Ba1   2.767973 S    
C16   C59   1.486360 S    
C60   O40   1.219281 D    
C10   H9    1.110846 S    
C45   H12   1.082689 S    
C25   C26   1.411367 A    
Ba2   O21   2.871584 S    
C2    H46   1.109849 S    
C1    H22   1.111006 S    
C33   C34   1.398985 A    
P1    Ba1   3.387486 S    
C6    C46   1.504069 S    
C46   H14   1.082846 S    
C14   C57   1.506656 S    
C55   O35   1.220603 D    
O6    P6    1.746625 S    
C56   H32   1.078674 S    
O2    Ba1   2.981815 S    
C7    C48   1.515674 S    
C1    C10   1.519089 S    
C15   O24   1.416953 S    
C51   H23   1.067241 S    
C11   O22   1.417202 S    
C31   C39   1.414777 A    
C8    H18   1.106900 S    
C53   H26   1.084262 S    
C50   O30   1.220751 D    
C5    H10   1.111610 S    
