data_mof_unit_52898.cif
_audit_creation_date              2013-03-05T15:59:36-0500
_audit_creation_method            fapswitch 2.2
_symmetry_space_group_name_H-M    P1
_symmetry_Int_Tables_number       1
_space_group_crystal_system       triclinic
_cell_length_a                    8.227332
_cell_length_b                    12.728576
_cell_length_c                    17.26114
_cell_angle_alpha                 98.669089
_cell_angle_beta                  96.880043
_cell_angle_gamma                 98.63205
_cell_volume                      1747.87595284

loop_
_atom_site_label
_atom_site_type_symbol
_atom_site_description
_atom_site_fract_x
_atom_site_fract_y
_atom_site_fract_z
_atom_type_partial_charge
P1    P     P_3+3 0.996360 0.395990 0.320310 0.561305
O1    O     O_2   0.825360 0.427200 0.308020 -0.402945
O2    O     O_3   0.099050 0.435020 0.406000 -0.380078
O3    O     O_3   0.623690 0.628090 0.355970 -0.376507
O4    O     O_2   0.734659 0.562779 0.221138 -0.420184
O5    O     O_3   0.953214 0.255176 0.298621 -0.483303
O6    O     O_3   0.538317 0.706843 0.215399 -0.602894
H1    H     H_    0.761200 0.777237 0.290303 0.101643
C1    C     C_3   0.785107 0.793740 0.170255 -0.104108
H2    H     H_    0.867297 0.732648 0.174425 0.086746
P2    P     P_3+3 0.688190 0.753610 0.561600 0.487167
P3    P     P_3+3 0.108456 0.824748 0.399363 0.467696
O7    O     O_2   0.857620 0.767930 0.537920 -0.365482
O8    O     O_3   0.055170 0.686660 0.395490 -0.382711
O9    O     O_2   0.976976 0.878950 0.439627 -0.375259
O10   O     O_3   0.728260 0.789949 0.664903 -0.554260
O11   O     O_3   0.080348 0.848442 0.301908 -0.509590
C2    C     C_3   0.193006 0.798183 0.260113 0.128077
H3    H     H_    0.145692 0.710152 0.243138 0.024827
H4    H     H_    0.318354 0.810144 0.295417 0.102810
C3    C     C_3   0.213816 0.846528 0.185494 0.573168
H5    H     H_    0.104474 0.817873 0.139245 0.025129
C4    C     C_3   0.263480 0.788036 0.635813 0.228874
H6    H     H_    0.380424 0.766694 0.618079 0.013375
H7    H     H_    0.159757 0.759279 0.586229 0.103935
C5    C     C_3   0.281757 0.909602 0.656773 0.442219
H8    H     H_    0.391721 0.940331 0.702331 0.079811
H9    H     H_    0.298385 0.947237 0.603963 -0.005319
Ba1   Ba    Ba6+2 0.843240 0.548600 0.461650 1.636184
C6    C     C_3   0.935330 0.209824 0.366827 0.236168
H10   H     H_    0.802951 0.198262 0.374222 0.046090
H11   H     H_    0.010736 0.257443 0.421932 0.088001
C7    C     C_3   0.989795 0.100818 0.354462 0.572774
H12   H     H_    0.125143 0.111703 0.353132 0.114028
H13   H     H_    0.958525 0.057651 0.403155 0.004727
C8    C     C_3   0.778385 0.704741 0.698739 0.232034
H14   H     H_    0.892252 0.684527 0.676456 0.028672
H15   H     H_    0.678908 0.632536 0.685313 0.111755
C9    C     C_3   0.815740 0.740374 0.788231 0.469701
H16   H     H_    0.915635 0.812386 0.803137 0.110519
H17   H     H_    0.857605 0.675037 0.816997 0.002070
P4    P     P_3+3 0.193350 0.604100 0.679700 0.516494
O12   O     O_2   0.364350 0.572830 0.692030 -0.340386
O13   O     O_3   0.090660 0.565070 0.594010 -0.394224
O14   O     O_3   0.566030 0.372000 0.644040 -0.373894
O15   O     O_3   0.232785 0.744594 0.703191 -0.525703
P5    P     P_3+3 0.092320 0.175740 0.608517 0.532073
O16   O     O_3   0.601410 0.366560 0.460070 -0.326037
O17   O     O_3   0.134540 0.313430 0.604520 -0.312030
O18   O     O_2   0.211534 0.121573 0.559415 -0.422084
O19   O     O_3   0.155788 0.158257 0.705627 -0.466504
Ba2   Ba    Ba6+2 0.346590 0.451490 0.538360 1.672138
P6    P     P_3+3 0.575417 0.590496 0.253076 0.456195
C10   C     C_3   0.678444 0.789578 0.237660 0.639255
H18   H     H_    0.865036 0.873998 0.178143 0.192751
O20   O     O_3   0.588300 0.633530 0.539940 -0.395556
C11   C     C_3   0.452297 0.256776 0.291307 1.156071
H19   H     H_    0.528743 0.336582 0.316919 -0.035000
C12   C     C_3   0.498402 0.222439 0.209524 -0.750807
H20   H     H_    0.420673 0.144218 0.180569 0.314270
H21   H     H_    0.478646 0.283639 0.171576 0.171385
H22   H     H_    0.631201 0.213341 0.214809 0.234515
P7    P     P_3+3 0.509591 0.229422 0.438278 0.508839
O21   O     O_2   0.332090 0.232110 0.462130 -0.400293
O22   O     O_3   0.478881 0.176821 0.336705 -0.579460
H23   H     H_    0.321493 0.820976 0.160012 0.129068
C13   C     C_3   0.107253 0.238967 0.758616 0.319933
H24   H     H_    0.191816 0.316948 0.762652 0.132615
H25   H     H_    0.978321 0.250098 0.739457 -0.030535
C14   C     C_3   0.111690 0.206193 0.840424 -0.096388
H26   H     H_    0.044051 0.258086 0.877982 0.056493
H27   H     H_    0.047354 0.121349 0.833959 0.166764
P8    P     P_3+3 0.606209 0.386730 0.746970 0.523378
C15   C     C_3   0.600306 0.180407 0.723967 0.411460
H28   H     H_    0.704296 0.210980 0.693421 0.016120
O23   O     O_2   0.490070 0.459721 0.782595 -0.328387
O24   O     O_3   0.543864 0.261295 0.773598 -0.456039
H29   H     H_    0.495828 0.137584 0.677944 0.110737
H30   H     H_    0.761579 0.143708 0.820849 0.242991
C16   C     C_3   0.660081 0.100888 0.773567 -0.888785
H31   H     H_    0.706253 0.036552 0.735677 0.224229
H32   H     H_    0.557525 0.063972 0.802249 0.312043
C17   C     C_2   0.262921 0.499860 0.273746 -0.357485
C18   C     C_3   0.393060 0.480572 0.221194 0.163742
C19   C     C_2   0.323039 0.473534 0.134401 -0.127492
C20   C     C_2   0.156672 0.463667 0.110919 0.127814
C21   C     C_2   0.043862 0.451210 0.172481 -0.279183
C22   C     C_1   0.107655 0.455553 0.247532 0.374346
C23   C     C_R   0.896147 0.452309 0.861036 -0.258501
C24   C     C_R   0.825404 0.444245 0.781843 0.227622
C25   C     C_R   0.081718 0.537952 0.751442 0.226980
C26   C     C_R   0.152711 0.547981 0.830928 -0.158562
C27   C     C_R   0.064108 0.501390 0.886812 -0.063241
C28   C     C_2   0.080356 0.456688 0.025946 -0.285849
C29   C     C_2   0.148339 0.509937 0.971231 0.377966
C30   C     C_R   0.920480 0.482472 0.727086 -0.496526
H33   H     H_    0.910279 0.434376 0.154793 0.180384
H34   H     H_    0.817738 0.421429 0.901168 0.178671
H35   H     H_    0.958938 0.406753 0.009977 0.142912
H36   H     H_    0.409052 0.470383 0.091671 0.191945
H37   H     H_    0.277218 0.592900 0.848168 0.222716
H38   H     H_    0.296695 0.548958 0.332353 0.141614
H39   H     H_    0.865060 0.475031 0.666023 0.206638
C31   C     C_R   0.772379 0.183907 0.536582 0.348015
C32   C     C_R   0.421545 0.809992 0.474711 -0.511286
C33   C     C_R   0.385785 0.987395 0.452652 -0.021147
C34   C     C_R   0.321426 0.879041 0.447631 0.152064
C35   C     C_R   0.581593 0.849961 0.514851 0.322049
C36   C     C_R   0.647248 0.962331 0.524780 -0.063788
C37   C     C_R   0.547899 0.031184 0.491168 -0.092189
C38   C     C_R   0.613522 0.141652 0.496115 0.087757
C39   C     C_R   0.873164 0.117299 0.568064 0.041695
C40   C     C_R   0.809741 0.007678 0.564128 -0.275805
H40   H     H_    0.306470 0.035959 0.426271 0.149905
H41   H     H_    0.889944 0.959153 0.590468 0.251667
H42   H     H_    0.371094 0.724985 0.467852 0.166235
F1    F     F_    0.141889 0.936584 0.686409 -0.639183
F2    F     F_    0.912458 0.041348 0.282688 -0.596394
F3    F     F_    0.674340 0.765634 0.817405 -0.596161
N1    N     N_R   0.623687 0.892604 0.260532 0.229396
O25   O     O_R   0.589176 0.953603 0.208890 -0.290915
O26   O     O_R   0.627505 0.929785 0.335177 -0.421939
F4    F     F_    0.286385 0.265394 0.283394 -0.712218
N2    N     N_R   0.687776 0.770259 0.091343 0.305813
O27   O     O_R   0.601036 0.839507 0.067030 -0.240504
O28   O     O_R   0.716722 0.692197 0.039788 -0.289847
N3    N     N_R   0.281889 0.216718 0.879526 0.295159
O29   O     O_R   0.339346 0.131800 0.896372 -0.312745
O30   O     O_R   0.369163 0.311938 0.906775 -0.337905
N4    N     N_R   0.305490 0.579852 0.994377 0.235911
O31   O     O_R   0.436455 0.553773 0.966209 -0.308245
O32   O     O_R   0.317393 0.669398 0.043753 -0.375379
F5    F     F_    0.832113 0.290357 0.541871 -0.676940
F6    F     F_    0.239115 0.957937 0.203337 -0.594160

loop_
_geom_bond_atom_site_label_1
_geom_bond_atom_site_label_2
_geom_bond_distance
_ccdc_geom_bond_type
C14   N3    1.457495 S    
C21   C22   1.328003 D    
P7    O22   1.753650 S    
C17   H38   1.086784 S    
C10   N1    1.463694 S    
C3    H23   1.104895 S    
C2    C3    1.525473 S    
C32   H42   1.082522 S    
C5    F1    1.382222 S    
P5    O17   1.748279 S    
C19   C20   1.361502 D    
C32   C34   1.385054 A    
C5    H8    1.104757 S    
C33   H40   1.072406 S    
P6    C18   1.857804 S    
O4    P6    1.548545 D    
C8    H14   1.104824 S    
P8    C24   1.833373 S    
P1    O1    1.517822 D    
C6    H10   1.102275 S    
O3    P6    1.748960 S    
O12   Ba2   2.836731 S    
C11   C12   1.523080 S    
C33   C34   1.387008 A    
P5    C39   1.852333 S    
C1    N2    1.459453 S    
C35   C36   1.427922 A    
O14   P8    1.743936 S    
C2    H3    1.111615 S    
P4    O15   1.744535 S    
C4    C5    1.515316 S    
O2    Ba1   2.901957 S    
C37   C38   1.414488 A    
C20   C28   1.508893 S    
C25   C30   1.389560 A    
C15   O24   1.408023 S    
P3    O11   1.747802 S    
C29   N4    1.430713 S    
C4    H6    1.103254 S    
C14   H26   1.110829 S    
C1    H18   1.108842 S    
C1    H2    1.109134 S    
O3    Ba1   2.815956 S    
C36   C40   1.419278 A    
O13   Ba2   2.902785 S    
P1    C22   1.829109 S    
C17   C22   1.312612 D    
C12   H20   1.110111 S    
C27   C29   1.517584 S    
C4    O15   1.394445 S    
C15   C16   1.519584 S    
C3    H5    1.105112 S    
C23   C27   1.416888 A    
P4    O13   1.581601 S    
C39   C40   1.402922 A    
N1    O26   1.298902 A    
C7    H12   1.104767 S    
P5    O18   1.543267 D    
C32   C35   1.395294 A    
C12   H21   1.108443 S    
C31   F5    1.355670 S    
Ba1   O16   2.812898 S    
C13   H24   1.111017 S    
C18   C19   1.523691 S    
C16   H32   1.108613 S    
Ba2   O21   2.880599 S    
H1    C10   1.113935 S    
C9    H16   1.110839 S    
C31   C39   1.394133 A    
C20   C21   1.502873 S    
O16   P7    1.759917 S    
P5    O19   1.752020 S    
O14   Ba2   2.815397 S    
P1    O5    1.747456 S    
P1    O2    1.581600 S    
N4    O32   1.299519 A    
N3    O30   1.300690 A    
C11   F4    1.377954 S    
P2    O10   1.751259 S    
C17   C18   1.507965 S    
P3    O9    1.545566 D    
O17   Ba2   2.756438 S    
P1    Ba1   3.369677 S    
O11   C2    1.409925 S    
O19   C13   1.406700 S    
P3    C34   1.831683 S    
P2    Ba1   3.403311 S    
C26   H37   1.079180 S    
O5    C6    1.400658 S    
P3    O8    1.735595 S    
O1    Ba1   2.836309 S    
Ba1   O13   2.832085 S    
P8    O23   1.545757 D    
H30   C16   1.107468 S    
P4    O12   1.518190 D    
O6    P6    1.757199 S    
O8    Ba1   2.755861 S    
C7    F2    1.377169 S    
N3    O29   1.300591 A    
C3    F6    1.383288 S    
C25   C26   1.404533 A    
N1    O25   1.300862 A    
N2    O28   1.300451 A    
C33   C37   1.408648 A    
O7    Ba1   2.880397 S    
C12   H22   1.110292 S    
C6    C7    1.513849 S    
C8    C9    1.523019 S    
C11   O22   1.401343 S    
C16   H31   1.110906 S    
C31   C38   1.393698 A    
O2    Ba2   2.832691 S    
C24   C30   1.394085 A    
Ba1   O20   2.883330 S    
C5    H9    1.104981 S    
C23   H34   1.078683 S    
C13   C14   1.529440 S    
C8    H15   1.110315 S    
N4    O31   1.300697 A    
C19   H36   1.082142 S    
C36   C37   1.423904 A    
O10   C8    1.398210 S    
C6    H11   1.108575 S    
P2    O7    1.492015 D    
C11   H19   1.108662 S    
C28   H35   1.080970 S    
C9    F3    1.383536 S    
C26   C27   1.422927 A    
C7    H13   1.105941 S    
C2    H4    1.110143 S    
C4    H7    1.109750 S    
P7    C38   1.842391 S    
C28   C29   1.367458 D    
P7    O21   1.567846 D    
Ba2   O20   2.812324 S    
O16   Ba2   2.882503 S    
C15   H28   1.109684 S    
C9    H17   1.107381 S    
C15   H29   1.110081 S    
C30   H39   1.081494 S    
P2    C35   1.837392 S    
P8    O24   1.747962 S    
C14   H27   1.112130 S    
C1    C10   1.541383 S    
O6    C10   1.411809 S    
C13   H25   1.108995 S    
C23   C24   1.402507 A    
C21   H33   1.084530 S    
P2    O20   1.590092 S    
P4    C25   1.854893 S    
P4    Ba2   3.370215 S    
N2    O27   1.300352 A    
C40   H41   1.076450 S    
Ba1   Ba2   4.500098 S    
