data_mof_unit_68383.cif
_audit_creation_date              2012-12-10T16:45:59-0500
_audit_creation_method            fapswitch 2.2
_symmetry_space_group_name_H-M    P1
_symmetry_Int_Tables_number       1
_space_group_crystal_system       triclinic
_cell_length_a                    10.856071
_cell_length_b                    8.665602
_cell_length_c                    7.621219
_cell_angle_alpha                 101.912477
_cell_angle_beta                  95.872878
_cell_angle_gamma                 94.375007
_cell_volume                      694.335894871

loop_
_atom_site_label
_atom_site_type_symbol
_atom_type_description
_atom_site_fract_x
_atom_site_fract_y
_atom_site_fract_z
_atom_type_partial_charge
C1    C     C_R   0.495042 0.200743 0.455028 0.904426
C2    C     C_3   0.878447 0.505676 0.497444 -0.144706
C3    C     C_3   0.927698 0.617023 0.376553 0.031196
C4    C     C_3   0.914468 0.332063 0.436719 -0.031068
C5    C     C_2   0.482869 0.032752 0.435433 -0.351690
C6    C     C_2   0.534946 0.966496 0.563961 0.021075
C7    C     C_R   0.260776 0.501510 0.498853 0.830092
C8    C     C_R   0.510475 0.799250 0.544845 0.808977
C9    C     C_R   0.739943 0.504737 0.500478 0.815136
C10   C     C_3   0.089177 0.543467 0.690270 -0.480314
C11   C     C_3   0.950111 0.569205 0.690157 -0.042847
C12   C     C_3   0.072785 0.636041 0.401626 0.006589
C13   C     C_3   0.052450 0.333785 0.397325 0.259357
C14   C     C_3   0.122725 0.501755 0.493151 -0.127106
Cu1   Cu    Cu3+1 0.514070 0.517380 0.684380 1.067524
Cu2   Cu    Cu3+1 0.485930 0.482620 0.315620 1.073814
H1    H     H_    0.147070 0.652135 0.767862 0.247896
H2    H     H_    0.101090 0.749501 0.501724 0.163972
N1    N     N_2   0.464720 0.456420 0.038520 0.004113
N2    N     N_2   0.535280 0.543580 0.961480 -0.161821
O1    O     O_R   0.509140 0.286130 0.619770 -0.540207
O2    O     O_R   0.485380 0.256770 0.308360 -0.548199
O3    O     O_R   0.329570 0.514650 0.655700 -0.573540
O4    O     O_R   0.305810 0.485300 0.344290 -0.540223
O5    O     O_R   0.514620 0.743230 0.691640 -0.560093
O6    O     O_R   0.490860 0.713870 0.380230 -0.608586
O7    O     O_R   0.694190 0.514700 0.655710 -0.563620
O8    O     O_R   0.670430 0.485350 0.344300 -0.555883
I1    I     I_    0.783496 0.151769 0.260436 -0.188797
I2    I     I_    0.160657 0.709692 0.184128 -0.251030
I3    I     I_    0.842563 0.554049 0.103684 -0.222067
H3    H     H_    0.423295 0.962808 0.318137 0.186634
I4    I     I_    0.677492 0.083810 0.772072 -0.168078
I5    I     I_    0.358194 0.251204 0.902308 -0.078941
H4    H     H_    0.583294 0.641004 0.048882 0.225631
H5    H     H_    0.110614 0.447041 0.761484 0.238218
H6    H     H_    0.913620 0.495547 0.777296 0.214349
I6    I     I_    0.930458 0.816253 0.804008 -0.225850
H7    H     H_    0.895672 0.736291 0.419056 0.157916
I7    I     I_    0.068998 0.268221 0.111832 -0.146889
I8    I     I_    0.129756 0.139661 0.492768 -0.298111
H8    H     H_    0.908933 0.278328 0.556603 0.152753

loop_
_geom_bond_atom_site_label_1
_geom_bond_atom_site_label_2
_ccdc_geom_bond_type
Cu2   O8    S    
C11   I6    S    
C2    C4    S    
C1    O1    A    
C8    O6    A    
Cu1   O7    S    
N1    N2    D    
C6    I4    S    
C5    H3    S    
C13   I8    S    
C2    C3    S    
C3    H7    S    
C1    O2    A    
Cu2   O4    S    
C13   C14   S    
C3    I3    S    
C8    O5    A    
C2    C9    S    
C5    C6    D    
C4    H8    S    
Cu2   N1    S    
C1    C5    S    
C2    C11   S    
C6    C8    S    
Cu1   O3    S    
C12   C14   S    
Cu2   O6    S    
Cu1   N2    S    
C7    O3    A    
Cu1   O5    S    
C10   C11   S    
C10   H1    S    
C7    O4    A    
Cu1   O1    S    
C9    O7    A    
C10   C14   S    
C12   H2    S    
C4    C13   S    
C11   H6    S    
C13   I7    S    
C10   H5    S    
C3    C12   S    
C12   I2    S    
N2    H4    S    
C7    C14   S    
Cu1   Cu2   S    
C9    O8    A    
Cu2   O2    S    
C4    I1    S    
N1    I5    S    
