data_mof_unit_38301.cif
_audit_creation_date              2012-12-11T14:15:31-0500
_audit_creation_method            fapswitch 2.2
_symmetry_space_group_name_H-M    P1
_symmetry_Int_Tables_number       1
_space_group_crystal_system       triclinic
_cell_length_a                    11.155653
_cell_length_b                    12.718793
_cell_length_c                    23.483406
_cell_angle_alpha                 90.484223
_cell_angle_beta                  96.717492
_cell_angle_gamma                 68.50448
_cell_volume                      3076.80659187

loop_
_atom_site_label
_atom_site_type_symbol
_atom_type_description
_atom_site_fract_x
_atom_site_fract_y
_atom_site_fract_z
_atom_type_partial_charge
C1    C     C_R   0.149791 0.616916 0.428997 0.543178
C2    C     C_R   0.651044 0.564878 0.311739 -0.123884
C3    C     C_R   0.713898 0.729098 0.318814 -0.081264
C4    C     C_R   0.705204 0.738068 0.258981 0.043047
C5    C     C_R   0.676588 0.653839 0.226810 0.008865
C6    C     C_R   0.672257 0.656072 0.168143 -0.127772
C7    C     C_R   0.701152 0.835513 0.169731 -0.122343
C8    C     C_R   0.725101 0.826692 0.229861 0.211984
C9    C     C_1   0.235965 0.161185 0.123235 0.057243
C10   C     C_2   0.179106 0.225651 0.227537 -0.096884
C11   C     C_2   0.162690 0.154106 0.265317 0.263085
C12   C     C_R   0.748674 0.604723 0.404271 0.536438
C13   C     C_1   0.136520 0.191574 0.322377 -0.020778
C14   C     C_1   0.210200 0.193794 0.170293 0.039223
C15   C     C_1   0.117954 0.228163 0.369461 0.001071
C16   C     C_1   0.167549 0.750630 0.123951 0.035010
C17   C     C_2   0.142475 0.691482 0.228612 -0.072238
C18   C     C_2   0.237037 0.678552 0.271970 -0.064719
C19   C     C_1   0.218908 0.654176 0.329631 -0.015151
C20   C     C_1   0.155116 0.722434 0.171213 -0.008102
C21   C     C_1   0.194808 0.635789 0.376514 0.021869
C22   C     C_1   0.632486 0.751541 0.866068 -0.008580
C23   C     C_R   0.101461 0.281708 0.423589 0.549122
C24   C     C_2   0.708735 0.679506 0.765482 0.233242
C25   C     C_2   0.620602 0.713169 0.718366 -0.125633
C26   C     C_1   0.652568 0.674283 0.662133 0.011872
C27   C     C_1   0.670773 0.721695 0.820461 -0.044011
C28   C     C_1   0.689286 0.641403 0.616649 0.033589
C29   C     C_R   0.193234 0.197161 0.858735 0.014471
C30   C     C_R   0.103591 0.241105 0.644810 0.016070
C31   C     C_R   0.994270 0.199588 0.720131 -0.072661
C32   C     C_R   0.003158 0.211777 0.661900 -0.132782
C33   C     C_R   0.195774 0.256235 0.686158 -0.101444
C34   C     C_R   0.151201 0.616947 0.590472 0.553198
C35   C     C_R   0.186102 0.247033 0.743862 0.023525
C36   C     C_R   0.084774 0.218358 0.761983 0.072215
C37   C     C_R   0.081494 0.205138 0.821319 0.268564
C38   C     C_R   0.281168 0.241959 0.840824 -0.142135
C39   C     C_R   0.276700 0.267897 0.783642 -0.125929
C40   C     C_R   0.129549 0.751833 0.850179 -0.026463
C41   C     C_R   0.197343 0.638958 0.648307 0.013171
C42   C     C_R   0.305099 0.563049 0.742378 -0.111920
C43   C     C_R   0.293771 0.553312 0.683126 -0.119076
C44   C     C_R   0.120660 0.737879 0.672568 -0.106594
C45   C     C_R   0.749135 0.602679 0.565725 0.553702
C46   C     C_R   0.119229 0.742687 0.731523 0.085743
C47   C     C_R   0.214863 0.654692 0.766846 0.055908
C48   C     C_R   0.220518 0.660925 0.826077 -0.117438
C49   C     C_R   0.023072 0.827601 0.815327 -0.100112
C50   C     C_R   0.020438 0.829253 0.756004 0.037268
C51   C     C_R   0.265645 0.110148 0.069363 0.556268
C52   C     C_R   0.600917 0.774322 0.081013 0.557090
C53   C     C_R   0.189576 0.787879 0.069836 0.552701
C54   C     C_R   0.239076 0.119831 0.909447 0.555214
C55   C     C_R   0.574416 0.775906 0.918376 0.551455
C56   C     C_R   0.098994 0.281305 0.586314 0.550396
C57   C     C_R   0.163807 0.786606 0.907024 0.536128
C58   C     C_R   0.669627 0.752284 0.139115 -0.031275
C59   C     C_R   0.693864 0.638985 0.345068 -0.007912
C60   C     C_R   0.645648 0.570548 0.252960 -0.129853
Cr1   Cr    Cr6+3 0.189770 0.415650 0.511620 1.036390
Cr2   Cr    Cr6+3 0.930400 0.667320 0.496770 1.054567
Cr3   Cr    Cr6+3 0.879870 0.417010 0.491650 1.053136
Cr4   Cr    Cr6+3 0.149500 0.973980 0.985330 1.120285
Cr5   Cr    Cr6+3 0.457000 0.976510 0.994660 1.045301
Cr6   Cr    Cr6+3 0.411170 0.724270 0.995270 1.046781
H1    H     H_    0.653108 0.588585 0.144969 0.151028
H2    H     H_    0.052766 0.681900 0.236329 0.140066
H3    H     H_    0.523741 0.774328 0.721624 0.083139
H4    H     H_    0.361706 0.246339 0.870092 0.150340
H5    H     H_    0.917511 0.174473 0.731825 0.164030
H6    H     H_    0.350712 0.295204 0.770158 0.114885
H7    H     H_    0.929754 0.201398 0.630329 0.125060
H8    H     H_    0.272366 0.281311 0.673671 0.130139
H9    H     H_    0.300455 0.599340 0.853136 0.137194
H10   H     H_    0.700891 0.909278 0.146994 0.163859
H11   H     H_    0.947468 0.892120 0.834637 0.168324
H12   H     H_    0.378920 0.495891 0.769112 0.121658
H13   H     H_    0.354925 0.476565 0.664969 0.128725
H14   H     H_    0.051098 0.805260 0.644831 0.129707
H15   H     H_    0.618938 0.508670 0.227955 0.127463
H16   H     H_    0.632499 0.496212 0.331118 0.153877
H17   H     H_    0.742950 0.787439 0.345405 0.199709
H18   H     H_    0.170131 0.310472 0.239953 0.082211
H19   H     H_    0.326309 0.689321 0.264632 0.159080
O1    O     O_R   0.196340 0.303200 0.448500 -0.504506
O2    O     O_R   0.811960 0.658090 0.547150 -0.496197
O3    O     O_R   0.757930 0.506140 0.547110 -0.501197
O4    O     O_R   0.988670 0.321620 0.556040 -0.490956
O5    O     O_3   0.000020 0.499990 0.500010 -0.252850
O6    O     O_R   0.113660 0.883270 0.047820 -0.489370
O7    O     O_R   0.186930 0.068530 0.043990 -0.473700
O8    O     O_R   0.377770 0.089040 0.054220 -0.505227
O9    O     O_R   0.562800 0.872960 0.056970 -0.493941
O10   O     O_R   0.555390 0.700940 0.062700 -0.513602
O11   O     O_R   0.295020 0.731920 0.049950 -0.500967
O12   O     O_R   0.199310 0.519670 0.454880 -0.502224
O13   O     O_R   0.094290 0.884230 0.921550 -0.486004
O14   O     O_R   0.168980 0.069410 0.926940 -0.426091
O15   O     O_R   0.358400 0.089990 0.927950 -0.535947
O16   O     O_R   0.544850 0.873850 0.939920 -0.500363
O17   O     O_R   0.536020 0.701900 0.936430 -0.491377
O18   O     O_R   0.277070 0.732810 0.932890 -0.507326
O19   O     O_3   0.339220 0.891590 0.991750 -0.265557
O20   O     O_R   0.045660 0.691380 0.441680 -0.481155
O21   O     O_R   0.811930 0.659460 0.430950 -0.502154
O22   O     O_R   0.757900 0.507620 0.421760 -0.514240
O23   O     O_R   0.988630 0.322990 0.439840 -0.486405
O24   O     O_R   0.196380 0.301720 0.573850 -0.523446
O25   O     O_R   0.199350 0.518300 0.571080 -0.500824
O26   O     O_R   0.045700 0.689900 0.567030 -0.519527
S1    S     S_3+6 0.864624 0.573837 0.763417 0.040719
O27   O     O_2   0.848991 0.467966 0.741225 -0.207063
O28   O     O_2   0.938072 0.611475 0.723513 -0.313615
O29   O     O_3   0.948836 0.545729 0.829307 -0.471368
H20   H     H_    0.961244 0.616782 0.840146 0.330008
S2    S     S_3+6 0.936238 0.216229 0.849399 0.031507
O30   O     O_2   0.938380 0.258248 0.909410 -0.257260
O31   O     O_2   0.820070 0.297553 0.812839 -0.249950
O32   O     O_3   0.923688 0.089048 0.850516 -0.571374
H21   H     H_    0.841672 0.101564 0.866729 0.353919
C61   C     C_3   0.914421 0.926389 0.721313 -0.288715
C62   C     C_3   0.805841 0.890824 0.692830 -0.413293
H22   H     H_    0.733040 0.962796 0.666286 0.132691
H23   H     H_    0.843437 0.818344 0.664790 0.197112
H24   H     H_    0.756979 0.867191 0.726287 0.160581
H25   H     H_    0.870103 0.997406 0.749420 0.173188
H26   H     H_    0.955379 0.962180 0.688974 0.125028
S3    S     S_3+6 0.770430 0.931308 0.266482 0.028721
O33   O     O_2   0.663542 0.999538 0.300318 -0.235665
O34   O     O_2   0.892413 0.875841 0.307020 -0.263313
O35   O     O_3   0.796084 0.018478 0.220007 -0.465761
H27   H     H_    0.874527 0.970730 0.203053 0.370783
S4    S     S_3+6 0.178368 0.014061 0.248563 0.036005
O36   O     O_2   0.092554 0.015518 0.194027 -0.257204
O37   O     O_2   0.316779 0.946306 0.240058 -0.294809
O38   O     O_3   0.134989 0.953358 0.301869 -0.456970
H28   H     H_    0.208835 0.934353 0.332782 0.339321

loop_
_geom_bond_atom_site_label_1
_geom_bond_atom_site_label_2
_ccdc_geom_bond_type
C30   C32   A    
C38   H4    S    
C1    C21   S    
C7    C8    A    
Cr3   O3    S    
C6    C58   A    
C35   C36   A    
C50   C61   S    
C24   C27   S    
Cr5   O16   S    
C4    C8    A    
Cr1   O24   S    
S4    O38   S    
S1    O28   D    
C22   C55   S    
C62   H22   S    
Cr2   O20   S    
Cr1   O5    S    
C55   O17   A    
C36   C37   A    
C45   O2    A    
S2    O31   D    
C5    C6    A    
C2    C60   A    
C62   H23   S    
C29   C54   S    
C23   O23   A    
C43   H13   S    
C40   C49   A    
C17   C20   S    
C52   O10   A    
C40   C48   A    
C18   C19   S    
C10   H18   S    
C61   H25   S    
Cr6   O17   S    
C16   C53   S    
C12   C59   S    
Cr4   O14   S    
Cr2   O26   S    
C31   C32   A    
O35   H27   S    
C23   O1    A    
C9    C51   S    
C29   C38   A    
C53   O6    A    
C39   H6    S    
C52   O9    A    
C7    C58   A    
C5    C60   A    
S3    O35   S    
C15   C23   S    
C53   O11   A    
C34   O26   A    
C41   C43   A    
C48   H9    S    
C54   O15   A    
C34   C41   S    
Cr1   O25   S    
S1    O27   D    
C44   C46   A    
C57   O18   A    
C28   C45   S    
C18   H19   S    
Cr1   O1    S    
Cr6   O19   S    
C44   H14   S    
C45   O3    A    
C24   C25   D    
C10   C14   S    
C11   S4    S    
C1    O12   A    
C32   H7    S    
C2    C59   A    
C62   H24   S    
S4    O37   D    
C25   C26   S    
C30   C56   S    
C35   C39   A    
C9    C14   T    
C51   O7    A    
C60   H15   S    
C47   C48   A    
C16   C20   T    
Cr3   O4    S    
C17   C18   D    
S4    O36   D    
C52   C58   S    
C51   O8    A    
C56   O4    A    
C42   H12   S    
C22   C27   T    
C13   C15   T    
C3    H17   S    
C34   O25   A    
C41   C44   A    
C54   O14   A    
S2    O32   S    
C25   H3    S    
C42   C43   A    
Cr4   O7    S    
Cr3   O22   S    
C3    C4    A    
C56   O24   A    
O32   H21   S    
Cr6   O11   S    
S3    O33   D    
Cr2   O2    S    
Cr4   O19   S    
C55   O16   A    
C46   C47   A    
Cr5   O9    S    
C17   H2    S    
C40   C57   S    
C30   C33   A    
C19   C21   T    
Cr6   O18   S    
Cr1   O12   S    
Cr5   O15   S    
C4    C5    A    
C12   O22   A    
C7    H10   S    
Cr2   O21   S    
O38   H28   S    
C46   C50   A    
C26   C28   T    
Cr5   O19   S    
C61   C62   S    
C6    H1    S    
S2    O30   D    
C12   O21   A    
C11   C13   S    
C38   C39   A    
C57   O13   A    
Cr2   O5    S    
Cr3   O5    S    
Cr4   O13   S    
Cr5   O8    S    
C33   C35   A    
C49   H11   S    
C42   C47   A    
C61   H26   S    
C24   S1    S    
C2    H16   S    
C10   C11   D    
C33   H8    S    
C37   S2    S    
C49   C50   A    
C29   C37   A    
C8    S3    S    
C31   C36   A    
Cr6   O10   S    
Cr4   O6    S    
Cr3   O23   S    
S1    O29   S    
O29   H20   S    
C1    O20   A    
C31   H5    S    
S3    O34   D    
C3    C59   A    
