data_mof_unit_17795.cif
_audit_creation_date              2012-12-10T17:22:25-0500
_audit_creation_method            fapswitch 2.2
_symmetry_space_group_name_H-M    P1
_symmetry_Int_Tables_number       1
_space_group_crystal_system       triclinic
_cell_length_a                    19.20385
_cell_length_b                    18.884113
_cell_length_c                    18.538084
_cell_angle_alpha                 109.079769
_cell_angle_beta                  109.931098
_cell_angle_gamma                 110.384167
_cell_volume                      5111.05951888

loop_
_atom_site_label
_atom_site_type_symbol
_atom_type_description
_atom_site_fract_x
_atom_site_fract_y
_atom_site_fract_z
_atom_type_partial_charge
C1    C     C_R   0.383092 0.380617 0.504169 0.856097
C2    C     C_3   0.807475 0.495402 0.806703 0.074224
C3    C     C_3   0.846605 0.556509 0.773594 -0.424966
C4    C     C_3   0.763559 0.533291 0.850709 -0.403709
C5    C     C_R   0.378184 0.408772 0.677711 0.184256
C6    C     C_R   0.359643 0.420675 0.746495 -0.161372
C7    C     C_R   0.288222 0.356962 0.735489 -0.197757
C8    C     C_R   0.233976 0.279392 0.656056 -0.160775
C9    C     C_R   0.244739 0.265817 0.581483 0.051857
C10   C     C_R   0.315384 0.332170 0.588735 0.014803
C11   C     C_R   0.184725 0.186254 0.500020 -0.183796
C12   C     C_R   0.620327 0.500849 0.622254 0.808493
C13   C     C_R   0.183948 0.173913 0.420871 0.065552
C14   C     C_R   0.244863 0.243267 0.422932 0.078948
C15   C     C_R   0.315664 0.317344 0.506685 -0.220825
C16   C     C_R   0.121546 0.094436 0.338648 -0.160135
C17   C     C_R   0.114390 0.087745 0.259166 -0.133032
C18   C     C_R   0.167513 0.160090 0.259685 -0.147622
C19   C     C_R   0.231332 0.237295 0.340147 -0.141082
C20   C     C_R   0.220669 0.460002 0.375266 -0.142859
C21   C     C_R   0.151330 0.457387 0.385092 -0.142684
C22   C     C_R   0.095753 0.474734 0.333171 -0.150833
C23   C     C_R   0.617461 0.620439 0.498098 0.863678
C24   C     C_R   0.106501 0.489770 0.267919 -0.143057
C25   C     C_R   0.173561 0.487165 0.252672 0.066305
C26   C     C_R   0.235319 0.479647 0.312248 0.070833
C27   C     C_R   0.182009 0.493913 0.181490 -0.212664
C28   C     C_R   0.252276 0.495131 0.171339 0.080369
C29   C     C_R   0.320946 0.502973 0.239854 0.072151
C30   C     C_R   0.310993 0.493560 0.308818 -0.209208
C31   C     C_R   0.256083 0.488734 0.094451 -0.142394
C32   C     C_R   0.330425 0.500643 0.091026 -0.149745
C33   C     C_R   0.402062 0.518553 0.163354 -0.142326
C34   C     C_R   0.379794 0.499015 0.378193 0.863733
C35   C     C_R   0.397729 0.519568 0.237127 -0.150998
C36   C     C_R   0.609072 0.770889 0.497444 -0.212621
C37   C     C_R   0.613683 0.851333 0.516698 0.072911
C38   C     C_R   0.686964 0.919896 0.532335 -0.192778
C39   C     C_R   0.752654 0.907881 0.526731 -0.163756
C40   C     C_R   0.749467 0.827472 0.508923 0.096721
C41   C     C_R   0.680011 0.760884 0.501115 0.063301
C42   C     C_R   0.815197 0.813161 0.501404 -0.200148
C43   C     C_R   0.821646 0.740932 0.504621 -0.006371
C44   C     C_R   0.761442 0.685720 0.516748 0.074488
C45   C     C_3   0.662682 0.401929 0.660914 -0.039912
C46   C     C_R   0.685821 0.688667 0.502429 -0.172766
C47   C     C_R   0.887573 0.723008 0.500998 0.156474
C48   C     C_R   0.912502 0.679335 0.544983 0.241581
C49   C     C_R   0.856588 0.632512 0.566105 -0.239030
C50   C     C_R   0.779644 0.631010 0.546754 -0.225703
C51   C     C_R   0.998282 0.379265 0.878404 0.859046
C52   C     C_R   0.876751 0.497134 0.873984 0.839700
C53   C     C_R   0.998126 0.620635 0.117743 0.866713
C54   C     C_R   0.117414 0.498646 0.117356 0.857143
C55   C     C_R   0.998182 0.879448 0.379037 0.847122
C56   C     C_3   0.739498 0.400291 0.723723 -0.166988
C57   C     C_R   0.119144 0.117506 0.497493 0.845038
C58   C     C_R   0.000862 0.119923 0.620018 0.855100
C59   C     C_R   0.880519 0.879123 0.499752 0.840933
C60   C     C_R   0.021393 0.399438 0.734722 0.216815
C61   C     C_R   0.075310 0.430840 0.702467 0.219070
C62   C     C_R   0.093743 0.373880 0.653959 -0.228089
C63   C     C_R   0.062488 0.290166 0.641883 -0.203081
C64   C     C_R   0.027043 0.267305 0.692013 0.040117
C65   C     C_R   0.014416 0.326693 0.746641 -0.003784
C66   C     C_R   0.002603 0.185859 0.687236 -0.161299
C67   C     C_3   0.773934 0.549231 0.697685 -0.505993
C68   C     C_R   0.975691 0.165847 0.743191 0.052527
C69   C     C_R   0.980170 0.231751 0.810980 0.088127
C70   C     C_R   0.996226 0.311279 0.810444 -0.213627
C71   C     C_R   0.944744 0.081185 0.732919 -0.215487
C72   C     C_R   0.921166 0.062768 0.790860 0.074369
C73   C     C_R   0.936082 0.131042 0.864727 -0.207421
C74   C     C_R   0.968160 0.215042 0.876571 -0.162812
C75   C     C_R   0.163960 0.776952 0.280945 0.196757
C76   C     C_R   0.235521 0.862950 0.330882 -0.142463
C77   C     C_R   0.228254 0.933054 0.373445 -0.199811
C78   C     C_3   0.700668 0.548341 0.787805 0.054013
C79   C     C_R   0.150340 0.917882 0.368527 -0.139734
C80   C     C_R   0.075436 0.832925 0.312412 0.054283
C81   C     C_R   0.079370 0.763809 0.258710 0.020717
C82   C     C_R   0.996518 0.816368 0.308301 -0.192015
C83   C     C_R   0.916852 0.741517 0.235398 0.067205
C84   C     C_R   0.918357 0.679854 0.169452 0.082984
C85   C     C_R   0.999209 0.687860 0.184553 -0.219588
C86   C     C_R   0.835436 0.726757 0.225570 -0.149869
C87   C     C_R   0.758165 0.656954 0.148868 -0.139025
C88   C     C_R   0.759761 0.600675 0.080195 -0.166715
C89   C     C_3   0.686646 0.500553 0.691960 0.075516
C90   C     C_R   0.838520 0.611743 0.089882 -0.165283
H1    H     H_    0.662095 0.378038 0.596910 0.132209
H2    H     H_    0.815335 0.595599 0.913989 0.168239
H3    H     H_    0.790207 0.615775 0.708982 0.167511
H4    H     H_    0.889609 0.625718 0.829136 0.196260
H5    H     H_    0.159333 0.156518 0.197610 0.137889
H6    H     H_    0.404371 0.478196 0.812304 0.138287
H7    H     H_    0.276779 0.366197 0.790282 0.152195
H8    H     H_    0.181943 0.231137 0.654481 0.159889
H9    H     H_    0.076710 0.037090 0.334364 0.142804
H10   H     H_    0.065615 0.027193 0.196847 0.138660
H11   H     H_    0.267563 0.292392 0.335654 0.155610
H12   H     H_    0.460624 0.529993 0.161641 0.132715
H13   H     H_    0.262275 0.446269 0.417478 0.147683
H14   H     H_    0.141781 0.443597 0.434365 0.132937
H15   H     H_    0.043583 0.475845 0.342908 0.131994
H16   H     H_    0.062230 0.504871 0.231653 0.156200
H17   H     H_    0.201705 0.473110 0.035577 0.155655
H18   H     H_    0.332679 0.496808 0.032373 0.131147
H19   H     H_    0.455169 0.533469 0.291443 0.144653
H20   H     H_    0.871195 0.594339 0.594886 0.153989
H21   H     H_    0.550290 0.717339 0.481442 0.151688
H22   H     H_    0.694595 0.983845 0.550416 0.127107
H23   H     H_    0.807479 0.964352 0.540757 0.157606
H24   H     H_    0.737553 0.591265 0.561726 0.162639
H25   H     H_    0.923297 0.119432 0.913617 0.138783
H26   H     H_    0.775091 0.393271 0.688389 0.113775
H27   H     H_    0.128253 0.392293 0.621404 0.152587
H28   H     H_    0.069358 0.245081 0.595409 0.158278
H29   H     H_    0.936053 0.027857 0.678331 0.138275
H30   H     H_    0.983584 0.265427 0.938189 0.172486
H31   H     H_    0.699794 0.547895 0.019293 0.130542
H32   H     H_    0.298640 0.875452 0.341464 0.139264
H33   H     H_    0.284355 0.998778 0.414322 0.146981
H34   H     H_    0.148653 0.973909 0.406471 0.141048
H35   H     H_    0.769992 0.512965 0.634136 0.177150
H36   H     H_    0.829198 0.768161 0.275869 0.156083
H37   H     H_    0.696867 0.647488 0.142152 0.131300
H38   H     H_    0.835104 0.566584 0.033397 0.154015
H39   H     H_    0.887169 0.539486 0.749668 0.179697
H40   H     H_    0.638050 0.517931 0.783226 0.149628
H41   H     H_    0.728737 0.490710 0.870571 0.136025
O1    O     O_R   0.408690 0.356690 0.448570 -0.624810
O2    O     O_R   0.049540 0.460090 0.906170 -0.633548
O3    O     O_R   0.853530 0.448360 0.905250 -0.630199
O4    O     O_R   0.956970 0.551730 0.905180 -0.635730
O5    O     O_R   0.945170 0.540000 0.088470 -0.630776
O6    O     O_R   0.048600 0.643370 0.088400 -0.617789
O7    O     O_R   0.037740 0.448360 0.089460 -0.632697
O8    O     O_R   0.141170 0.551730 0.089390 -0.634343
O9    O     O_R   0.948510 0.908450 0.356890 -0.633599
O10   O     O_R   0.052500 0.908420 0.460860 -0.627503
O11   O     O_R   0.039610 0.091640 0.448030 -0.620701
O12   O     O_R   0.408090 0.460090 0.551440 -0.613853
O13   O     O_R   0.143600 0.091610 0.551990 -0.624388
O14   O     O_R   0.947500 0.091600 0.539170 -0.621201
O15   O     O_R   0.051490 0.091570 0.643140 -0.626747
O16   O     O_R   0.856400 0.908420 0.448030 -0.628368
O17   O     O_R   0.960390 0.908390 0.552000 -0.626106
O18   O     O_R   0.592400 0.448300 0.540670 -0.636215
O19   O     O_R   0.591800 0.551700 0.643540 -0.647927
O20   O     O_R   0.591910 0.539910 0.448560 -0.617135
O21   O     O_R   0.591310 0.643310 0.551430 -0.634240
O22   O     O_R   0.408200 0.448300 0.356460 -0.625150
O23   O     O_R   0.407600 0.551700 0.459330 -0.626067
O24   O     O_R   0.946100 0.356720 0.906240 -0.616459
Zn1   Zn    Zn3+2 0.500400 0.430960 0.431310 0.931589
Zn2   Zn    Zn3+2 0.499600 0.569040 0.568690 0.883916
Zn3   Zn    Zn3+2 0.928290 0.431030 0.997370 0.930445
Zn4   Zn    Zn3+2 0.066410 0.569060 0.997270 0.910003
Zn5   Zn    Zn3+2 0.930570 0.000030 0.430590 0.936451
Zn6   Zn    Zn3+2 0.069430 0.999990 0.569430 0.928335
C91   C     C_3   0.470450 0.475305 0.712645 -0.371498
C92   C     C_3   0.484472 0.567498 0.739101 -0.762225
H42   H     H_    0.431905 0.566314 0.688223 0.262834
H43   H     H_    0.486325 0.596506 0.802834 0.203182
H44   H     H_    0.547087 0.611471 0.748973 0.255235
H45   H     H_    0.512423 0.478825 0.773975 0.162564
H46   H     H_    0.493824 0.453917 0.668258 0.218378
C93   C     C_3   0.568197 0.332198 0.628624 -0.374367
C94   C     C_3   0.541489 0.329724 0.697207 -0.901503
H47   H     H_    0.587766 0.387588 0.764034 0.244051
H48   H     H_    0.477108 0.323250 0.674840 0.243376
H49   H     H_    0.532977 0.270331 0.701463 0.262653
H50   H     H_    0.521218 0.338384 0.579947 0.205531
H51   H     H_    0.556641 0.266180 0.589198 0.206182
C95   C     C_R   0.715065 0.317764 0.732527 0.178844
C96   C     C_R   0.715558 0.247232 0.674940 -0.217096
C97   C     C_R   0.693941 0.170755 0.679511 -0.106904
C98   C     C_R   0.670784 0.162561 0.741128 -0.098211
C99   C     C_R   0.669200 0.230913 0.798249 -0.186877
C100  C     C_R   0.690823 0.307649 0.793996 -0.035575
H52   H     H_    0.732208 0.250877 0.625547 0.123476
H53   H     H_    0.694882 0.117657 0.634911 0.124863
H54   H     H_    0.653839 0.103160 0.744420 0.133261
H55   H     H_    0.651079 0.224493 0.846033 0.121966
H56   H     H_    0.688846 0.358479 0.839639 0.117032
C101  C     C_R   0.545619 0.866287 0.527180 0.112273
C102  C     C_R   0.523952 0.922162 0.502489 -0.175286
C103  C     C_R   0.465032 0.941496 0.518836 -0.152633
C104  C     C_R   0.426163 0.904587 0.558903 -0.118883
C105  C     C_R   0.445862 0.847947 0.582363 -0.139532
C106  C     C_R   0.505410 0.829050 0.567010 -0.153100
H57   H     H_    0.552628 0.951107 0.470696 0.122442
H58   H     H_    0.449293 0.984943 0.500150 0.131150
H59   H     H_    0.380269 0.919341 0.571115 0.135124
H60   H     H_    0.415623 0.819322 0.613357 0.128567
H61   H     H_    0.521610 0.787228 0.588530 0.130441
C107  C     C_3   0.915634 0.730096 0.435197 -0.394341
C108  C     C_3   0.884844 0.639721 0.361439 -0.894973
H62   H     H_    0.907102 0.602262 0.388284 0.251923
H63   H     H_    0.813013 0.601137 0.320495 0.269156
H64   H     H_    0.911103 0.647188 0.317958 0.264638
H65   H     H_    0.886430 0.758827 0.400806 0.193916
H66   H     H_    0.986853 0.772380 0.469892 0.226596
C109  C     C_3   0.995377 0.677541 0.566831 -0.434435
C110  C     C_3   0.056293 0.724622 0.667290 -0.895441
H67   H     H_    0.071796 0.793450 0.698711 0.261806
H68   H     H_    0.026652 0.690943 0.697307 0.256481
H69   H     H_    0.117422 0.724861 0.681270 0.252723
H70   H     H_    0.979349 0.608442 0.536694 0.200133
H71   H     H_    0.031439 0.709328 0.540107 0.217178
C111  C     C_3   0.952316 0.423065 0.725654 -0.382960
C112  C     C_3   0.889165 0.386405 0.627110 -0.956846
H72   H     H_    0.923121 0.400885 0.591342 0.265616
H73   H     H_    0.847114 0.314219 0.593350 0.266010
H74   H     H_    0.848081 0.415647 0.620333 0.240262
H75   H     H_    0.912980 0.395069 0.751809 0.197615
H76   H     H_    0.983468 0.495169 0.763572 0.216006
C113  C     C_3   0.108014 0.521454 0.713492 -0.445817
C114  C     C_3   0.172679 0.591912 0.811085 -0.872008
H77   H     H_    0.141746 0.588634 0.851693 0.260199
H78   H     H_    0.228697 0.583360 0.837158 0.259876
H79   H     H_    0.196633 0.657574 0.817449 0.246829
H80   H     H_    0.141063 0.529525 0.675311 0.203182
H81   H     H_    0.053997 0.532578 0.687464 0.216238
C115  C     C_R   0.880470 0.972028 0.773331 0.110386
C116  C     C_R   0.801519 0.934128 0.770373 -0.159195
C117  C     C_R   0.760535 0.846843 0.749201 -0.106313
C118  C     C_R   0.798547 0.797302 0.731987 -0.098491
C119  C     C_R   0.877556 0.834758 0.735914 -0.140275
C120  C     C_R   0.918031 0.921503 0.755517 -0.156359
H82   H     H_    0.770762 0.971484 0.782386 0.125626
H83   H     H_    0.699006 0.817392 0.745474 0.125143
H84   H     H_    0.766137 0.729566 0.714348 0.115625
H85   H     H_    0.906960 0.796277 0.722696 0.146366
H86   H     H_    0.978669 0.949295 0.757106 0.136146
C121  C     C_3   0.183671 0.704139 0.264807 -0.399620
C122  C     C_3   0.251368 0.719424 0.351010 -0.870777
H87   H     H_    0.315765 0.775409 0.377418 0.270677
H88   H     H_    0.231932 0.731337 0.401753 0.266726
H89   H     H_    0.258481 0.661646 0.338146 0.262165
H90   H     H_    0.125561 0.640818 0.236961 0.193264
H91   H     H_    0.208498 0.700210 0.218554 0.238771
C123  C     C_3   0.735174 0.648868 0.829769 -0.388870
C124  C     C_3   0.725433 0.685115 0.910430 -0.919953
H92   H     H_    0.657703 0.646689 0.893373 0.260958
H93   H     H_    0.768788 0.683951 0.967094 0.273110
H94   H     H_    0.742991 0.754166 0.932323 0.254963
H95   H     H_    0.804555 0.686330 0.851214 0.214405
H96   H     H_    0.701126 0.665015 0.782459 0.227493

loop_
_geom_bond_atom_site_label_1
_geom_bond_atom_site_label_2
_ccdc_geom_bond_type
C8    C9    A    
C66   C68   A    
C23   O21   A    
O10   Zn6   S    
C104  C105  A    
C55   O10   A    
O19   Zn2   S    
O13   Zn6   S    
C86   H36   S    
C52   O3    A    
C73   C74   A    
C92   H42   S    
C87   C88   A    
C1    O1    A    
C87   H37   S    
C97   C98   A    
C27   C54   S    
C7    C8    A    
C20   H13   S    
C37   C101  S    
C109  C110  S    
C115  C120  A    
C49   H20   S    
C122  H89   S    
C51   O24   A    
C62   C63   A    
C123  H96   S    
C57   O11   A    
C56   C95   S    
C53   O6    A    
O17   Zn6   S    
C36   C37   A    
C92   H43   S    
C37   C38   A    
C98   H54   S    
C10   C15   A    
C67   H35   S    
C5    C6    A    
C31   C32   A    
C110  H68   S    
C34   O22   A    
C94   H47   S    
C109  H71   S    
C65   C70   A    
C67   C89   S    
C123  C124  S    
C3    C67   S    
C106  H61   S    
C18   C19   A    
C93   C94   S    
C118  H84   S    
C49   C50   A    
C116  C117  A    
C8    H8    S    
C105  H60   S    
C114  H77   S    
C62   H27   S    
C33   C35   A    
C113  H80   S    
O21   Zn2   S    
C21   H14   S    
C103  H58   S    
C58   C66   S    
C83   C84   A    
C45   C56   S    
C68   C69   A    
C39   H23   S    
C48   C109  S    
C108  H64   S    
C41   C46   A    
C47   C107  S    
C120  H86   S    
C1    C15   S    
C51   C70   S    
C45   C89   S    
C9    C10   A    
C124  H94   S    
C97   H53   S    
C35   H19   S    
C72   C73   A    
O5    Zn3   S    
C59   O17   A    
C40   C42   A    
C116  H82   S    
C24   C25   A    
O8    Zn4   S    
C108  H62   S    
C23   C46   S    
C72   C115  S    
C13   C14   A    
O24   Zn3   S    
C18   H5    S    
C107  H65   S    
C124  H92   S    
C36   C41   A    
C103  C104  A    
C53   O5    A    
C84   C90   A    
C54   O8    A    
O16   Zn5   S    
C14   C19   A    
C114  H78   S    
C117  C118  A    
C118  C119  A    
C44   C46   A    
O12   Zn2   S    
C4    H41   S    
C77   C79   A    
C78   C89   S    
C56   H26   S    
C95   C100  A    
C3    H39   S    
O15   Zn6   S    
C122  H88   S    
C58   O14   A    
O4    Zn4   S    
C123  H95   S    
C121  H91   S    
C33   H12   S    
C12   O19   A    
C12   C89   S    
C119  H85   S    
C92   H44   S    
C38   C39   A    
C76   C77   A    
O23   Zn2   S    
C80   C82   A    
C19   H11   S    
C113  C114  S    
C63   H28   S    
C30   C34   S    
C110  H67   S    
C16   C17   A    
C25   C26   A    
C112  H72   S    
C91   C92   S    
C78   C123  S    
C55   O9    A    
C63   C64   A    
C32   C33   A    
C102  C103  A    
C50   H24   S    
C64   C66   A    
C2    C4    S    
C75   C76   A    
C4    C78   S    
C29   C30   A    
C1    O12   A    
C119  C120  A    
C60   C111  S    
O7    Zn3   S    
C111  H75   S    
C47   C48   A    
C93   H50   S    
C20   C21   A    
C36   H21   S    
C17   C18   A    
C93   H51   S    
C69   C74   A    
O20   Zn1   S    
C113  H81   S    
C55   C82   S    
C9    C11   A    
C117  H83   S    
C107  C108  S    
C2    C52   S    
C104  H59   S    
C96   C97   A    
C91   H46   S    
C121  H90   S    
C69   C70   A    
C95   C96   A    
O3    Zn3   S    
C88   C90   A    
C102  H57   S    
C115  C116  A    
C34   O23   A    
C6    H6    S    
C124  H93   S    
C43   C44   A    
C107  H66   S    
C51   O2    A    
C22   C24   A    
C79   C80   A    
C75   C121  S    
C24   H16   S    
C42   C43   A    
C38   H22   S    
O6    Zn4   S    
C28   C29   A    
C39   C40   A    
C99   C100  A    
C108  H63   S    
C96   H52   S    
C112  H74   S    
C44   C50   A    
C105  C106  A    
O14   Zn5   S    
C23   O20   A    
C122  H87   S    
C40   C41   A    
C7    H7    S    
C57   O13   A    
C86   C87   A    
C31   H17   S    
C12   O18   A    
O18   Zn1   S    
C28   C31   A    
C75   C81   A    
C84   C85   A    
C61   C113  S    
O11   Zn5   S    
C80   C81   A    
C20   C26   A    
C45   C93   S    
C42   C59   S    
C60   C65   A    
C53   C85   S    
C100  H56   S    
C58   O15   A    
C16   H9    S    
C26   C30   A    
C6    C7    A    
C98   C99   A    
C25   C27   A    
C22   H15   S    
C74   H30   S    
C79   H34   S    
C29   C35   A    
C73   H25   S    
C71   H29   S    
C76   H32   S    
C5    C91   S    
C2    C3    S    
C78   H40   S    
C112  H73   S    
C5    C10   A    
C11   C57   S    
O9    Zn5   S    
C11   C13   A    
C110  H69   S    
C54   O7    A    
C111  H76   S    
C109  H70   S    
C68   C71   A    
C48   C49   A    
C64   C65   A    
O22   Zn1   S    
O1    Zn1   S    
C101  C106  A    
C3    H4    S    
C61   C62   A    
C45   H1    S    
C17   H10   S    
C121  C122  S    
C99   H55   S    
C91   H45   S    
C101  C102  A    
C83   C86   A    
C71   C72   A    
C111  C112  S    
C82   C83   A    
C32   H18   S    
C13   C16   A    
C27   C28   A    
C67   H3    S    
C52   O4    A    
C90   H38   S    
C14   C15   A    
C60   C61   A    
C2    C56   S    
C94   H48   S    
O2    Zn4   S    
C21   C22   A    
C43   C47   A    
C114  H79   S    
C81   C85   A    
C88   H31   S    
C77   H33   S    
C4    H2    S    
C94   H49   S    
C59   O16   A    
