data_mof_unit_10360.cif
_audit_creation_date              2012-12-10T17:24:09-0500
_audit_creation_method            fapswitch 2.2
_symmetry_space_group_name_H-M    P1
_symmetry_Int_Tables_number       1
_space_group_crystal_system       triclinic
_cell_length_a                    10.234792
_cell_length_b                    10.363416
_cell_length_c                    16.565277
_cell_angle_alpha                 91.860389
_cell_angle_beta                  77.012224
_cell_angle_gamma                 94.100338
_cell_volume                      1707.46226203

loop_
_atom_site_label
_atom_site_type_symbol
_atom_type_description
_atom_site_fract_x
_atom_site_fract_y
_atom_site_fract_z
_atom_type_partial_charge
C1    C     C_R   0.554095 0.735490 0.497071 0.825670
C2    C     C_R   0.521103 0.511693 0.345334 0.939208
C3    C     C_R   0.476747 0.509201 0.746190 -0.291114
C4    C     C_R   0.546211 0.569363 0.262490 -0.295623
C5    C     C_R   0.589775 0.481286 0.778044 -0.126714
C6    C     C_R   0.463980 0.665763 0.245764 -0.157106
C7    C     C_R   0.587046 0.502081 0.862302 -0.105039
C8    C     C_R   0.487769 0.716606 0.166060 -0.081125
C9    C     C_R   0.478385 0.562004 0.913314 -0.084197
C10   C     C_R   0.594823 0.674482 0.104505 -0.094292
C11   C     C_R   0.364919 0.585158 0.883371 0.442007
C12   C     C_R   0.445241 0.264375 0.506985 0.850805
C13   C     C_R   0.691870 0.600504 0.125440 0.460460
C14   C     C_R   0.360202 0.550649 0.801597 0.405148
C15   C     C_R   0.664563 0.542687 0.203269 0.409260
C16   C     C_2   0.480047 0.598649 0.999047 -0.114571
C17   C     C_2   0.583499 0.670410 0.017927 -0.149062
C18   C     C_1   0.711093 0.432936 0.725995 0.270251
C19   C     C_1   0.355559 0.714390 0.309154 0.251099
C20   C     C_3   0.866107 0.506137 0.234128 -0.176093
C21   C     C_3   0.157807 0.453992 0.794634 -0.216795
C22   C     C_3   0.267960 0.772653 0.926116 -0.286317
C23   C     C_2   0.575987 0.875769 0.508586 0.270320
C24   C     C_3   0.896166 0.671919 0.049342 -0.320878
C25   C     C_1   0.398538 0.806918 0.145476 0.211817
C26   C     C_1   0.694312 0.456988 0.896383 0.228872
C27   C     C_3   0.629535 0.091348 0.666883 -0.276580
C28   C     C_3   0.297746 0.910652 0.679104 -0.280099
C29   C     C_3   0.285914 0.103065 0.423619 -0.234766
C30   C     C_3   0.703042 0.899191 0.373522 -0.277231
C31   C     C_1   0.141399 0.428282 0.410968 0.239055
C32   C     C_1   0.902681 0.662637 0.510641 0.261830
C33   C     C_1   0.092975 0.609954 0.607470 0.359464
C34   C     C_2   0.419268 0.124605 0.522286 0.216292
C35   C     C_1   0.870211 0.317261 0.463419 0.342445
C36   C     C_2   0.491891 0.930831 0.573421 0.375910
C37   C     C_2   0.485844 0.073948 0.574658 0.386072
C38   C     C_2   0.935096 0.530582 0.489835 -0.071787
C39   C     C_2   0.079599 0.502108 0.483183 -0.049215
C40   C     C_R   0.482482 0.501601 0.656004 0.977237
H1    H     H_    0.667718 0.704368 0.969342 0.165159
H2    H     H_    0.182465 0.815241 0.969558 0.179954
H3    H     H_    0.263962 0.799565 0.862342 0.180421
H4    H     H_    0.858226 0.750530 0.018725 0.152789
H5    H     H_    0.987705 0.639701 0.006250 0.248084
H6    H     H_    0.925909 0.710718 0.106535 0.138786
H7    H     H_    0.712490 0.047744 0.621423 0.195877
H8    H     H_    0.570296 0.017368 0.709719 0.170332
H9    H     H_    0.675670 0.162059 0.705417 0.191273
H10   H     H_    0.235152 0.838802 0.721827 0.218631
H11   H     H_    0.236281 0.939138 0.635909 0.192722
H12   H     H_    0.396230 0.562778 0.047529 0.182749
H13   H     H_    0.323272 0.994738 0.717339 0.150031
H14   H     H_    0.362247 0.160245 0.377610 0.159826
H15   H     H_    0.205715 0.163608 0.458128 0.185072
H16   H     H_    0.237197 0.028626 0.388450 0.204422
H17   H     H_    0.611269 0.868218 0.350529 0.145244
H18   H     H_    0.768423 0.817482 0.371222 0.168661
H19   H     H_    0.760631 0.973950 0.330857 0.203036
H20   H     H_    0.903243 0.441637 0.274998 0.176360
H21   H     H_    0.854253 0.602056 0.266626 0.104626
H22   H     H_    0.944075 0.514810 0.175729 0.188184
H23   H     H_    0.204374 0.367440 0.761807 0.134996
H24   H     H_    0.063742 0.465528 0.773809 0.192883
H25   H     H_    0.129386 0.438073 0.862651 0.181333
H26   H     H_    0.362064 0.815795 0.941885 0.169600
N1    N     N_2   0.846390 0.448330 0.467170 -0.172895
N2    N     N_1   0.889409 0.208295 0.460425 -0.198537
N3    N     N_2   0.153610 0.551670 0.532830 -0.154958
N4    N     N_1   0.808426 0.395293 0.684972 -0.232810
N5    N     N_1   0.269133 0.753528 0.359482 -0.188825
N6    N     N_1   0.327374 0.878837 0.129089 -0.224801
N7    N     N_1   0.780202 0.419468 0.922335 -0.150204
N8    N     N_1   0.188124 0.368766 0.352564 -0.239515
N9    N     N_1   0.880175 0.769271 0.527713 -0.193488
N10   N     N_1   0.042591 0.658769 0.669379 -0.231810
O1    O     O_R   0.430310 0.692580 0.506610 -0.566280
O2    O     O_3   0.243623 0.566796 0.775202 -0.574904
O3    O     O_3   0.255227 0.637208 0.935289 -0.614876
O4    O     O_3   0.801755 0.564613 0.066029 -0.571333
O5    O     O_3   0.546676 0.156418 0.626288 -0.641888
O6    O     O_3   0.414399 0.852391 0.636158 -0.633576
O7    O     O_3   0.345441 0.040000 0.478889 -0.651446
O8    O     O_3   0.670684 0.954018 0.454060 -0.619840
O9    O     O_R   0.569690 0.307420 0.493390 -0.562749
O10   O     O_R   0.652740 0.659410 0.485540 -0.629467
O11   O     O_R   0.347260 0.340590 0.514460 -0.636433
O12   O     O_R   0.375640 0.518570 0.627580 -0.551281
O13   O     O_R   0.624360 0.481430 0.372420 -0.581804
O14   O     O_R   0.598070 0.485390 0.606510 -0.597990
O15   O     O_R   0.401930 0.514610 0.393490 -0.610644
O16   O     O_3   0.745008 0.448064 0.218190 -0.569068
Zn1   Zn    Zn3+2 0.351480 0.522150 0.514070 0.997966
Zn2   Zn    Zn3+2 0.648520 0.477850 0.485930 0.987789

loop_
_geom_bond_atom_site_label_1
_geom_bond_atom_site_label_2
_ccdc_geom_bond_type
C27   H8    S    
C18   N4    T    
C34   C37   D    
C1    O1    A    
C19   N5    T    
C32   N9    T    
C6    C19   S    
C20   O16   S    
C7    C26   S    
C12   O9    A    
C24   H5    S    
C36   C37   S    
C9    C16   S    
C22   O3    S    
C29   O7    S    
N3    Zn1   S    
C38   C39   S    
C28   H11   S    
C29   H14   S    
C10   C17   S    
C30   H17   S    
C30   H18   S    
O13   Zn2   S    
C26   N7    T    
C20   H21   S    
C22   H26   S    
C21   H24   S    
O10   Zn2   S    
C15   O16   S    
C28   H10   S    
C24   O4    S    
C36   O6    S    
C16   C17   D    
C21   O2    S    
N1    Zn2   S    
C32   C38   S    
C20   H20   S    
C33   N3    S    
C13   O4    S    
C20   H22   S    
C8    C25   S    
C37   O5    S    
O14   Zn2   S    
C23   O8    S    
C28   O6    S    
C27   O5    S    
C4    C6    A    
C5    C7    A    
C31   N8    T    
C6    C8    A    
C5    C18   S    
C29   H15   S    
C2    O13   A    
C2    C4    S    
O15   Zn1   S    
O9    Zn2   S    
C33   N10   T    
C22   H3    S    
C35   N1    S    
C30   H19   S    
C39   N3    D    
C25   N6    T    
C9    C11   A    
C3    C14   A    
C11   O3    S    
C3    C40   S    
C1    C23   S    
C13   C15   A    
C24   H4    S    
C34   O7    S    
C12   C34   S    
C27   H7    S    
C1    O10   A    
C7    C9    A    
O12   Zn1   S    
C12   O11   A    
C21   H25   S    
C16   H12   S    
C3    C5    A    
C10   C13   A    
C28   H13   S    
C29   H16   S    
C24   H6    S    
C40   O12   A    
C4    C15   A    
C22   H2    S    
C35   N2    T    
O11   Zn1   S    
O1    Zn1   S    
C11   C14   A    
C31   C39   S    
C14   O2    S    
C30   O8    S    
C2    O15   A    
C17   H1    S    
C21   H23   S    
C38   N1    D    
C8    C10   A    
C23   C36   D    
C40   O14   A    
C27   H9    S    
