data_mof_unit_64239.cif
_audit_creation_date              2012-10-26T18:03:25-0400
_audit_creation_method            fapswitch 2.2
_symmetry_space_group_name_H-M    P1
_symmetry_Int_Tables_number       1
_space_group_crystal_system       monoclinic
_cell_length_a                    38.599787
_cell_length_b                    32.223794
_cell_length_c                    21.798992
_cell_angle_alpha                 90.0
_cell_angle_beta                  123.362182
_cell_angle_gamma                 90.0
_cell_volume                      22646.1412302

loop_
_atom_site_label
_atom_site_type_symbol
_atom_type_description
_atom_site_fract_x
_atom_site_fract_y
_atom_site_fract_z
_atom_type_partial_charge
C1    C     C_R   0.920503 0.999981 0.418435 0.533637
C2    C     C_R   0.971201 0.977494 0.252704 -0.012054
C3    C     C_1   0.500000 0.338276 0.000000 -0.062790
C4    C     C_1   0.000000 0.875762 0.000000 -0.029406
C5    C     C_1   0.500000 0.375762 0.000000 -0.029409
C6    C     C_1   0.500000 0.124053 0.000000 -0.030071
C7    C     C_1   1.000000 0.624053 0.000000 -0.030068
C8    C     C_R   0.475382 0.771845 0.934015 -0.107801
C9    C     C_R   0.524618 0.771845 0.065985 -0.107801
C10   C     C_R   0.975186 0.271845 0.934077 -0.107793
C11   C     C_R   0.024814 0.271845 0.065923 -0.107793
C12   C     C_R   0.931065 0.041325 0.624867 0.038030
C13   C     C_R   0.528796 0.477489 0.747293 -0.012060
C14   C     C_R   0.068935 0.041325 0.375133 0.038030
C15   C     C_R   0.431071 0.541334 0.624873 0.038034
C16   C     C_R   0.568928 0.541334 0.375127 0.038033
C17   C     C_R   0.500000 0.793722 0.000000 0.037487
C18   C     C_R   0.000000 0.293722 0.000000 0.037504
C19   C     C_R   0.024811 0.228384 0.065925 -0.107528
C20   C     C_R   0.975189 0.228384 0.934075 -0.107528
C21   C     C_R   0.524615 0.728384 0.065987 -0.107533
C22   C     C_R   0.475385 0.728384 0.934013 -0.107533
C23   C     C_R   0.000000 0.206510 0.000000 0.038742
C24   C     C_R   0.471204 0.477489 0.252707 -0.012060
C25   C     C_R   0.500000 0.706510 0.000000 0.038741
C26   C     C_1   0.500000 0.838522 0.000000 -0.062364
C27   C     C_1   0.000000 0.338522 0.000000 -0.062354
C28   C     C_1   0.000000 0.161717 0.000000 -0.063283
C29   C     C_1   0.500000 0.661717 0.000000 -0.063283
C30   C     C_R   0.911649 0.074877 0.635551 -0.095278
C31   C     C_R   0.088351 0.074877 0.364449 -0.095279
C32   C     C_R   0.411660 0.574889 0.635561 -0.095282
C33   C     C_R   0.588340 0.574890 0.364439 -0.095282
C34   C     C_R   0.922826 0.085924 0.705686 -0.139237
C35   C     C_R   0.028689 0.978781 0.810972 -0.138743
C36   C     C_R   0.077174 0.085923 0.294314 -0.139237
C37   C     C_R   0.422837 0.585934 0.705698 -0.139249
C38   C     C_R   0.577163 0.585934 0.294302 -0.139249
C39   C     C_R   0.951975 0.062391 0.765493 -0.099824
C40   C     C_R   0.048025 0.062391 0.234508 -0.099824
C41   C     C_R   0.451983 0.562396 0.765501 -0.099834
C42   C     C_R   0.548017 0.562396 0.234499 -0.099834
C43   C     C_R   0.973436 0.029976 0.756539 0.011156
C44   C     C_R   0.026564 0.029975 0.243461 0.011156
C45   C     C_R   0.473439 0.529979 0.756543 0.011153
C46   C     C_R   0.971311 0.978781 0.189028 -0.138743
C47   C     C_R   0.526560 0.529979 0.243457 0.011153
C48   C     C_R   0.967294 0.023323 0.687064 0.017566
C49   C     C_R   0.032706 0.023322 0.312936 0.017566
C50   C     C_R   0.467297 0.523327 0.687067 0.017563
C51   C     C_R   0.532703 0.523327 0.312933 0.017563
C52   C     C_3   0.064048 0.954068 0.750881 -0.268437
C53   C     C_3   0.097624 0.983854 0.761240 -0.418662
C54   C     C_3   0.935951 0.954068 0.249118 -0.268437
C55   C     C_3   0.902376 0.983855 0.238760 -0.418662
C56   C     C_3   0.564041 0.454057 0.750876 -0.268429
C57   C     C_R   0.528685 0.478777 0.810969 -0.138748
C58   C     C_3   0.597621 0.483837 0.761233 -0.418654
C59   C     C_3   0.435959 0.454057 0.249124 -0.268429
C60   C     C_3   0.402379 0.483837 0.238767 -0.418655
C61   C     C_3   0.907516 0.021547 0.549547 -0.262585
C62   C     C_3   0.864780 0.006161 0.528572 -0.452956
C63   C     C_3   0.092484 0.021547 0.450453 -0.262585
C64   C     C_3   0.135220 0.006160 0.471428 -0.452956
C65   C     C_3   0.407519 0.521559 0.549550 -0.262580
C66   C     C_3   0.364780 0.506179 0.528574 -0.452962
C67   C     C_3   0.592481 0.521559 0.450450 -0.262579
C68   C     C_R   0.471315 0.478777 0.189031 -0.138748
C69   C     C_3   0.635220 0.506180 0.471426 -0.452962
C70   C     C_3   0.796485 0.921085 0.320197 -0.271072
C71   C     C_3   0.810384 0.898799 0.275453 -0.434790
C72   C     C_3   0.203515 0.921085 0.679804 -0.271071
C73   C     C_3   0.189616 0.898799 0.724549 -0.434790
C74   C     C_3   0.296484 0.421097 0.320271 -0.271076
C75   C     C_3   0.310383 0.398784 0.275548 -0.434785
C76   C     C_3   0.703515 0.421098 0.679724 -0.271076
C77   C     C_3   0.689617 0.398783 0.724446 -0.434785
C78   C     C_3   0.703090 0.920254 0.220120 -0.274370
C79   C     C_R   0.001213 0.004320 0.815705 -0.013852
C80   C     C_3   0.689476 0.915087 0.273505 -0.438601
C81   C     C_3   0.296910 0.920254 0.779881 -0.274370
C82   C     C_3   0.310524 0.915087 0.726496 -0.438601
C83   C     C_3   0.203089 0.420263 0.220199 -0.274372
C84   C     C_3   0.189477 0.415128 0.273592 -0.438604
C85   C     C_3   0.796911 0.420263 0.779795 -0.274373
C86   C     C_3   0.810522 0.415131 0.726401 -0.438603
C87   C     C_3   0.706936 0.075867 0.181158 -0.251255
C88   C     C_3   0.691076 0.095411 0.225438 -0.291646
C89   C     C_3   0.667657 0.135674 0.190035 -0.454183
C90   C     C_R   0.998787 0.004320 0.184294 -0.013852
C91   C     C_3   0.293064 0.075867 0.818841 -0.251255
C92   C     C_3   0.308924 0.095411 0.774561 -0.291646
C93   C     C_3   0.332343 0.135674 0.809963 -0.454183
C94   C     C_3   0.206937 0.575854 0.181063 -0.251263
C95   C     C_3   0.191077 0.595431 0.225319 -0.291638
C96   C     C_3   0.167660 0.635688 0.189868 -0.454175
C97   C     C_3   0.793063 0.575853 0.818943 -0.251262
C98   C     C_3   0.808923 0.595432 0.774688 -0.291638
C99   C     C_3   0.832340 0.635689 0.810143 -0.454176
C100  C     C_R   0.501213 0.504319 0.815706 -0.013854
C101  C     C_R   0.079497 0.999981 0.581565 0.533637
C102  C     C_R   0.498786 0.504319 0.184294 -0.013854
C103  C     C_R   0.727790 0.960149 0.235530 0.036353
C104  C     C_R   0.272210 0.960149 0.764471 0.036353
C105  C     C_R   0.227790 0.460153 0.235566 0.036356
C106  C     C_R   0.772210 0.460154 0.764431 0.036356
C107  C     C_R   0.706367 0.997954 0.203464 0.039231
C108  C     C_R   0.293633 0.997954 0.796536 0.039231
C109  C     C_R   0.206367 0.497953 0.203460 0.039231
C110  C     C_R   0.793633 0.497953 0.796540 0.039231
C111  C     C_R   0.728699 0.035023 0.214774 -0.002996
C112  C     C_R   0.420503 0.499981 0.418435 0.533638
C113  C     C_R   0.271301 0.035024 0.785225 -0.002996
C114  C     C_R   0.228700 0.535017 0.214729 -0.002993
C115  C     C_R   0.771300 0.535016 0.785274 -0.002993
C116  C     C_R   0.772088 0.034215 0.257718 -0.124163
C117  C     C_R   0.227912 0.034215 0.742282 -0.124163
C118  C     C_R   0.272089 0.534209 0.257674 -0.124163
C119  C     C_R   0.727911 0.534208 0.742328 -0.124163
C120  C     C_R   0.793712 0.997597 0.290714 0.016359
C121  C     C_R   0.206288 0.997597 0.709286 0.016359
C122  C     C_R   0.293712 0.497597 0.290711 0.016360
C123  C     C_R   0.579497 0.499981 0.581565 0.533638
C124  C     C_R   0.706288 0.497596 0.709288 0.016360
C125  C     C_R   0.772026 0.960195 0.281130 0.042849
C126  C     C_R   0.227974 0.960195 0.718871 0.042849
C127  C     C_R   0.272026 0.460200 0.281166 0.042851
C128  C     C_R   0.727974 0.460201 0.718832 0.042852
C129  C     C_R   0.999493 0.999896 0.618718 0.539787
C130  C     C_R   0.000506 0.999896 0.381282 0.539787
C131  C     C_R   0.499494 0.499896 0.618718 0.539789
C132  C     C_R   0.500506 0.499896 0.381281 0.539790
C133  C     C_1   0.661338 0.998824 0.158910 -0.070018
C134  C     C_R   0.997464 0.999242 0.683951 0.006996
C135  C     C_1   0.338662 0.998824 0.841090 -0.070018
C136  C     C_1   0.161338 0.498824 0.158908 -0.070018
C137  C     C_1   0.838662 0.498824 0.841092 -0.070018
C138  C     C_1   0.838567 0.999221 0.335024 -0.073853
C139  C     C_1   0.161433 0.999221 0.664976 -0.073852
C140  C     C_1   0.338567 0.499221 0.335022 -0.073853
C141  C     C_1   0.661433 0.499221 0.664978 -0.073853
C142  C     C_1   0.875977 0.999858 0.372753 -0.051504
C143  C     C_1   0.124023 0.999858 0.627247 -0.051504
C144  C     C_1   0.375977 0.499858 0.372752 -0.051505
C145  C     C_R   0.002535 0.999242 0.316049 0.006996
C146  C     C_1   0.624023 0.499858 0.627248 -0.051505
C147  C     C_1   0.623902 0.999439 0.122227 -0.039163
C148  C     C_1   0.376098 0.999439 0.877773 -0.039163
C149  C     C_1   0.123902 0.499438 0.122226 -0.039165
C150  C     C_1   0.876098 0.499438 0.877774 -0.039164
C151  C     C_1   0.500000 0.876015 0.000000 -0.027765
C152  C     C_1   0.000000 0.376015 0.000000 -0.027761
C153  C     C_R   0.000000 0.920400 0.000000 0.559174
C154  C     C_R   0.500000 0.420399 0.000000 0.559166
C155  C     C_R   0.000407 0.001784 0.881518 0.544306
C156  C     C_R   0.497464 0.499242 0.683952 0.006989
C157  C     C_R   0.999592 0.001784 0.118482 0.544306
C158  C     C_R   0.500408 0.501784 0.881518 0.544301
C159  C     C_R   0.499592 0.501784 0.118482 0.544301
C160  C     C_R   0.000000 0.079593 0.000000 0.539217
C161  C     C_R   0.500000 0.579593 0.000000 0.539211
C162  C     C_R   0.500000 0.920666 0.000000 0.550570
C163  C     C_R   0.000000 0.420666 0.000000 0.550566
C164  C     C_R   0.579352 0.999940 0.078816 0.550509
C165  C     C_R   0.420648 0.999940 0.921184 0.550508
C166  C     C_R   0.079352 0.499940 0.078816 0.550504
C167  C     C_R   0.502535 0.499242 0.316048 0.006989
C168  C     C_R   0.920648 0.499940 0.921184 0.550504
C169  C     C_1   0.000000 0.124230 0.000000 -0.035174
C170  C     C_1   0.500000 0.624230 0.000000 -0.035175
C171  C     C_R   0.500000 0.079429 0.000000 0.549680
C172  C     C_R   0.000000 0.579429 0.000000 0.549679
C173  C     C_R   0.462524 0.228165 0.959071 -0.108278
C174  C     C_R   0.537476 0.228165 0.040929 -0.108278
C175  C     C_R   0.962460 0.728165 0.960419 -0.108273
C176  C     C_R   0.037540 0.728165 0.039580 -0.108272
C177  C     C_R   0.500000 0.206304 1.000000 0.038669
C178  C     C_R   0.028799 0.977494 0.747296 -0.012054
C179  C     C_R   1.000000 0.706304 0.000000 0.038676
C180  C     C_R   0.037538 0.771620 0.039575 -0.107917
C181  C     C_R   0.962462 0.771620 0.960424 -0.107916
C182  C     C_R   0.537474 0.271620 0.040926 -0.107922
C183  C     C_R   0.462526 0.271620 0.959074 -0.107922
C184  C     C_R   1.000000 0.793489 0.000000 0.037369
C185  C     C_R   0.500000 0.293489 1.000000 0.037359
C186  C     C_1   0.500000 0.161530 0.000000 -0.064026
C187  C     C_1   1.000000 0.661530 0.000000 -0.064022
C188  C     C_1   0.000000 0.838276 0.000000 -0.062786
Cu1   Cu    Cu3+1 0.000000 0.041020 0.500000 0.915140
Cu2   Cu    Cu3+1 0.500000 0.000050 0.938220 0.935583
Cu3   Cu    Cu3+1 0.000000 0.500050 0.061780 0.935597
Cu4   Cu    Cu3+1 0.000000 0.500050 0.938220 0.935597
Cu5   Cu    Cu3+1 0.500000 0.541020 0.500000 0.915119
Cu6   Cu    Cu3+1 1.000000 0.958990 0.500000 0.891922
Cu7   Cu    Cu3+1 0.500000 0.458990 0.500000 0.891909
Cu8   Cu    Cu3+1 0.041020 0.999990 0.040980 0.927229
Cu9   Cu    Cu3+1 0.958980 0.999990 0.959020 0.927229
Cu10  Cu    Cu3+1 0.541020 0.499990 0.040980 0.927239
Cu11  Cu    Cu3+1 0.458980 0.499990 0.959020 0.927239
Cu12  Cu    Cu3+1 0.500000 0.000050 0.061780 0.935583
H1    H     H_    0.789307 0.062598 0.266294 0.110922
H2    H     H_    0.566652 0.211635 0.072795 0.104645
H3    H     H_    0.675255 0.920126 0.162994 0.147292
H4    H     H_    0.720797 0.892545 0.222566 0.137988
H5    H     H_    0.283171 0.914375 0.668939 0.144644
H6    H     H_    0.331122 0.941054 0.732648 0.163503
H7    H     H_    0.327855 0.885517 0.738211 0.137258
H8    H     H_    0.324745 0.920126 0.837007 0.147292
H9    H     H_    0.279203 0.892545 0.777435 0.137988
H10   H     H_    0.216831 0.414431 0.331149 0.144642
H11   H     H_    0.168880 0.441102 0.267416 0.163511
H12   H     H_    0.172146 0.385561 0.261909 0.137240
H13   H     H_    0.933234 0.711635 0.929603 0.104628
H14   H     H_    0.175253 0.420121 0.163074 0.147286
H15   H     H_    0.220795 0.392547 0.222671 0.137983
H16   H     H_    0.783168 0.414434 0.668844 0.144642
H17   H     H_    0.831120 0.441105 0.732580 0.163511
H18   H     H_    0.827854 0.385564 0.738082 0.137240
H19   H     H_    0.824747 0.420121 0.836920 0.147286
H20   H     H_    0.779205 0.392547 0.777321 0.137983
H21   H     H_    0.688253 0.158461 0.186975 0.150068
H22   H     H_    0.640221 0.129544 0.133833 0.155399
H23   H     H_    0.656808 0.149235 0.223463 0.143434
H24   H     H_    0.066766 0.711635 0.070397 0.104628
H25   H     H_    0.669948 0.073644 0.229055 0.173524
H26   H     H_    0.717785 0.102146 0.282145 0.160279
H27   H     H_    0.728541 0.098024 0.179585 0.132354
H28   H     H_    0.680876 0.070919 0.123190 0.151230
H29   H     H_    0.311747 0.158461 0.813023 0.150068
H30   H     H_    0.359779 0.129544 0.866165 0.155398
H31   H     H_    0.343192 0.149235 0.776535 0.143434
H32   H     H_    0.330052 0.073644 0.770944 0.173524
H33   H     H_    0.282215 0.102145 0.717853 0.160279
H34   H     H_    0.271459 0.098024 0.820413 0.132354
H35   H     H_    0.955873 0.211860 0.882744 0.105995
H36   H     H_    0.319124 0.070920 0.876808 0.151230
H37   H     H_    0.188256 0.658461 0.186781 0.150023
H38   H     H_    0.140224 0.629543 0.133673 0.155332
H39   H     H_    0.156811 0.649274 0.223279 0.143568
H40   H     H_    0.169948 0.573678 0.228961 0.173530
H41   H     H_    0.217786 0.602182 0.282019 0.160285
H42   H     H_    0.228542 0.597997 0.179463 0.132343
H43   H     H_    0.180876 0.570888 0.123101 0.151217
H44   H     H_    0.811744 0.658461 0.813231 0.150023
H45   H     H_    0.859776 0.629542 0.866336 0.155332
H46   H     H_    0.044127 0.211860 0.117256 0.105995
H47   H     H_    0.843189 0.649277 0.776732 0.143568
H48   H     H_    0.830051 0.573681 0.771045 0.173529
H49   H     H_    0.782214 0.602185 0.717989 0.160285
H50   H     H_    0.771458 0.597996 0.820544 0.132343
H51   H     H_    0.819124 0.570886 0.876904 0.151218
H52   H     H_    0.456222 0.711860 0.882634 0.105996
H53   H     H_    0.543778 0.711860 0.117366 0.105996
H54   H     H_    0.456212 0.788366 0.882637 0.107644
H55   H     H_    0.543788 0.788366 0.117363 0.107644
H56   H     H_    0.955863 0.288366 0.882747 0.107618
H57   H     H_    0.210693 0.062598 0.733705 0.110922
H58   H     H_    0.044137 0.288366 0.117253 0.107618
H59   H     H_    0.885901 0.090868 0.589020 0.107641
H60   H     H_    0.114099 0.090867 0.410980 0.107641
H61   H     H_    0.385914 0.590884 0.589032 0.107643
H62   H     H_    0.614086 0.590884 0.410967 0.107643
H63   H     H_    0.907051 0.111199 0.713259 0.109133
H64   H     H_    0.092950 0.111199 0.286741 0.109133
H65   H     H_    0.407065 0.611211 0.713274 0.109136
H66   H     H_    0.592934 0.611211 0.286726 0.109136
H67   H     H_    0.958462 0.070561 0.819001 0.132118
H68   H     H_    0.289308 0.562588 0.266220 0.110921
H69   H     H_    0.041538 0.070561 0.180999 0.132118
H70   H     H_    0.458470 0.570565 0.819010 0.132113
H71   H     H_    0.541530 0.570565 0.180990 0.132113
H72   H     H_    0.050934 0.960394 0.858222 0.127419
H73   H     H_    0.949066 0.960394 0.141778 0.127419
H74   H     H_    0.550928 0.460386 0.858217 0.127430
H75   H     H_    0.449072 0.460386 0.141783 0.127430
H76   H     H_    0.084609 0.007100 0.716406 0.167864
H77   H     H_    0.111642 0.000396 0.814501 0.150909
H78   H     H_    0.122345 0.966160 0.761367 0.132661
H79   H     H_    0.710692 0.562587 0.733785 0.110921
H80   H     H_    0.078775 0.932113 0.798015 0.126981
H81   H     H_    0.052849 0.934356 0.701850 0.177777
H82   H     H_    0.915390 0.007101 0.283594 0.167864
H83   H     H_    0.888358 0.000397 0.185499 0.150909
H84   H     H_    0.877654 0.966161 0.238632 0.132662
H85   H     H_    0.921225 0.932113 0.201985 0.126981
H86   H     H_    0.947150 0.934356 0.298150 0.177776
H87   H     H_    0.584609 0.507085 0.716402 0.167858
H88   H     H_    0.611643 0.500378 0.814497 0.150905
H89   H     H_    0.622338 0.466139 0.761355 0.132674
H90   H     H_    0.933238 0.788142 0.929615 0.108686
H91   H     H_    0.578766 0.432101 0.798009 0.126997
H92   H     H_    0.552839 0.434344 0.701843 0.177776
H93   H     H_    0.415391 0.507085 0.283598 0.167859
H94   H     H_    0.388357 0.500378 0.185503 0.150905
H95   H     H_    0.377662 0.466139 0.238645 0.132673
H96   H     H_    0.421234 0.432101 0.201991 0.126997
H97   H     H_    0.447161 0.434344 0.298157 0.177776
H98   H     H_    0.867877 0.985630 0.572286 0.160811
H99   H     H_    0.844052 0.032554 0.519814 0.146434
H100  H     H_    0.850019 0.988098 0.476778 0.141473
H101  H     H_    0.066762 0.788142 0.070385 0.108686
H102  H     H_    0.903583 0.044778 0.508643 0.164536
H103  H     H_    0.923485 0.993878 0.547004 0.162382
H104  H     H_    0.132123 0.985630 0.427714 0.160811
H105  H     H_    0.155948 0.032554 0.480186 0.146434
H106  H     H_    0.149981 0.988097 0.523221 0.141473
H107  H     H_    0.096417 0.044777 0.491357 0.164536
H108  H     H_    0.076515 0.993878 0.452996 0.162382
H109  H     H_    0.367875 0.485648 0.572284 0.160800
H110  H     H_    0.344057 0.532576 0.519821 0.146441
H111  H     H_    0.350017 0.488119 0.476777 0.141463
H112  H     H_    0.433351 0.288142 0.927213 0.108705
H113  H     H_    0.403590 0.544790 0.508648 0.164543
H114  H     H_    0.423484 0.493887 0.547004 0.162373
H115  H     H_    0.632125 0.485649 0.427716 0.160800
H116  H     H_    0.655942 0.532577 0.480179 0.146441
H117  H     H_    0.649983 0.488119 0.523223 0.141463
H118  H     H_    0.596410 0.544790 0.491352 0.164543
H119  H     H_    0.576516 0.493887 0.452996 0.162373
H120  H     H_    0.783162 0.890116 0.220513 0.144858
H121  H     H_    0.831218 0.919015 0.268316 0.158192
H122  H     H_    0.827553 0.870137 0.304590 0.136954
H123  H     H_    0.566649 0.288142 0.072787 0.108705
H124  H     H_    0.824204 0.928822 0.375206 0.144309
H125  H     H_    0.778563 0.899472 0.332042 0.136023
H126  H     H_    0.216837 0.890117 0.779489 0.144859
H127  H     H_    0.168781 0.919015 0.731685 0.158192
H128  H     H_    0.172447 0.870138 0.695412 0.136954
H129  H     H_    0.175796 0.928822 0.624795 0.144309
H130  H     H_    0.221437 0.899472 0.667960 0.136023
H131  H     H_    0.283161 0.390089 0.220617 0.144862
H132  H     H_    0.331217 0.418988 0.268390 0.158203
H133  H     H_    0.327553 0.370129 0.304713 0.136952
H134  H     H_    0.433348 0.211635 0.927205 0.104645
H135  H     H_    0.324204 0.428846 0.375273 0.144298
H136  H     H_    0.278563 0.399497 0.332137 0.136018
H137  H     H_    0.716839 0.390087 0.779376 0.144862
H138  H     H_    0.668783 0.418987 0.731605 0.158203
H139  H     H_    0.672448 0.370128 0.695279 0.136952
H140  H     H_    0.675796 0.428848 0.624723 0.144298
H141  H     H_    0.721437 0.399499 0.667856 0.136018
H142  H     H_    0.716829 0.914376 0.331063 0.144644
H143  H     H_    0.668878 0.941055 0.267353 0.163503
H144  H     H_    0.672145 0.885518 0.261791 0.137258
O1    O     O_R   0.940150 0.034640 0.440170 -0.511643
O2    O     O_R   0.440140 0.999970 0.992380 -0.502408
O3    O     O_R   0.059860 0.499970 0.007620 -0.502418
O4    O     O_R   0.940140 0.499970 0.992380 -0.502418
O5    O     O_R   0.499990 0.059890 0.052110 -0.502898
O6    O     O_R   0.500010 0.059890 0.947890 -0.502898
O7    O     O_R   0.999990 0.559890 0.052110 -0.502897
O8    O     O_R   0.000010 0.559890 0.947890 -0.502897
O9    O     O_R   0.940160 0.965370 0.440130 -0.504995
O10   O     O_R   0.059840 0.965370 0.559870 -0.504995
O11   O     O_R   0.440160 0.465370 0.440130 -0.504993
O12   O     O_R   0.059850 0.034640 0.559830 -0.511643
O13   O     O_R   0.559840 0.465370 0.559870 -0.504993
O14   O     O_R   0.999990 0.034640 0.590170 -0.502088
O15   O     O_R   0.000010 0.034640 0.409830 -0.502088
O16   O     O_R   0.499990 0.534640 0.590170 -0.502090
O17   O     O_R   0.500010 0.534640 0.409830 -0.502090
O18   O     O_R   1.000000 0.965370 0.590130 -0.520665
O19   O     O_R   0.000000 0.965370 0.409870 -0.520666
O20   O     O_R   0.500000 0.465370 0.590130 -0.520664
O21   O     O_R   0.500000 0.465370 0.409870 -0.520664
O22   O     O_R   0.034640 0.940150 0.034570 -0.501618
O23   O     O_R   0.440150 0.534640 0.440170 -0.511645
O24   O     O_R   0.965360 0.940150 0.965430 -0.501618
O25   O     O_R   0.534640 0.440150 0.034570 -0.501617
O26   O     O_R   0.465360 0.440150 0.965430 -0.501617
O27   O     O_R   0.034650 0.999990 0.944440 -0.511373
O28   O     O_R   0.965350 0.999990 0.055560 -0.511373
O29   O     O_R   0.534650 0.499990 0.944440 -0.511365
O30   O     O_R   0.465350 0.499990 0.055560 -0.511365
O31   O     O_R   0.965370 1.000000 0.875180 -0.508298
O32   O     O_R   0.034630 1.000000 0.124820 -0.508299
O33   O     O_R   0.465370 0.500000 0.875180 -0.508306
O34   O     O_R   0.559850 0.534640 0.559830 -0.511646
O35   O     O_R   0.534630 0.500000 0.124820 -0.508306
O36   O     O_R   0.034640 0.059840 0.034640 -0.509786
O37   O     O_R   0.965360 0.059840 0.965360 -0.509786
O38   O     O_R   0.534640 0.559840 0.034640 -0.509780
O39   O     O_R   0.465360 0.559840 0.965360 -0.509780
O40   O     O_R   0.500010 0.940200 0.052220 -0.502897
O41   O     O_R   0.499990 0.940200 0.947780 -0.502897
O42   O     O_R   0.000010 0.440200 0.052220 -0.502891
O43   O     O_R   0.999990 0.440200 0.947780 -0.502891
O44   O     O_R   0.559850 0.000040 0.111990 -0.505031
O45   O     O_R   0.440150 0.000040 0.888010 -0.505030
O46   O     O_R   0.059850 0.500040 0.111990 -0.505020
O47   O     O_R   0.940150 0.500040 0.888010 -0.505020
O48   O     O_R   0.559860 0.999970 0.007620 -0.502408

loop_
_geom_bond_atom_site_label_1
_geom_bond_atom_site_label_2
_ccdc_geom_bond_type
C81   H9    S    
C96   H37   S    
C77   H137  S    
C87   C88   S    
C159  O35   A    
C15   C32   A    
C57   H74   S    
Cu2   O41   S    
C164  O48   A    
C26   C151  T    
C147  C164  S    
C119  H79   S    
C39   H67   S    
C92   H32   S    
C123  O34   A    
C69   H117  S    
Cu5   O16   S    
Cu1   Cu6   S    
C176  C179  A    
C10   C20   A    
C155  O27   A    
C132  O21   A    
C97   C115  S    
C64   H106  S    
C58   H87   S    
C93   H31   S    
C35   C178  A    
C4    C153  S    
C67   H118  S    
C59   C60   S    
C7    C172  S    
C55   H83   S    
C148  C165  S    
C69   H116  S    
C165  O2    A    
Cu6   O9    S    
C66   H109  S    
C116  H1    S    
C70   H125  S    
C25   C29   S    
C53   H78   S    
C165  O45   A    
Cu3   Cu4   S    
C163  O43   A    
C30   C34   A    
C120  C125  A    
C72   C73   S    
C153  O24   A    
C33   H62   S    
C60   H93   S    
C177  C186  S    
C83   C105  S    
C182  C185  A    
C108  C113  A    
C19   C23   A    
C22   H52   S    
C91   H34   S    
C150  C168  S    
C24   C167  A    
C174  C177  A    
C95   H41   S    
C180  H101  S    
Cu10  O25   S    
C96   H39   S    
C181  H90   S    
C120  C138  S    
C77   H139  S    
C38   H66   S    
C63   H108  S    
C8    C17   A    
Cu8   Cu9   S    
C98   H49   S    
C175  C179  A    
C154  O26   A    
C172  O8    A    
Cu12  O2    S    
C6    C186  T    
C33   C38   A    
C61   H103  S    
C4    C188  T    
Cu8   O22   S    
Cu5   O34   S    
C56   H91   S    
C9    C21   A    
C45   C50   A    
C10   C18   A    
C86   H16   S    
Cu1   O12   S    
C79   C155  S    
C91   C113  S    
C179  C187  S    
C88   C89   S    
C72   H130  S    
C87   H28   S    
C1    O9    A    
C41   C45   A    
C31   C36   A    
C103  C107  A    
Cu11  O33   S    
C180  C184  A    
C11   C18   A    
C27   C152  T    
C131  O20   A    
C51   C167  A    
C16   C51   A    
C14   C31   A    
C101  O10   A    
C174  C182  A    
C97   C98   S    
C84   H11   S    
C97   H51   S    
C58   H88   S    
C85   C86   S    
C54   H85   S    
C34   H63   S    
C7    C187  T    
C131  C156  S    
Cu12  O44   S    
C89   H21   S    
C71   H120  S    
C65   H113  S    
C13   C57   A    
C118  C122  A    
C99   H44   S    
C1    O1    A    
C1    C142  S    
Cu4   O3    S    
C58   H89   S    
C139  C143  T    
C88   H26   S    
C59   H96   S    
C74   C127  S    
C22   C25   A    
C8    C22   A    
C183  H112  S    
C31   H60   S    
C133  C147  T    
C173  C177  A    
C123  O13   A    
Cu6   O19   S    
C175  C181  A    
C13   C56   S    
C47   C102  A    
C62   H99   S    
C76   H140  S    
C9    H55   S    
C101  O12   A    
C3    C185  S    
Cu1   O15   S    
Cu9   O24   S    
C67   H119  S    
C71   H121  S    
C105  C127  A    
C34   C39   A    
Cu3   O7    S    
C161  O39   A    
C171  O6    A    
C78   H3    S    
C108  C135  S    
C91   C92   S    
C112  O11   A    
C23   C28   S    
C116  C120  A    
C94   H43   S    
C13   C156  A    
C98   H48   S    
C83   C84   S    
C20   C23   A    
Cu9   O37   S    
C16   C67   S    
C32   C37   A    
Cu11  O39   S    
C111  C116  A    
C109  C114  A    
C113  C117  A    
C73   H127  S    
Cu5   O17   S    
C98   C99   S    
C80   H143  S    
C115  C119  A    
C166  O46   A    
C157  O32   A    
C137  C150  T    
C99   H47   S    
C85   C106  S    
C82   H6    S    
C83   H14   S    
C52   C53   S    
Cu4   O8    S    
C21   C25   A    
C54   C55   S    
C176  H24   S    
C96   H38   S    
C166  O3    A    
Cu11  O26   S    
C89   H23   S    
C159  O30   A    
C158  O33   A    
C121  C139  S    
C90   C157  S    
C122  C140  S    
C68   H75   S    
C24   C59   S    
Cu12  O5    S    
C35   C79   A    
C56   C58   S    
Cu2   O6    S    
C37   C41   A    
C61   C62   S    
C124  C141  S    
C152  C163  S    
C21   H53   S    
C63   C64   S    
C176  C180  A    
Cu7   O13   S    
Cu3   O42   S    
C19   H46   S    
C93   H30   S    
C75   H132  S    
C69   H115  S    
C132  C167  S    
C35   H72   S    
C12   C48   A    
Cu6   O10   S    
C136  C149  T    
C66   H110  S    
Cu4   O47   S    
Cu2   Cu12  S    
Cu8   O32   S    
C2    C145  A    
C53   H77   S    
C11   C19   A    
C130  O15   A    
C10   H56   S    
C85   H20   S    
C68   C102  A    
C84   H10   S    
C60   H95   S    
C87   C111  S    
C5    C154  S    
C15   C65   S    
C106  C128  A    
C92   H33   S    
C174  H2    S    
C162  O40   A    
C74   H136  S    
C105  C109  A    
C52   H81   S    
C53   H76   S    
C131  O16   A    
C160  C169  S    
C70   C71   S    
C99   H45   S    
C124  C128  A    
C130  C145  S    
C107  C111  A    
C77   H138  S    
Cu12  O40   S    
Cu1   O14   S    
Cu7   O20   S    
C46   H73   S    
C149  C166  S    
C130  O19   A    
C63   H107  S    
C2    C54   S    
C47   C51   A    
C40   H69   S    
Cu10  O35   S    
C61   H102  S    
C72   C126  S    
Cu3   O4    S    
C56   H92   S    
C123  C146  S    
Cu7   O11   S    
C151  C162  S    
C49   C145  A    
C37   H65   S    
C134  C178  A    
C64   H105  S    
C141  C146  T    
C81   H8    S    
C118  H68   S    
C70   C125  S    
Cu1   O1    S    
C87   H27   S    
C138  C142  T    
C55   H84   S    
C76   C128  S    
C36   H64   S    
C104  C108  A    
C70   H124  S    
C181  C184  A    
C48   C134  A    
C80   H142  S    
C182  H123  S    
C12   C30   A    
C110  C137  S    
C140  C144  T    
C3    C5    T    
C45   C100  A    
C102  C159  S    
C83   H15   S    
C84   H12   S    
C97   H50   S    
C46   C90   A    
C54   H86   S    
C112  O23   A    
C107  C133  S    
C12   C61   S    
C14   C63   S    
C76   H141  S    
Cu2   O45   S    
C92   C93   S    
C157  O28   A    
C78   C80   S    
C95   H40   S    
C164  O44   A    
C85   H19   S    
C94   C95   S    
C52   C178  S    
C24   C68   A    
C129  C134  S    
C100  C158  S    
C28   C169  T    
C173  C183  A    
Cu11  O30   S    
C110  C115  A    
C44   C49   A    
C158  O29   A    
C155  O31   A    
C64   H104  S    
C62   H100  S    
C132  O17   A    
C95   C96   S    
C81   C82   S    
C94   C114  S    
C154  O25   A    
C172  O7    A    
C119  C124  A    
C2    C46   A    
C75   H133  S    
C17   C26   S    
C175  H13   S    
C161  O38   A    
C171  O5    A    
C78   H4    S    
C38   C42   A    
C74   H135  S    
C183  C185  A    
C86   H18   S    
C168  O47   A    
C14   C49   A    
Cu8   O27   S    
C43   C79   A    
Cu3   O46   S    
C122  C127  A    
C15   C50   A    
C42   H71   S    
C117  C121  A    
C59   H97   S    
C129  O14   A    
C60   H94   S    
C50   C156  A    
C72   H129  S    
Cu5   Cu7   S    
C55   H82   S    
Cu9   O28   S    
Cu10  Cu11  S    
C29   C170  T    
C43   C48   A    
C160  O36   A    
Cu4   O43   S    
C52   H80   S    
C73   H126  S    
C20   H35   S    
C80   H144  S    
C109  C136  S    
C163  O42   A    
C32   H61   S    
C103  C125  A    
C82   H7    S    
C6    C171  S    
C74   C75   S    
Cu10  O29   S    
C30   H59   S    
C11   H58   S    
C36   C40   A    
C76   C77   S    
C89   H22   S    
C65   H114  S    
Cu5   O23   S    
C39   C43   A    
C57   C100  A    
C91   H36   S    
Cu7   O21   S    
C184  C188  S    
C67   C69   S    
C86   H17   S    
C173  H134  S    
C16   C33   A    
C117  H57   S    
C88   H25   S    
C40   C44   A    
C129  O18   A    
Cu10  O38   S    
C41   H70   S    
C114  C118  A    
Cu6   O18   S    
C161  C170  S    
C9    C17   A    
C65   C66   S    
C62   H98   S    
C44   C90   A    
C106  C110  A    
C93   H29   S    
C75   H131  S    
C71   H122  S    
C78   C103  S    
Cu9   O31   S    
C18   C27   S    
C160  O37   A    
C66   H111  S    
C112  C144  S    
C94   H42   S    
C121  C126  A    
C168  O4    A    
C101  C143  S    
Cu8   O36   S    
C153  O22   A    
C8    H54   S    
C42   C47   A    
C73   H128  S    
C104  C126  A    
C135  C148  T    
Cu2   O48   S    
C82   H5    S    
C162  O41   A    
C81   C104  S    
