data_mof_unit_26070.cif
_audit_creation_date              2012-12-10T17:43:32-0500
_audit_creation_method            fapswitch 2.2
_symmetry_space_group_name_H-M    P1
_symmetry_Int_Tables_number       1
_space_group_crystal_system       triclinic
_cell_length_a                    14.964982
_cell_length_b                    10.588747
_cell_length_c                    9.950355
_cell_angle_alpha                 91.93218
_cell_angle_beta                  89.843888
_cell_angle_gamma                 90.663238
_cell_volume                      1575.73096455

loop_
_atom_site_label
_atom_site_type_symbol
_atom_type_description
_atom_site_fract_x
_atom_site_fract_y
_atom_site_fract_z
_atom_type_partial_charge
C1    C     C_R   0.500671 0.260779 0.498362 0.904846
C2    C     C_R   0.184761 0.453879 0.599809 -0.296309
C3    C     C_R   0.231347 0.515334 0.499130 -0.111488
C4    C     C_R   0.327088 0.505717 0.499867 0.863494
C5    C     C_R   0.186599 0.582869 0.399658 0.088018
C6    C     C_R   0.333684 0.132402 0.539531 -0.180486
C7    C     C_R   0.254594 0.067790 0.568614 -0.143405
C8    C     C_R   0.254910 0.937091 0.579919 -0.102362
C9    C     C_R   0.334162 0.870664 0.560945 -0.123968
C10   C     C_R   0.414638 0.934845 0.530407 0.099613
C11   C     C_R   0.414824 0.066445 0.521813 0.071504
C12   C     C_R   0.905934 0.571452 0.398233 0.121037
C13   C     C_R   0.496789 0.128188 0.496053 -0.133967
C14   C     C_R   0.577039 0.063204 0.478936 0.165909
C15   C     C_R   0.575468 0.934108 0.481868 -0.194444
C16   C     C_R   0.498572 0.739133 0.502071 0.884525
C17   C     C_R   0.495521 0.871502 0.506862 -0.111413
C18   C     C_R   0.428372 0.291380 0.123685 0.221260
C19   C     C_R   0.355129 0.227365 0.066236 -0.182731
C20   C     C_R   0.333826 0.247559 0.932481 -0.221342
C21   C     C_R   0.384368 0.333646 0.859830 -0.125784
C22   C     C_R   0.447238 0.414176 0.925483 0.122868
C23   C     C_R   0.953803 0.392116 0.705760 -0.191113
C24   C     C_R   0.456361 0.405050 0.067554 0.107636
C25   C     C_R   0.545614 0.588157 0.075495 -0.103490
C26   C     C_R   0.549110 0.585141 0.932927 0.206548
C27   C     C_R   0.672940 0.501246 0.499984 0.917808
C28   C     C_R   0.813531 0.565842 0.397723 -0.237012
C29   C     C_R   0.768526 0.505004 0.500389 -0.053477
C30   C     C_R   0.814518 0.449048 0.604247 -0.201710
C31   C     C_R   0.906989 0.451313 0.604573 0.112178
C32   C     C_R   0.953173 0.513220 0.501248 0.073895
C33   C     C_R   0.046533 0.393204 0.704201 -0.203237
C34   C     C_R   0.092748 0.454749 0.602324 0.122138
C35   C     C_R   0.046409 0.516256 0.500657 0.029801
C36   C     C_R   0.092918 0.580282 0.398499 0.063023
C37   C     C_R   0.044172 0.639030 0.297644 -0.174541
C38   C     C_R   0.951538 0.634012 0.297334 -0.208850
H1    H     H_    0.776534 0.610356 0.318846 0.159452
H2    H     H_    0.371831 0.335690 0.754644 0.193491
H3    H     H_    0.778288 0.401628 0.682980 0.175383
H4    H     H_    0.918752 0.344271 0.785174 0.161718
H5    H     H_    0.082142 0.345911 0.782427 0.151286
H6    H     H_    0.220394 0.403136 0.675573 0.156016
H7    H     H_    0.915532 0.679015 0.217924 0.162324
H8    H     H_    0.076145 0.687729 0.216704 0.187748
H9    H     H_    0.330679 0.233731 0.530748 0.117722
H10   H     H_    0.193010 0.119317 0.582577 0.144157
H11   H     H_    0.193570 0.886909 0.602708 0.148621
H12   H     H_    0.331897 0.769304 0.570298 0.135864
H13   H     H_    0.636866 0.882149 0.465840 0.162440
H14   H     H_    0.583323 0.659362 0.132383 0.168365
H15   H     H_    0.326892 0.145669 0.114183 0.176516
H16   H     H_    0.283629 0.188914 0.881977 0.165901
I1    I     I_    0.533344 0.158737 0.136663 -0.284111
I2    I     I_    0.635721 0.719169 0.846285 -0.300786
I3    I     I_    0.258890 0.696232 0.258088 -0.372515
I4    I     I_    0.703178 0.153268 0.451564 -0.330297
N1    N     N_R   0.499150 0.498800 0.142780 -0.124294
N2    N     N_R   0.499120 0.498720 0.857170 -0.136073
O1    O     O_R   0.500000 0.316780 0.614690 -0.628512
O2    O     O_R   0.499990 0.316750 0.385360 -0.595781
O3    O     O_R   0.367850 0.499980 0.614680 -0.656004
O4    O     O_R   0.367840 0.499960 0.385350 -0.585819
O5    O     O_R   0.500010 0.683250 0.614640 -0.592928
O6    O     O_R   0.500000 0.683220 0.385310 -0.604366
O7    O     O_R   0.632160 0.500040 0.614650 -0.597820
O8    O     O_R   0.632150 0.500020 0.385320 -0.612399
Zn1   Zn    Zn3+2 0.500010 0.500020 0.653130 0.980575
Zn2   Zn    Zn3+2 0.499990 0.499980 0.346870 0.999155

loop_
_geom_bond_atom_site_label_1
_geom_bond_atom_site_label_2
_ccdc_geom_bond_type
C2    H6    S    
C5    C36   A    
C30   H3    S    
C6    C7    A    
C18   C24   A    
C15   H13   S    
C27   C29   S    
C29   C30   A    
C9    C10   A    
C4    O4    A    
C38   H7    S    
C31   C32   A    
C28   H1    S    
C5    I3    S    
C3    C5    A    
C7    H10   S    
C19   H15   S    
C33   C34   A    
C37   H8    S    
C25   H14   S    
C7    C8    A    
C21   C22   A    
C1    O2    A    
C12   C38   A    
C11   C13   A    
C4    O3    A    
C2    C34   A    
O6    Zn2   S    
C23   H4    S    
C18   I1    S    
C12   C28   A    
C24   N1    A    
O5    Zn1   S    
N2    Zn1   S    
N1    Zn2   S    
C20   H16   S    
C36   C37   A    
C37   C38   A    
C2    C3    A    
O4    Zn2   S    
C22   N2    A    
C30   C31   A    
C14   I4    S    
C22   C24   A    
C23   C31   A    
C1    C13   S    
C10   C11   A    
C10   C17   A    
C1    O1    A    
C3    C4    S    
C33   H5    S    
C32   C35   A    
O3    Zn1   S    
C27   O7    A    
C20   C21   A    
O2    Zn2   S    
O8    Zn2   S    
C34   C35   A    
C6    H9    S    
O1    Zn1   S    
C6    C11   A    
C15   C17   A    
C18   C19   A    
C14   C15   A    
C28   C29   A    
C16   O6    A    
C16   O5    A    
C25   N1    A    
C27   O8    A    
O7    Zn1   S    
C25   C26   A    
C13   C14   A    
C26   N2    A    
C8    H11   S    
C12   C32   A    
C9    H12   S    
C19   C20   A    
C16   C17   S    
C26   I2    S    
C8    C9    A    
C23   C33   A    
C35   C36   A    
C21   H2    S    
