data_mof_unit_28081.cif
_audit_creation_date              2012-12-11T16:22:14-0500
_audit_creation_method            fapswitch 2.2
_symmetry_space_group_name_H-M    P1
_symmetry_Int_Tables_number       1
_space_group_crystal_system       triclinic
_cell_length_a                    19.618194
_cell_length_b                    6.922304
_cell_length_c                    17.761079
_cell_angle_alpha                 90.085045
_cell_angle_beta                  108.139125
_cell_angle_gamma                 90.025926
_cell_volume                      2292.13727968

loop_
_atom_site_label
_atom_site_type_symbol
_atom_type_description
_atom_site_fract_x
_atom_site_fract_y
_atom_site_fract_z
_atom_type_partial_charge
O1    O     O_R   0.561700 0.369960 0.440190 -0.539692
O2    O     O_R   0.061700 0.630040 0.940190 -0.544841
O3    O     O_R   0.413790 0.033680 0.407460 -0.539647
O4    O     O_R   0.913790 0.966320 0.907460 -0.540337
O5    O     O_R   0.438300 0.869760 0.559810 -0.547420
O6    O     O_R   0.938300 0.130240 0.059810 -0.543589
C1    C     C_R   0.386722 0.203832 0.384490 0.765842
C2    C     C_R   0.886196 0.795991 0.885480 0.775060
O7    O     O_R   0.559630 0.039830 0.430710 -0.545003
O8    O     O_R   0.059630 0.960170 0.930710 -0.538626
O9    O     O_R   0.585190 0.875950 0.583220 -0.504077
O10   O     O_R   0.085190 0.124050 0.083220 -0.513927
C3    C     C_R   0.581228 0.209047 0.415726 0.723321
C4    C     C_R   0.081943 0.790998 0.916509 0.721774
O11   O     O_R   0.414810 0.363770 0.416780 -0.543180
O12   O     O_R   0.914810 0.636230 0.916780 -0.542790
O13   O     O_3   0.508210 0.205480 0.550010 -0.365226
O14   O     O_3   0.008210 0.794520 0.050010 -0.374730
V1    V     V_3+5 0.498480 0.928140 0.490720 1.425619
V2    V     V_3+5 0.998480 0.071860 0.990720 1.424234
O15   O     O_R   0.586210 0.546600 0.592540 -0.543126
O16   O     O_R   0.086210 0.453400 0.092540 -0.558320
C5    C     C_R   0.613220 0.716995 0.616046 0.769529
C6    C     C_R   0.114596 0.284103 0.114011 0.785116
O17   O     O_R   0.440370 0.540460 0.569290 -0.544543
O18   O     O_R   0.940370 0.459540 0.069290 -0.543343
C7    C     C_R   0.419281 0.709289 0.584862 0.673681
C8    C     C_R   0.918992 0.290847 0.084662 0.685103
V3    V     V_3+5 0.501520 0.428910 0.509280 1.419665
V4    V     V_3+5 0.001520 0.571090 0.009280 1.388195
O19   O     O_3   0.491790 0.701440 0.449990 -0.374274
O20   O     O_3   0.991790 0.298560 0.949990 -0.371117
C9    C     C_R   0.323307 0.895380 0.726224 -0.173768
C10   C     C_R   0.817007 0.098784 0.219389 -0.170725
H1    H     H_    0.324422 0.023906 0.761415 0.125504
H2    H     H_    0.813577 0.964714 0.249379 0.127983
C11   C     C_R   0.368728 0.886195 0.679130 -0.171872
C12   C     C_R   0.862840 0.108238 0.172733 -0.165216
H3    H     H_    0.402741 0.008866 0.678335 0.125112
H4    H     H_    0.893042 0.980708 0.167538 0.125923
C13   C     C_R   0.371029 0.719536 0.634646 -0.040259
C14   C     C_R   0.870389 0.280796 0.134284 -0.048701
C15   C     C_R   0.325776 0.563932 0.637029 -0.195854
C16   C     C_R   0.830178 0.442793 0.142784 -0.191936
H5    H     H_    0.325465 0.434765 0.602420 0.121270
H6    H     H_    0.833885 0.577096 0.113075 0.119887
C17   C     C_R   0.278710 0.575481 0.682097 -0.099311
C18   C     C_R   0.783302 0.432216 0.188165 -0.085482
H7    H     H_    0.242521 0.455942 0.679584 0.145480
H8    H     H_    0.751397 0.557926 0.191026 0.136400
C19   C     C_R   0.277600 0.740045 0.728476 0.104671
C20   C     C_R   0.776733 0.260831 0.227994 0.115126
C21   C     C_R   0.217598 0.591166 0.822720 0.429093
C22   C     C_R   0.723733 0.399633 0.330055 0.425195
C23   C     C_R   0.168719 0.605195 0.866008 -0.249165
C24   C     C_R   0.673745 0.386756 0.372337 -0.243546
H9    H     H_    0.159589 0.478785 0.897485 0.136999
H10   H     H_    0.669188 0.505570 0.410106 0.128848
C25   C     C_R   0.132794 0.779146 0.869515 -0.107638
C26   C     C_R   0.631209 0.221184 0.367848 -0.105256
C27   C     C_R   0.146377 0.940036 0.828278 -0.154874
C28   C     C_R   0.637390 0.069328 0.318020 -0.177592
H11   H     H_    0.119848 0.076489 0.829808 0.143643
H12   H     H_    0.605228 0.939927 0.313092 0.136342
C29   C     C_R   0.193122 0.925781 0.782888 -0.206303
C30   C     C_R   0.684143 0.084237 0.272674 -0.207046
H13   H     H_    0.200342 0.051225 0.749828 0.162181
H14   H     H_    0.686104 0.966294 0.233277 0.143970
C31   C     C_R   0.228729 0.751395 0.778462 -0.007114
C32   C     C_R   0.727338 0.249346 0.277293 -0.005226
C33   C     C_2   0.706971 0.902892 0.719854 0.463254
C34   C     C_2   0.229879 0.123961 0.187187 0.454865
C35   C     C_2   0.681132 0.732193 0.683120 -0.403458
C36   C     C_2   0.181549 0.268780 0.182081 -0.382750
H15   H     H_    0.710778 0.599117 0.700556 0.101125
H16   H     H_    0.188555 0.374933 0.228621 0.084336
C37   C     C_2   0.779527 0.921832 0.780656 -0.235808
C38   C     C_2   0.296028 0.097757 0.258478 -0.235109
C39   C     C_2   0.817209 0.773729 0.821634 -0.373884
C40   C     C_2   0.319100 0.225454 0.318169 -0.367870
H17   H     H_    0.801040 0.066995 0.793957 0.151893
H18   H     H_    0.329485 0.972209 0.260074 0.142908
H19   H     H_    0.795972 0.628194 0.811123 0.134324
H20   H     H_    0.291086 0.360755 0.316589 0.131818
O21   O     O_3   0.250579 0.415951 0.819622 -0.594344
C41   C     C_3   0.306050 0.381572 0.891400 0.038797
H21   H     H_    0.305213 0.225007 0.904835 0.154568
H22   H     H_    0.299485 0.460377 0.943602 0.118845
C42   C     C_3   0.378727 0.431388 0.881236 -0.302479
H23   H     H_    0.384401 0.355073 0.828384 0.204607
H24   H     H_    0.381652 0.589408 0.871809 0.196068
C43   C     C_3   0.440597 0.373122 0.953861 -0.838856
H25   H     H_    0.436684 0.449921 0.007314 0.231187
H26   H     H_    0.492336 0.411970 0.944623 0.236699
H27   H     H_    0.439809 0.214708 0.963488 0.232730
O22   O     O_3   0.766400 0.562788 0.336217 -0.588230
C44   C     C_3   0.807947 0.600602 0.415783 0.055483
H28   H     H_    0.865270 0.602996 0.418404 0.142377
H29   H     H_    0.803427 0.488621 0.459208 0.108020
C45   C     C_3   0.788402 0.799532 0.440729 -0.296244
H30   H     H_    0.800514 0.911913 0.402102 0.204741
H31   H     H_    0.730151 0.805066 0.433459 0.196701
C46   C     C_3   0.830141 0.844589 0.526883 -0.835103
H32   H     H_    0.817145 0.737352 0.566869 0.233265
H33   H     H_    0.815210 0.990562 0.542472 0.234908
H34   H     H_    0.888738 0.842138 0.535755 0.230217
O23   O     O_3   0.668687 0.072144 0.694386 -0.557240
C47   C     C_3   0.645152 0.152185 0.755485 0.092256
H35   H     H_    0.634016 0.307721 0.741735 0.138841
H36   H     H_    0.686570 0.146671 0.814892 0.092074
C48   C     C_3   0.575636 0.054900 0.758189 -0.307574
H37   H     H_    0.535202 0.059781 0.698471 0.214881
H38   H     H_    0.586306 0.901083 0.775687 0.168557
C49   C     C_3   0.544989 0.155464 0.817102 -0.861131
H39   H     H_    0.584503 0.152771 0.877483 0.236295
H40   H     H_    0.495568 0.079682 0.818738 0.235886
H41   H     H_    0.531105 0.307705 0.799050 0.230297
O24   O     O_3   0.221675 0.015171 0.118722 -0.571640
C50   C     C_3   0.231876 0.814725 0.133223 0.099850
H42   H     H_    0.183165 0.740083 0.095198 0.151392
H43   H     H_    0.237595 0.769949 0.195165 0.088628
C51   C     C_3   0.296010 0.747422 0.108253 -0.340366
H44   H     H_    0.286762 0.785064 0.044994 0.201504
H45   H     H_    0.345395 0.822759 0.144353 0.193682
C52   C     C_3   0.307234 0.529925 0.118285 -0.826259
H46   H     H_    0.317392 0.489150 0.181243 0.241925
H47   H     H_    0.354366 0.486686 0.100220 0.227277
H48   H     H_    0.259322 0.451562 0.080490 0.235190

loop_
_geom_bond_atom_site_label_1
_geom_bond_atom_site_label_2
_ccdc_geom_bond_type
C30   H14   S    
C23   C25   A    
O13   V3    S    
C48   H37   S    
C40   H20   S    
V1    O19   S    
C49   H39   S    
C17   H7    S    
C3    C26   S    
O21   C41   S    
C4    C25   S    
O9    V1    S    
C36   H16   S    
C12   C14   A    
O3    C1    A    
C33   O23   S    
C38   C40   D    
O12   V4    S    
C44   H28   S    
O7    C3    A    
C47   H35   S    
C26   C28   A    
C8    C14   S    
C27   H11   S    
C7    C13   S    
O24   C50   S    
C45   H30   S    
C34   C38   S    
O13   V1    S    
O5    C7    A    
O7    V1    S    
O6    C8    A    
O8    V2    S    
C29   H13   S    
C2    C39   S    
C28   H12   S    
O23   C47   S    
O3    V1    S    
O14   V4    S    
V4    O20   S    
C13   C15   A    
C22   O22   S    
O4    C2    A    
C18   H8    S    
C21   C31   A    
C2    O12   A    
C35   H15   S    
C14   C16   A    
C5    C35   S    
O1    V3    S    
C44   H29   S    
C16   H6    S    
O11   V3    S    
C21   C23   A    
O17   V3    S    
C22   C24   A    
C25   C27   A    
C28   C30   A    
C41   H22   S    
C34   C36   D    
O8    C4    A    
C33   C35   D    
C41   H21   S    
C17   C19   A    
C1    O11   A    
O15   V3    S    
C43   H27   S    
C9    C11   A    
C24   C26   A    
O4    V2    S    
C46   H34   S    
C52   H48   S    
C38   H18   S    
C22   C32   A    
C37   H17   S    
O22   C44   S    
O10   V2    S    
C45   H31   S    
C37   C39   D    
C48   H38   S    
C42   C43   S    
C15   H5    S    
C50   H43   S    
O18   V4    S    
O15   C5    A    
C52   H46   S    
C46   H33   S    
O16   C6    A    
O1    C3    A    
C51   H45   S    
C33   C37   S    
C44   C45   S    
V2    O20   S    
C50   C51   S    
O16   V4    S    
C10   C12   A    
O18   C8    A    
C41   C42   S    
C49   H40   S    
C50   H42   S    
C47   H36   S    
O5    V1    S    
C9    C19   A    
O6    V2    S    
O10   C6    A    
C10   C20   A    
C47   C48   S    
O2    V4    S    
C51   C52   S    
C23   H9    S    
C51   H44   S    
V3    O19   S    
C12   H4    S    
C6    C36   S    
C43   H26   S    
C30   C32   A    
C29   C31   A    
O9    C5    A    
C43   H25   S    
C9    H1    S    
C10   H2    S    
C24   H10   S    
C48   C49   S    
O14   V2    S    
C45   C46   S    
C11   C13   A    
O2    C4    A    
C49   H41   S    
C20   C32   S    
C39   H19   S    
C27   C29   A    
C18   C20   A    
C11   H3    S    
C42   H24   S    
C34   O24   S    
C46   H32   S    
C52   H47   S    
C21   O21   S    
C19   C31   S    
C42   H23   S    
C15   C17   A    
C16   C18   A    
C1    C40   S    
O17   C7    A    
