data_mof_unit_37335.cif
_audit_creation_date              2012-12-11T15:32:32-0500
_audit_creation_method            fapswitch 2.2
_symmetry_space_group_name_H-M    P1
_symmetry_Int_Tables_number       1
_space_group_crystal_system       triclinic
_cell_length_a                    6.951101
_cell_length_b                    20.453985
_cell_length_c                    24.412276
_cell_angle_alpha                 89.616144
_cell_angle_beta                  90.502613
_cell_angle_gamma                 89.446735
_cell_volume                      3470.50639428

loop_
_atom_site_label
_atom_site_type_symbol
_atom_type_description
_atom_site_fract_x
_atom_site_fract_y
_atom_site_fract_z
_atom_type_partial_charge
O1    O     O_R   0.507320 0.423560 0.460500 -0.537207
O2    O     O_R   0.170760 0.556250 0.437010 -0.533055
O3    O     O_R   0.004030 0.576440 0.539500 -0.536166
C1    C     C_R   0.338760 0.576253 0.420962 0.722171
O4    O     O_R   0.177370 0.422820 0.454110 -0.540689
O5    O     O_R   0.010680 0.442050 0.556720 -0.535455
C2    C     C_R   0.346579 0.399215 0.443147 0.712475
O6    O     O_R   0.500680 0.557950 0.443280 -0.532043
O7    O     O_3   0.340380 0.506470 0.533650 -0.369234
V1    V     V_3+5 0.064130 0.498800 0.493760 1.438766
O8    O     O_R   0.681160 0.443750 0.562990 -0.538953
C3    C     C_R   0.850958 0.423702 0.578866 0.721172
O9    O     O_R   0.674560 0.577180 0.545890 -0.538326
C4    C     C_R   0.842819 0.600987 0.556752 0.695754
V2    V     V_3+5 0.564560 0.501200 0.506240 1.436373
O10   O     O_3   0.838180 0.493530 0.466350 -0.365095
C5    C     C_R   0.975973 0.836826 0.912619 -0.047280
C6    C     C_R   0.848472 0.661534 0.589241 -0.044438
C7    C     C_R   0.027308 0.719670 0.907555 -0.171261
C8    C     C_R   0.021391 0.776798 0.938651 0.154390
C9    C     C_R   0.936293 0.838243 0.855919 -0.257333
C10   C     C_R   0.943135 0.780409 0.823712 0.088416
C11   C     C_R   0.990035 0.720940 0.850995 0.102456
C12   C     C_R   0.907063 0.779398 0.765563 0.062928
C13   C     C_R   0.919517 0.718863 0.736081 0.057385
C14   C     C_R   0.967049 0.661445 0.765740 -0.183309
C15   C     C_R   0.000949 0.662652 0.821827 -0.191684
C16   C     C_R   0.858849 0.836791 0.735906 -0.175828
C17   C     C_R   0.823606 0.835531 0.679864 -0.188000
C18   C     C_R   0.834274 0.777243 0.650724 0.130978
C19   C     C_R   0.883057 0.717778 0.677983 0.086212
C20   C     C_R   0.794280 0.778229 0.594250 -0.154565
C21   C     C_R   0.799845 0.720859 0.563960 -0.165110
C22   C     C_R   0.890854 0.659866 0.645734 -0.213322
H1    H     H_    0.037000 0.617118 0.842667 0.120575
H2    H     H_    0.925498 0.612624 0.663116 0.092275
H3    H     H_    0.765294 0.722680 0.520603 0.114008
H4    H     H_    0.786357 0.880976 0.659053 0.139071
H5    H     H_    0.062759 0.673665 0.927798 0.120540
H6    H     H_    0.904324 0.885532 0.838227 0.110618
H7    H     H_    0.979376 0.614238 0.746819 0.120566
H8    H     H_    0.846058 0.883979 0.754834 0.137301
H9    H     H_    0.756295 0.823610 0.573482 0.119893
C23   C     C_3   0.837951 0.307213 0.768491 -0.116020
C24   C     C_3   0.027919 0.274471 0.788230 0.132881
H10   H     H_    0.778004 0.354159 0.783651 0.122668
H11   H     H_    0.231795 0.269653 0.710733 0.134391
C25   C     C_1   0.960471 0.121768 0.875391 -0.178597
C26   C     C_1   0.863818 0.378291 0.624673 -0.193930
C27   C     C_3   0.737503 0.239645 0.771647 -0.248375
C28   C     C_3   0.928442 0.207834 0.791548 0.050918
C29   C     C_3   0.794306 0.225894 0.711294 -0.185780
C30   C     C_3   0.895665 0.292694 0.708824 0.049147
C31   C     C_3   0.984711 0.194627 0.732012 0.660612
C32   C     C_3   0.087434 0.261150 0.728395 -0.213765
C33   C     C_1   0.946943 0.160328 0.837473 0.022254
C34   C     C_1   0.877252 0.339870 0.662701 -0.011379
H12   H     H_    0.698615 0.205508 0.679161 0.148220
H13   H     H_    0.593636 0.230668 0.789407 0.150082
C35   C     C_3   0.513678 0.720919 0.209380 -0.214427
C36   C     C_3   0.316380 0.696891 0.230994 -0.221281
H14   H     H_    0.237767 0.653565 0.215778 0.153266
H15   H     H_    0.599903 0.697460 0.176744 0.135750
H16   H     H_    0.095431 0.784312 0.213124 0.143006
C37   C     C_1   0.348530 0.621580 0.374838 -0.168679
C38   C     C_1   0.475588 0.877799 0.124730 -0.196764
C39   C     C_3   0.581103 0.731011 0.269145 0.638571
C40   C     C_3   0.386889 0.706972 0.290544 0.059037
C41   C     C_3   0.506750 0.802468 0.267994 -0.225146
C42   C     C_3   0.435615 0.791917 0.208564 0.037572
C43   C     C_3   0.310611 0.777755 0.288855 0.131944
C44   C     C_3   0.238266 0.768462 0.229355 -0.068702
C45   C     C_1   0.363552 0.659840 0.336699 0.043918
C46   C     C_1   0.460093 0.839197 0.162615 -0.012486
H17   H     H_    0.585931 0.845535 0.283503 0.131359
C47   C     C_R   0.473498 0.162560 0.087712 -0.040765
C48   C     C_R   0.356956 0.339698 0.409321 -0.046418
C49   C     C_R   0.551598 0.277140 0.092574 -0.159113
C50   C     C_R   0.535282 0.219871 0.062656 -0.175006
C51   C     C_R   0.426600 0.162846 0.143510 -0.203454
C52   C     C_R   0.448507 0.220184 0.175809 0.049785
C53   C     C_R   0.511875 0.278296 0.149187 0.122597
C54   C     C_R   0.414632 0.221171 0.233718 0.054005
C55   C     C_R   0.426525 0.281333 0.263068 0.016883
C56   C     C_R   0.503611 0.335780 0.235940 -0.198689
C57   C     C_R   0.542367 0.335642 0.179918 0.140591
C58   C     C_R   0.381761 0.163370 0.264002 -0.172471
C59   C     C_R   0.369629 0.164236 0.320750 -0.188958
C60   C     C_R   0.373137 0.223065 0.349299 0.108351
C61   C     C_R   0.382694 0.283413 0.320524 0.088554
C62   C     C_R   0.367884 0.221656 0.406635 -0.161739
C63   C     C_R   0.368893 0.279396 0.436262 -0.209643
C64   C     C_R   0.349763 0.342293 0.351160 0.093966
H18   H     H_    0.370606 0.277001 0.480626 0.121547
H19   H     H_    0.356467 0.118166 0.342567 0.123582
H20   H     H_    0.600536 0.320061 0.070900 0.127933
H21   H     H_    0.573420 0.220084 0.019702 0.107136
H22   H     H_    0.376731 0.117364 0.160474 0.095431
H23   H     H_    0.544730 0.378371 0.258920 0.154670
H24   H     H_    0.377582 0.115762 0.245519 0.119630
H25   H     H_    0.366651 0.175528 0.428743 0.127762
O11   O     O_R   0.323550 0.942140 0.056770 -0.535983
O12   O     O_R   0.647080 0.077200 0.045890 -0.538650
O13   O     O_R   0.813610 0.057920 0.943260 -0.535717
C65   C     C_R   0.478302 0.101314 0.056323 0.691704
O14   O     O_R   0.653470 0.943760 0.063000 -0.537187
O15   O     O_R   0.820050 0.923540 0.960490 -0.536300
C66   C     C_R   0.485481 0.923560 0.078905 0.723992
O16   O     O_R   0.317110 0.076520 0.039540 -0.537829
O17   O     O_3   0.483830 0.993580 0.966380 -0.364259
V3    V     V_3+5 0.760140 0.001190 0.006240 1.429849
O18   O     O_R   0.149510 0.922740 0.954070 -0.535616
C67   C     C_R   0.981259 0.898814 0.943422 0.707112
O19   O     O_R   0.143120 0.056170 0.936970 -0.535515
C68   C     C_R   0.973336 0.076258 0.921120 0.722726
V4    V     V_3+5 0.259690 0.998700 0.993700 1.437555
O20   O     O_3   0.986130 0.006420 0.033620 -0.369410
C69   C     C_3   0.160498 0.302323 0.831867 -0.790485
H26   H     H_    0.213379 0.350773 0.818316 0.211276
H27   H     H_    0.080832 0.307912 0.870778 0.211197
H28   H     H_    0.284891 0.268754 0.838655 0.208265
F1    F     F_    0.060182 0.136219 0.713281 -0.676244
C70   C     C_3   0.194043 0.810301 0.333628 -0.742734
H29   H     H_    0.157272 0.861230 0.321223 0.203151
H30   H     H_    0.059549 0.782716 0.340397 0.257864
H31   H     H_    0.279486 0.810924 0.372231 0.201394
F2    F     F_    0.758711 0.711366 0.289585 -0.702813
C71   C     C_3   0.620591 0.397264 0.154255 -0.799751
H32   H     H_    0.636717 0.437235 0.184489 0.212934
H33   H     H_    0.764580 0.387219 0.136667 0.211506
H34   H     H_    0.520915 0.415135 0.121547 0.206556
C72   C     C_3   0.277441 0.405130 0.324508 -0.814181
H35   H     H_    0.391320 0.442811 0.325647 0.196089
H36   H     H_    0.225594 0.397681 0.281966 0.222656
H37   H     H_    0.150122 0.424084 0.346711 0.217089
C73   C     C_3   0.064748 0.771134 0.999209 -0.788709
H38   H     H_    0.050719 0.818185 0.021141 0.201767
H39   H     H_    0.963604 0.736186 0.018291 0.205232
H40   H     H_    0.214042 0.752536 0.005364 0.209067

loop_
_geom_bond_atom_site_label_1
_geom_bond_atom_site_label_2
_ccdc_geom_bond_type
C24   C69   S    
C13   C19   A    
C54   C58   A    
C58   C59   A    
C48   C63   A    
C47   C65   S    
C4    C6    S    
O2    C1    A    
C7    C8    A    
C47   C50   A    
C1    O6    A    
C71   H32   S    
O19   C68   A    
C37   C45   T    
C70   H29   S    
C56   C57   A    
C23   C24   S    
C14   C15   A    
C35   H15   S    
C27   H13   S    
C43   C70   S    
C16   C17   A    
C72   H37   S    
O5    C3    A    
C1    C37   S    
C70   H30   S    
C24   C28   S    
V2    O10   S    
C38   C46   T    
C5    C8    A    
C26   C34   T    
V4    O20   S    
O12   V3    S    
C28   C33   S    
C16   H8    S    
C41   C43   S    
C69   H26   S    
O15   C67   A    
O16   V4    S    
O17   V3    S    
O8    V2    S    
C23   C30   S    
C35   C39   S    
C49   H20   S    
C72   H35   S    
C17   H4    S    
C42   C46   S    
C27   C29   S    
O11   C66   A    
O1    V2    S    
C11   C15   A    
C60   C62   A    
C64   C72   S    
O7    V1    S    
C2    C48   S    
C29   C31   S    
C31   F1    S    
C59   H19   S    
O9    C4    A    
C36   H14   S    
C55   C61   A    
C62   H25   S    
C73   H40   S    
O18   C67   A    
C52   C54   A    
C23   H10   S    
C52   C53   A    
O14   V3    S    
C30   C32   S    
C29   H12   S    
C57   C71   S    
C39   C40   S    
C12   C16   A    
C12   C13   A    
C73   H39   S    
C62   C63   A    
O4    C2    A    
C30   C34   S    
C49   C50   A    
C73   H38   S    
C70   H31   S    
C15   H1    S    
C40   C45   S    
C53   C57   A    
C21   H3    S    
C35   C36   S    
C39   C41   S    
C69   H28   S    
C7    C11   A    
C3    C26   S    
C17   C18   A    
C56   H23   S    
C39   F2    S    
O13   C68   A    
C6    C22   A    
C49   C53   A    
C54   C55   A    
C35   C42   S    
C63   H18   S    
C27   C28   S    
C19   C22   A    
O12   C65   A    
C55   C56   A    
C8    C73   S    
C5    C67   S    
O3    C4    A    
C7    H5    S    
C25   C68   S    
C36   C44   S    
O6    V2    S    
O9    V2    S    
C10   C12   A    
O2    V1    S    
C71   H34   S    
O17   V4    S    
O18   V4    S    
C29   C30   S    
C61   C64   A    
H11   C32   S    
C58   H24   S    
C23   C27   S    
C25   C33   T    
C65   O16   A    
C31   C32   S    
C51   H22   S    
O1    C2    A    
O15   V3    S    
C50   H21   S    
C47   C51   A    
C38   C66   S    
C51   C52   A    
C71   H33   S    
O5    V1    S    
O13   V3    S    
O19   V4    S    
O8    C3    A    
V3    O20   S    
C28   C31   S    
C20   C21   A    
C13   C14   A    
O4    V1    S    
O3    V1    S    
V1    O10   S    
C18   C20   A    
C36   C40   S    
C18   C19   A    
C9    H6    S    
O14   C66   A    
C40   C43   S    
C48   C64   A    
C20   H9    S    
C41   H17   S    
C22   H2    S    
H16   C44   S    
O7    V2    S    
C41   C42   S    
C6    C21   A    
C69   H27   S    
O11   V4    S    
C43   C44   S    
C59   C60   A    
C24   C32   S    
C72   H36   S    
C10   C11   A    
C42   C44   S    
C60   C61   A    
C9    C10   A    
C14   H7    S    
C5    C9    A    
