data_mof_unit_29063.cif
_audit_creation_date              2013-03-05T16:11:30-0500
_audit_creation_method            fapswitch 2.2
_symmetry_space_group_name_H-M    P1
_symmetry_Int_Tables_number       1
_space_group_crystal_system       triclinic
_cell_length_a                    9.521706
_cell_length_b                    10.823905
_cell_length_c                    17.342894
_cell_angle_alpha                 89.207204
_cell_angle_beta                  85.936651
_cell_angle_gamma                 89.943937
_cell_volume                      1782.73043468

loop_
_atom_site_label
_atom_site_type_symbol
_atom_site_description
_atom_site_fract_x
_atom_site_fract_y
_atom_site_fract_z
_atom_type_partial_charge
O1    O     O_R   0.379740 0.682430 0.499960 -0.593057
O2    O     O_R   0.620260 0.682190 0.500020 -0.483276
C1    C     C_R   0.499665 0.739936 0.500160 0.880916
O3    O     O_R   0.365800 0.500150 0.613560 -0.570275
O4    O     O_R   0.606310 0.499910 0.613620 -0.583766
C2    C     C_R   0.481468 0.497601 0.649619 0.843464
Cu1   Cu    Cu3+1 0.357600 0.500140 0.499960 1.042911
Cu2   Cu    Cu3+1 0.642400 0.499860 0.500040 1.048623
O5    O     O_R   0.379740 0.317810 0.499980 -0.566217
O6    O     O_R   0.620260 0.317570 0.500040 -0.587404
O7    O     O_R   0.393690 0.500090 0.386380 -0.540407
O8    O     O_R   0.634200 0.499850 0.386440 -0.542350
C3    C     C_R   0.500592 0.260323 0.497021 0.844182
C4    C     C_R   0.518772 0.500144 0.350082 0.891417
C5    C     C_R   0.471672 0.488295 0.733915 -0.085421
C6    C     C_R   0.590897 0.455011 0.772187 -0.110135
C7    C     C_R   0.582914 0.445010 0.851989 -0.115768
C8    C     C_R   0.456467 0.470467 0.895151 -0.019844
C9    C     C_R   0.334474 0.502563 0.857332 0.367994
C10   C     C_R   0.343483 0.509949 0.776469 -0.214788
C11   C     C_R   0.412459 0.529700 0.146253 -0.069327
C12   C     C_R   0.406243 0.522653 0.226170 -0.152030
C13   C     C_R   0.659050 0.491250 0.221771 0.657657
C14   C     C_R   0.664737 0.498052 0.141294 -0.122700
C15   C     C_R   0.541301 0.515317 0.103397 -0.022897
C16   C     C_2   0.453545 0.459639 0.979436 0.491974
C17   C     C_2   0.547883 0.520274 0.018930 0.482912
C18   C     C_R   0.528919 0.503832 0.265104 -0.171017
H1    H     H_    0.690295 0.435157 0.740483 0.179304
H2    H     H_    0.304757 0.532903 0.257024 0.275595
H3    H     H_    0.316459 0.547324 0.117979 0.231910
H4    H     H_    0.251246 0.536079 0.746926 0.192015
H5    H     H_    0.675895 0.416794 0.880262 0.204733
H6    H     H_    0.765064 0.487549 0.108465 0.220436
C19   C     C_3   0.350467 0.930616 0.485959 -0.488691
H7    H     H_    0.272717 0.892455 0.531034 0.254801
H8    H     H_    0.315266 0.904530 0.429117 0.311406
C20   C     C_3   0.349782 0.072045 0.491754 -0.423471
H9    H     H_    0.298044 0.112866 0.441736 0.234899
H10   H     H_    0.287051 0.097658 0.545434 0.279929
H11   H     H_    0.454362 0.907997 0.621934 0.092032
H12   H     H_    0.500698 0.114481 0.622059 0.150838
C21   C     C_3   0.539974 0.930188 0.576765 0.517611
C22   C     C_3   0.606113 0.927031 0.430722 0.783258
C23   C     C_3   0.499776 0.878260 0.497660 -0.251231
C24   C     C_3   0.502067 0.122286 0.495283 -0.192080
C25   C     C_3   0.558672 0.071630 0.571177 -0.373164
C26   C     C_3   0.590649 0.070680 0.422768 0.075855
H13   H     H_    0.528667 0.092263 0.372153 0.132641
H14   H     H_    0.671197 0.096585 0.574190 0.267674
C27   C     C_3   0.914773 0.373149 0.490680 -0.299499
H15   H     H_    0.892386 0.336163 0.433445 0.250929
H16   H     H_    0.858740 0.312770 0.534967 0.231720
C28   C     C_3   0.079723 0.367937 0.499260 0.253152
H17   H     H_    0.127800 0.317009 0.448715 0.171096
H18   H     H_    0.887142 0.535712 0.377292 0.258624
C29   C     C_3   0.924222 0.570769 0.432003 -0.231096
C30   C     C_3   0.910362 0.548819 0.571631 0.229179
N1    N     N_3   0.856560 0.499750 0.498270 -0.285330
H19   H     H_    0.881669 0.480916 0.619186 0.124227
N2    N     N_3   0.143860 0.496700 0.498910 -0.275140
C31   C     C_3   0.091089 0.560415 0.427707 0.821905
C32   C     C_3   0.075655 0.561226 0.566971 -0.349775
H20   H     H_    0.112643 0.526062 0.621931 0.213672
H21   H     H_    0.110572 0.658750 0.566683 0.216202
H22   H     H_    0.886107 0.667371 0.433373 0.254601
F1    F     F_    0.740816 0.897692 0.450884 -0.520085
N3    N     N_R   0.585564 0.866770 0.356540 0.083172
O9    O     O_R   0.681749 0.792776 0.326485 -0.267321
O10   O     O_R   0.476187 0.890545 0.317911 -0.344364
N4    N     N_R   0.728406 0.130414 0.407494 0.158497
O11   O     O_R   0.755120 0.192268 0.343256 -0.297740
O12   O     O_R   0.828376 0.114710 0.454094 -0.264528
F2    F     F_    0.660714 0.878032 0.601541 -0.532586
N5    N     N_R   0.104928 0.290325 0.567824 0.102410
O13   O     O_R   0.049235 0.180463 0.573546 -0.328129
O14   O     O_R   0.186875 0.322997 0.620628 -0.343552
F3    F     F_    0.128410 0.489358 0.363297 -0.667232
N6    N     N_R   0.846461 0.666789 0.594823 0.189982
O15   O     O_R   0.885646 0.767970 0.558273 -0.185599
O16   O     O_R   0.782335 0.675488 0.663346 -0.285287
F4    F     F_    0.780281 0.470421 0.256402 -0.609190
N7    N     N_R   0.152925 0.683988 0.413717 0.130878
O17   O     O_R   0.237525 0.704376 0.352665 -0.280277
O18   O     O_R   0.099034 0.779267 0.449785 -0.351083
F5    F     F_    0.651340 0.589492 0.981224 -0.621289
N8    N     N_R   0.203054 0.531483 0.899508 0.168848
O19   O     O_R   0.201177 0.590774 0.964334 -0.285597
O20   O     O_R   0.084522 0.512393 0.868549 -0.293777
F6    F     F_    0.353142 0.386491 0.016575 -0.618291

loop_
_geom_bond_atom_site_label_1
_geom_bond_atom_site_label_2
_geom_bond_distance
_ccdc_geom_bond_type
N8    O19   1.301268 A    
C32   H21   1.106859 S    
C13   F4    1.355735 S    
C19   H7    1.113291 S    
C8    C16   1.463115 S    
C29   H22   1.106488 S    
C31   N7    1.472020 S    
Cu1   Cu2   2.711880 S    
Cu1   O7    1.975430 S    
C11   H3    1.083050 S    
C16   C17   1.344454 D    
O4    C2    1.303029 A    
C19   H8    1.103899 S    
C9    N8    1.440384 S    
Cu2   N1    2.037223 S    
C3    C24   1.494851 S    
O7    C4    1.307093 A    
C29   N1    1.482678 S    
C30   H19   1.116567 S    
C5    C6    1.399449 A    
H18   C29   1.107550 S    
C8    C9    1.414582 A    
N2    C32   1.488661 S    
O5    C3    1.305784 A    
Cu1   N2    2.036922 S    
C2    C5    1.460378 S    
C24   C25   1.550339 S    
C9    C10   1.400114 A    
C6    C7    1.383451 A    
C13   C14   1.393842 A    
C21   F2    1.373698 S    
C12   C18   1.403341 A    
C11   C12   1.384109 A    
H11   C21   1.113785 S    
C7    H5    1.083675 S    
O3    Cu1   1.977223 S    
C25   H14   1.110202 S    
C5    C10   1.402135 A    
C24   C26   1.572646 S    
C27   H15   1.110037 S    
C29   C31   1.589246 S    
C19   C20   1.535475 S    
C14   C15   1.397825 A    
O3    C2    1.304570 A    
N6    O16   1.301571 A    
N3    O9    1.301683 A    
C30   N1    1.508265 S    
C1    C23   1.497230 S    
C14   H6    1.083574 S    
C28   N5    1.479751 S    
C27   H16   1.109233 S    
C17   F5    1.362326 S    
N5    O13   1.302158 A    
N5    O14   1.297420 A    
N7    O17   1.300646 A    
C16   F6    1.362276 S    
Cu2   O8    1.977220 S    
C7    C8    1.401133 A    
C13   C18   1.410378 A    
C21   C23   1.562284 S    
C30   N6    1.463028 S    
Cu2   O6    1.984525 S    
C26   H13   1.113956 S    
N7    O18   1.299805 A    
O8    C4    1.305268 A    
N8    O20   1.301607 A    
N6    O15   1.299417 A    
C22   N3    1.475817 S    
C27   N1    1.481717 S    
C26   N4    1.468456 S    
C19   C23   1.555511 S    
C22   C23   1.571323 S    
N4    O12   1.301161 A    
C10   H4    1.083106 S    
C30   C32   1.575982 S    
Cu1   O5    1.984543 S    
C11   C15   1.398307 A    
C28   H17   1.112597 S    
C12   H2    1.077294 S    
O1    Cu1   1.984525 S    
C31   F3    1.390183 S    
O2    Cu2   1.984544 S    
O6    C3    1.302214 A    
O4    Cu2   1.975432 S    
C28   N2    1.521946 S    
C15   C17   1.462040 S    
C27   C28   1.588972 S    
C4    C18   1.470061 S    
O2    C1    1.306693 A    
C6    H1    1.083220 S    
N4    O11   1.301397 A    
C20   H10   1.108306 S    
C20   H9    1.113514 S    
H12   C25   1.113703 S    
N2    C31   1.522067 S    
C20   C24   1.554686 S    
C32   H20   1.102141 S    
N3    O10   1.301246 A    
C22   F1    1.388471 S    
O1    C1    1.301293 A    
C21   C25   1.542372 S    
C22   C26   1.566772 S    
