data_mof_unit_54181.cif
_audit_creation_date              2013-03-05T15:48:34-0500
_audit_creation_method            fapswitch 2.2
_symmetry_space_group_name_H-M    P1
_symmetry_Int_Tables_number       1
_space_group_crystal_system       triclinic
_cell_length_a                    16.671425
_cell_length_b                    16.670455
_cell_length_c                    43.187991
_cell_angle_alpha                 89.996408
_cell_angle_beta                  90.000691
_cell_angle_gamma                 120.004582
_cell_volume                      10394.2643009

loop_
_atom_site_label
_atom_site_type_symbol
_atom_site_description
_atom_site_fract_x
_atom_site_fract_y
_atom_site_fract_z
_atom_type_partial_charge
O1    O     O_R   0.509640 0.171340 0.784000 -0.484396
O2    O     O_R   0.661700 0.490360 0.716000 -0.476745
O3    O     O_R   0.828660 0.338300 0.784000 -0.484889
O4    O     O_R   0.509640 0.171340 0.716000 -0.476816
O5    O     O_R   0.661700 0.490360 0.784000 -0.484661
O6    O     O_R   0.828660 0.338300 0.716000 -0.476677
O7    O     O_R   0.171340 0.509640 0.284000 -0.476809
O8    O     O_R   0.490360 0.661700 0.216000 -0.484755
O9    O     O_R   0.338300 0.828660 0.284000 -0.476715
O10   O     O_R   0.171340 0.509640 0.216000 -0.484545
O11   O     O_R   0.490360 0.661700 0.284000 -0.476730
O12   O     O_R   0.338300 0.828660 0.216000 -0.484411
O13   O     O_R   0.539230 0.345420 0.781810 -0.485743
O14   O     O_R   0.806190 0.460770 0.718190 -0.488770
O15   O     O_R   0.654580 0.193810 0.781810 -0.486064
O16   O     O_R   0.539230 0.345420 0.718190 -0.488917
O17   O     O_R   0.806190 0.460770 0.781810 -0.486168
O18   O     O_R   0.654580 0.193810 0.718190 -0.488816
O19   O     O_R   0.345420 0.539230 0.281810 -0.488857
O20   O     O_R   0.460770 0.806190 0.218190 -0.486079
O21   O     O_R   0.193810 0.654580 0.281810 -0.488858
O22   O     O_R   0.345420 0.539230 0.218190 -0.486104
O23   O     O_R   0.460770 0.806190 0.281810 -0.488829
O24   O     O_R   0.193810 0.654580 0.218190 -0.485813
C1    C     C_R   0.583991 0.425976 0.794451 0.541317
C2    C     C_R   0.842266 0.415984 0.705599 0.543061
C3    C     C_R   0.574026 0.158019 0.794453 0.541311
C4    C     C_R   0.584033 0.426282 0.705593 0.542990
C5    C     C_R   0.841932 0.415975 0.794467 0.541291
C6    C     C_R   0.573723 0.157767 0.705591 0.543015
C7    C     C_R   0.426276 0.584027 0.294407 0.543058
C8    C     C_R   0.416010 0.841981 0.205547 0.541253
C9    C     C_R   0.157764 0.573720 0.294409 0.543012
C10   C     C_R   0.425959 0.584012 0.205536 0.541277
C11   C     C_R   0.415976 0.842259 0.294402 0.542986
C12   C     C_R   0.158010 0.574025 0.205551 0.541324
Cr1   Cr    Cr6+3 0.530290 0.262330 0.750000 1.088737
Cr2   Cr    Cr6+3 0.732040 0.469710 0.750000 1.088589
Cr3   Cr    Cr6+3 0.737670 0.267960 0.750000 1.088535
Cr4   Cr    Cr6+3 0.262330 0.530290 0.250000 1.088568
Cr5   Cr    Cr6+3 0.469710 0.732040 0.250000 1.088536
Cr6   Cr    Cr6+3 0.267960 0.737670 0.250000 1.088719
O25   O     O_3   0.666667 0.333333 0.750000 -0.278957
O26   O     O_3   0.333333 0.666667 0.250000 -0.278963
C13   C     C_R   0.881625 0.444707 0.825464 -0.057481
C14   C     C_R   0.561911 0.121567 0.674059 -0.054401
C15   C     C_R   0.555573 0.436693 0.825516 -0.056745
C16   C     C_R   0.878496 0.440409 0.674074 -0.054234
C17   C     C_R   0.563248 0.118667 0.825490 -0.057096
C18   C     C_R   0.559608 0.438103 0.674067 -0.054382
C19   C     C_R   0.440391 0.878480 0.325928 -0.054230
C20   C     C_R   0.118874 0.563342 0.174488 -0.056711
C21   C     C_R   0.438082 0.559593 0.325933 -0.054392
C22   C     C_R   0.444608 0.881350 0.174513 -0.057059
C23   C     C_R   0.121561 0.561905 0.325941 -0.054411
C24   C     C_R   0.436870 0.555291 0.174533 -0.057336
C25   C     C_R   0.011739 0.590087 0.032624 -0.001696
C26   C     C_R   0.583715 0.989102 0.467171 -0.007290
C27   C     C_R   0.412600 0.419413 0.032970 -0.002083
C28   C     C_R   0.012278 0.595401 0.467281 -0.007363
C29   C     C_R   0.579677 0.990835 0.032809 -0.001793
C30   C     C_R   0.404927 0.416401 0.467222 -0.007362
C31   C     C_R   0.595336 0.012188 0.532726 -0.007358
C32   C     C_R   0.993620 0.580688 0.966998 -0.002134
C33   C     C_R   0.416431 0.404909 0.532782 -0.007363
C34   C     C_R   0.588769 0.009082 0.967187 -0.001824
C35   C     C_R   0.989228 0.583784 0.532838 -0.007273
C36   C     C_R   0.421503 0.410152 0.967343 -0.001767
C37   C     C_R   0.018516 0.590654 0.065324 0.509240
C38   C     C_R   0.571468 0.971248 0.434882 0.525557
C39   C     C_R   0.411902 0.426397 0.065650 0.509048
C40   C     C_R   0.029868 0.600903 0.434974 0.525675
C41   C     C_R   0.573018 0.983542 0.065497 0.509078
C42   C     C_R   0.399382 0.428564 0.434922 0.525642
C43   C     C_R   0.600852 0.029813 0.565030 0.525660
C44   C     C_R   0.985878 0.573586 0.934321 0.508922
C45   C     C_R   0.428597 0.399376 0.565082 0.525643
C46   C     C_R   0.589406 0.016448 0.934501 0.509059
C47   C     C_R   0.971374 0.571533 0.565127 0.525548
C48   C     C_R   0.427873 0.409598 0.934646 0.509251
O27   O     O_2   0.012951 0.649337 0.080603 -0.384255
O28   O     O_2   0.623995 0.953823 0.420511 -0.363946
O29   O     O_2   0.354435 0.361734 0.081094 -0.384471
O30   O     O_2   0.047727 0.671022 0.420626 -0.363573
O31   O     O_2   0.637478 0.989978 0.080870 -0.384701
O32   O     O_2   0.329358 0.376146 0.420561 -0.363592
O33   O     O_2   0.670964 0.047666 0.579377 -0.363628
O34   O     O_2   0.993388 0.638320 0.918844 -0.384371
O35   O     O_2   0.376198 0.329344 0.579446 -0.363588
O36   O     O_2   0.647389 0.009980 0.919115 -0.384655
O37   O     O_2   0.953991 0.624086 0.579502 -0.363988
O38   O     O_2   0.363643 0.351004 0.919336 -0.384144
N1    N     N_R   0.032207 0.525294 0.080363 -0.364829
N2    N     N_R   0.498421 0.970614 0.419475 -0.363983
N3    N     N_R   0.475717 0.506687 0.080482 -0.364689
N4    N     N_R   0.029709 0.528162 0.419517 -0.363920
N5    N     N_R   0.493279 0.968330 0.080417 -0.364821
N6    N     N_R   0.471955 0.501402 0.419490 -0.363944
N7    N     N_R   0.528133 0.029698 0.580486 -0.363924
N8    N     N_R   0.968994 0.493108 0.919529 -0.364778
N9    N     N_R   0.501417 0.471970 0.580511 -0.363941
N10   N     N_R   0.524934 0.031775 0.919596 -0.364802
N11   N     N_R   0.970688 0.498449 0.580531 -0.363979
N12   N     N_R   0.507062 0.474863 0.919644 -0.364818
C49   C     C_R   0.028787 0.451981 0.064377 0.515911
C50   C     C_R   0.436272 0.987654 0.435107 0.499280
C51   C     C_R   0.547661 0.577569 0.064332 0.516288
C52   C     C_R   0.011990 0.448682 0.435103 0.499202
C53   C     C_R   0.422859 0.970487 0.064339 0.516709
C54   C     C_R   0.551283 0.563369 0.435100 0.499123
C55   C     C_R   0.448671 0.012010 0.564899 0.499215
C56   C     C_R   0.969715 0.422112 0.935718 0.516318
C57   C     C_R   0.563359 0.551310 0.564897 0.499127
C58   C     C_R   0.452421 0.029711 0.935687 0.516743
C59   C     C_R   0.987679 0.436270 0.564897 0.499292
C60   C     C_R   0.577006 0.548045 0.935661 0.515897
O39   O     O_2   0.040333 0.394402 0.078110 -0.397925
O40   O     O_2   0.375956 0.993222 0.420778 -0.421138
O41   O     O_2   0.604108 0.647624 0.077921 -0.396641
O42   O     O_2   0.005773 0.382585 0.420731 -0.421327
O43   O     O_2   0.353206 0.957785 0.077989 -0.395732
O44   O     O_2   0.617287 0.623467 0.420749 -0.421609
O45   O     O_2   0.382591 0.005834 0.579271 -0.421293
O46   O     O_2   0.955770 0.351892 0.922165 -0.396157
O47   O     O_2   0.623438 0.617332 0.579244 -0.421597
O48   O     O_2   0.395508 0.042496 0.922048 -0.395709
O49   O     O_2   0.993205 0.375922 0.579223 -0.421160
O50   O     O_2   0.646213 0.605584 0.921952 -0.397709
C61   C     C_R   0.012915 0.443721 0.032336 0.049806
C62   C     C_R   0.439876 0.995031 0.467457 0.055156
C63   C     C_R   0.555805 0.569898 0.032290 0.049861
C64   C     C_R   0.004636 0.444816 0.467454 0.055188
C65   C     C_R   0.430544 0.986391 0.032301 0.049313
C66   C     C_R   0.555077 0.559842 0.467451 0.055377
C67   C     C_R   0.444805 0.004641 0.532549 0.055173
C68   C     C_R   0.985577 0.429859 0.967756 0.049750
C69   C     C_R   0.559827 0.555100 0.532546 0.055375
C70   C     C_R   0.444228 0.013809 0.967725 0.049301
C71   C     C_R   0.995053 0.439881 0.532547 0.055174
C72   C     C_R   0.569358 0.556215 0.967706 0.049828
C73   C     C_R   0.006668 0.514285 0.016225 -0.061974
C74   C     C_R   0.514213 0.996221 0.483620 -0.061375
C75   C     C_R   0.486710 0.491526 0.016377 -0.061839
C76   C     C_R   0.004316 0.518324 0.483673 -0.061335
C77   C     C_R   0.508220 0.994290 0.016302 -0.062208
C78   C     C_R   0.481750 0.485744 0.483643 -0.061284
C79   C     C_R   0.518286 0.004264 0.516332 -0.061344
C80   C     C_R   0.995236 0.508439 0.983629 -0.061886
C81   C     C_R   0.485749 0.481750 0.516357 -0.061284
C82   C     C_R   0.513947 0.005773 0.983708 -0.062198
C83   C     C_R   0.996288 0.514251 0.516386 -0.061362
C84   C     C_R   0.492360 0.485759 0.983779 -0.061930
C85   C     C_R   0.009600 0.662311 0.015906 0.192270
C86   C     C_R   0.660357 0.995530 0.483708 0.189839
C87   C     C_R   0.342212 0.342914 0.016453 0.191982
C88   C     C_R   0.006939 0.666120 0.483891 0.189899
C89   C     C_R   0.655207 0.995104 0.016204 0.191971
C90   C     C_R   0.334472 0.340026 0.483796 0.189887
C91   C     C_R   0.666019 0.006776 0.516120 0.189893
C92   C     C_R   0.000193 0.657449 0.983475 0.191962
C93   C     C_R   0.340076 0.334427 0.516211 0.189893
C94   C     C_R   0.659929 0.004579 0.983776 0.191947
C95   C     C_R   0.995714 0.660461 0.516304 0.189838
C96   C     C_R   0.346852 0.338112 0.984022 0.192225
C97   C     C_R   0.004940 0.367165 0.016046 -0.060842
C98   C     C_R   0.368931 0.998140 0.483965 -0.058638
C99   C     C_R   0.630793 0.639894 0.015809 -0.060778
C100  C     C_R   0.000700 0.370287 0.483908 -0.058750
C101  C     C_R   0.361227 0.992813 0.015905 -0.058510
C102  C     C_R   0.629339 0.630649 0.483933 -0.059280
C103  C     C_R   0.370303 0.000744 0.516093 -0.058717
C104  C     C_R   0.990264 0.359753 0.984275 -0.060726
C105  C     C_R   0.630610 0.629381 0.516061 -0.059288
C106  C     C_R   0.368567 0.007516 0.984135 -0.058548
C107  C     C_R   0.998109 0.368911 0.516035 -0.058674
C108  C     C_R   0.638080 0.632575 0.984034 -0.060936
C109  C     C_R   0.002740 0.473844 0.135480 0.232987
C110  C     C_R   0.397857 0.856756 0.380300 0.239183
C111  C     C_R   0.527716 0.530561 0.135535 0.233021
C112  C     C_R   0.143105 0.540648 0.380293 0.239139
C113  C     C_R   0.470307 0.997160 0.135488 0.232780
C114  C     C_R   0.459134 0.602209 0.380297 0.239071
C115  C     C_R   0.540660 0.143122 0.619708 0.239185
C116  C     C_R   0.996851 0.468692 0.864505 0.233126
C117  C     C_R   0.602244 0.459199 0.619704 0.239066
C118  C     C_R   0.473065 0.002955 0.864533 0.232783
C119  C     C_R   0.856771 0.397914 0.619700 0.239166
C120  C     C_R   0.529122 0.526318 0.864526 0.233043
C121  C     C_R   0.035271 0.485297 0.166126 -0.107183
C122  C     C_R   0.378284 0.828177 0.349549 -0.120432
C123  C     C_R   0.515905 0.551591 0.166144 -0.106859
C124  C     C_R   0.171570 0.549525 0.349531 -0.120465
C125  C     C_R   0.449221 0.964502 0.166117 -0.106994
C126  C     C_R   0.450221 0.621838 0.349544 -0.120484
C127  C     C_R   0.549553 0.171593 0.650468 -0.120446
C128  C     C_R   0.964038 0.447776 0.833892 -0.106795
C129  C     C_R   0.621868 0.450281 0.650457 -0.120475
C130  C     C_R   0.484655 0.035572 0.833898 -0.107000
C131  C     C_R   0.828168 0.378339 0.650449 -0.120430
C132  C     C_R   0.550105 0.514789 0.833877 -0.107185
C133  C     C_R   0.171693 0.629657 0.152199 -0.121643
C134  C     C_R   0.522820 0.959718 0.332861 -0.115038
C135  C     C_R   0.369828 0.539887 0.152288 -0.121676
C136  C     C_R   0.040719 0.563803 0.332919 -0.115015
C137  C     C_R   0.459104 0.829112 0.152265 -0.121633
C138  C     C_R   0.436469 0.476967 0.332881 -0.115052
C139  C     C_R   0.563771 0.040701 0.667083 -0.115003
C140  C     C_R   0.830264 0.460614 0.847680 -0.121801
C141  C     C_R   0.476975 0.436464 0.667120 -0.115047
C142  C     C_R   0.630010 0.170901 0.847732 -0.121649
C143  C     C_R   0.959786 0.522798 0.667147 -0.115034
C144  C     C_R   0.542123 0.370424 0.847818 -0.121737
C145  C     C_R   0.144466 0.617061 0.121222 0.237576
C146  C     C_R   0.542265 0.993224 0.363481 0.231680
C147  C     C_R   0.382613 0.525216 0.121324 0.237851
C148  C     C_R   0.007281 0.549853 0.363547 0.231750
C149  C     C_R   0.473789 0.856408 0.121289 0.238337
C150  C     C_R   0.450455 0.457455 0.363503 0.231734
C151  C     C_R   0.549809 0.007259 0.636456 0.231739
C152  C     C_R   0.857668 0.475180 0.878649 0.237778
C153  C     C_R   0.457467 0.450456 0.636498 0.231737
C154  C     C_R   0.617387 0.143650 0.878714 0.238387
C155  C     C_R   0.993310 0.542245 0.636528 0.231674
C156  C     C_R   0.527579 0.383092 0.878797 0.237279
C157  C     C_R   0.059118 0.538965 0.112588 0.206009
C158  C     C_R   0.479765 0.940554 0.387557 0.205435
C159  C     C_R   0.461776 0.519877 0.112684 0.206504
C160  C     C_R   0.059669 0.539441 0.387590 0.205644
C161  C     C_R   0.480066 0.941328 0.112632 0.206311
C162  C     C_R   0.460616 0.520099 0.387568 0.205595
C163  C     C_R   0.539418 0.059664 0.612412 0.205631
C164  C     C_R   0.941874 0.479922 0.887325 0.206667
C165  C     C_R   0.520121 0.460645 0.612433 0.205603
C166  C     C_R   0.538704 0.058768 0.887380 0.206344
C167  C     C_R   0.940612 0.479786 0.612448 0.205402
C168  C     C_R   0.520363 0.461208 0.887424 0.205978
H1    H     H_    0.764896 0.455279 0.841238 0.153913
H2    H     H_    0.572519 0.002060 0.685653 0.173390
H3    H     H_    0.549233 0.311385 0.841404 0.152004
H4    H     H_    0.998669 0.569915 0.685747 0.173325
H5    H     H_    0.689427 0.236740 0.841280 0.153136
H6    H     H_    0.429695 0.427872 0.685706 0.173353
H7    H     H_    0.569972 0.998579 0.314264 0.173305
H8    H     H_    0.237858 0.688672 0.158617 0.151933
H9    H     H_    0.427904 0.429696 0.314294 0.173363
H10   H     H_    0.452624 0.763244 0.158708 0.152996
H11   H     H_    0.002095 0.572573 0.314349 0.173390
H12   H     H_    0.310034 0.545669 0.158710 0.153516
H13   H     H_    0.983301 0.299026 0.972622 0.221022
H14   H     H_    0.313681 0.001897 0.528003 0.220561
H15   H     H_    0.697575 0.687522 0.972228 0.220283
H16   H     H_    0.996286 0.310747 0.527902 0.220719
H17   H     H_    0.314182 0.013211 0.972397 0.223094
H18   H     H_    0.688555 0.685893 0.527948 0.219868
H19   H     H_    0.310791 0.996351 0.472098 0.220771
H20   H     H_    0.009256 0.312130 0.027881 0.220345
H21   H     H_    0.685833 0.688610 0.472042 0.219888
H22   H     H_    0.301209 0.987224 0.027655 0.223092
H23   H     H_    0.001811 0.313644 0.471996 0.220509
H24   H     H_    0.684684 0.700464 0.027492 0.220883
N13   N     N_R   0.995516 0.730699 0.967681 0.149263
O51   O     O_R   0.916651 0.716594 0.956858 -0.199164
O52   O     O_R   0.066746 0.814127 0.967691 -0.207904
N14   N     N_R   0.743908 0.011254 0.531882 0.149507
O53   O     O_R   0.732668 0.942214 0.549040 -0.192181
O54   O     O_R   0.827172 0.078897 0.526216 -0.209984
N15   N     N_R   0.276003 0.257787 0.968459 0.148218
O55   O     O_R   0.294758 0.196458 0.957341 -0.204748
O56   O     O_R   0.190649 0.240104 0.968908 -0.201794
N16   N     N_R   0.992550 0.734467 0.532149 0.149099
O57   O     O_R   0.925967 0.751658 0.526461 -0.207410
O58   O     O_R   0.061819 0.791214 0.549431 -0.193208
N17   N     N_R   0.739160 0.011805 0.968110 0.148741
O59   O     O_R   0.802180 0.091381 0.957159 -0.203688
O60   O     O_R   0.754214 0.942390 0.968332 -0.205987
N18   N     N_R   0.266386 0.256863 0.532014 0.149324
O61   O     O_R   0.209062 0.268692 0.549223 -0.192381
O62   O     O_R   0.250049 0.173357 0.526349 -0.208313
N19   N     N_R   0.734319 0.992278 0.467868 0.149122
O63   O     O_R   0.751416 0.925629 0.473560 -0.207630
O64   O     O_R   0.791124 0.061528 0.450587 -0.193134
N20   N     N_R   0.019658 0.742928 0.031428 0.148024
O65   O     O_R   0.099834 0.803768 0.042625 -0.205189
O66   O     O_R   0.952491 0.761349 0.030873 -0.201562
N21   N     N_R   0.256933 0.266306 0.467996 0.149310
O67   O     O_R   0.268802 0.209012 0.450785 -0.192426
O68   O     O_R   0.173416 0.249916 0.473666 -0.208219
N22   N     N_R   0.727048 0.987540 0.031850 0.148624
O69   O     O_R   0.710136 0.907895 0.042844 -0.203816
O70   O     O_R   0.811676 0.056668 0.031569 -0.205914
N23   N     N_R   0.011486 0.744053 0.468133 0.149537
O71   O     O_R   0.942452 0.732888 0.450991 -0.192117
O72   O     O_R   0.079197 0.827290 0.473788 -0.210083
N24   N     N_R   0.263947 0.269921 0.032200 0.149137
O73   O     O_R   0.199540 0.284564 0.043025 -0.199751
O74   O     O_R   0.251097 0.186250 0.032140 -0.207421
N25   N     N_R   0.797559 0.481548 0.901180 0.120317
O75   O     O_R   0.783668 0.440618 0.927904 -0.239248
O76   O     O_R   0.748113 0.519103 0.893689 -0.272233
N26   N     N_R   0.544305 0.919745 0.630291 0.129440
O77   O     O_R   0.492317 0.866533 0.608033 -0.239920
O78   O     O_R   0.583850 0.888480 0.648872 -0.246902
N27   N     N_R   0.523452 0.317722 0.901374 0.120877
O79   O     O_R   0.564833 0.345880 0.927983 -0.238019
O80   O     O_R   0.487115 0.230710 0.894066 -0.273256
N28   N     N_R   0.081210 0.623843 0.630411 0.129509
O81   O     O_R   0.134213 0.624692 0.608144 -0.239707
O82   O     O_R   0.112991 0.694569 0.649044 -0.246913
N29   N     N_R   0.683274 0.204553 0.901246 0.121644
O83   O     O_R   0.655717 0.217559 0.928003 -0.238555
O84   O     O_R   0.770056 0.255603 0.893710 -0.273859
N30   N     N_R   0.375590 0.456224 0.630364 0.129491
O85   O     O_R   0.374469 0.508268 0.608105 -0.239799
O86   O     O_R   0.304839 0.416893 0.648976 -0.246892
N31   N     N_R   0.623911 0.081076 0.369604 0.129493
O87   O     O_R   0.624784 0.134127 0.391858 -0.239744
O88   O     O_R   0.694671 0.112768 0.350988 -0.246886
N32   N     N_R   0.205735 0.682458 0.098656 0.121066
O89   O     O_R   0.219029 0.654327 0.072053 -0.237556
O90   O     O_R   0.256390 0.769466 0.105973 -0.273185
N33   N     N_R   0.456243 0.375586 0.369638 0.129486
O91   O     O_R   0.508299 0.374480 0.391893 -0.239812
O92   O     O_R   0.416911 0.304823 0.351030 -0.246877
N34   N     N_R   0.478761 0.795520 0.098750 0.121605
O93   O     O_R   0.438132 0.782482 0.072004 -0.238263
O94   O     O_R   0.514616 0.744565 0.106263 -0.273653
N35   N     N_R   0.919786 0.544382 0.369713 0.129443
O95   O     O_R   0.866579 0.492422 0.391979 -0.239943
O96   O     O_R   0.888531 0.583925 0.351127 -0.246922
N36   N     N_R   0.316396 0.519329 0.098768 0.120721
O97   O     O_R   0.343691 0.560060 0.072024 -0.238999
O98   O     O_R   0.229443 0.482417 0.106244 -0.272982
H25   H     H_    0.994649 0.434621 0.183658 0.180831
H26   H     H_    0.315345 0.764134 0.344070 0.149309
H27   H     H_    0.567178 0.563158 0.183631 0.181299
H28   H     H_    0.235348 0.550138 0.344022 0.149805
H29   H     H_    0.438375 0.004675 0.183614 0.181078
H30   H     H_    0.449420 0.684926 0.344057 0.149552
H31   H     H_    0.550192 0.235388 0.655977 0.149783
H32   H     H_    0.003527 0.435787 0.816433 0.181369
H33   H     H_    0.684963 0.449502 0.655943 0.149571
H34   H     H_    0.433600 0.995412 0.816407 0.181092
H35   H     H_    0.764094 0.315426 0.655924 0.149256
H36   H     H_    0.560163 0.565451 0.816338 0.180836
N37   N     N_R   0.912932 0.396682 0.128004 0.127222
O99   O     O_R   0.876393 0.322575 0.145166 -0.246566
O100  O     O_R   0.863173 0.403335 0.106025 -0.241100
N38   N     N_R   0.334067 0.799655 0.403946 0.119274
O101  O     O_R   0.245514 0.755050 0.398403 -0.274539
O102  O     O_R   0.364014 0.786118 0.430144 -0.236208
N39   N     N_R   0.606167 0.520072 0.128042 0.126975
O103  O     O_R   0.680390 0.559350 0.145125 -0.246774
O104  O     O_R   0.600784 0.464029 0.106122 -0.241239
N40   N     N_R   0.200002 0.533489 0.403913 0.119139
O105  O     O_R   0.244323 0.489292 0.398308 -0.274528
O106  O     O_R   0.213792 0.576941 0.430129 -0.236380
N41   N     N_R   0.481844 0.086519 0.127981 0.127139
O107  O     O_R   0.443377 0.122253 0.145084 -0.246265
O108  O     O_R   0.538087 0.136732 0.106031 -0.241290
N42   N     N_R   0.466107 0.666128 0.403936 0.118991
O109  O     O_R   0.510403 0.754693 0.398394 -0.274408
O110  O     O_R   0.422527 0.636304 0.430125 -0.236233
N43   N     N_R   0.533523 0.200035 0.596087 0.119181
O111  O     O_R   0.489366 0.244394 0.601694 -0.274554
O112  O     O_R   0.576960 0.213805 0.569868 -0.236372
N44   N     N_R   0.085469 0.478472 0.872037 0.126881
O113  O     O_R   0.119725 0.438267 0.855089 -0.246443
O114  O     O_R   0.136534 0.534691 0.893858 -0.241306
N45   N     N_R   0.666179 0.466208 0.596065 0.118979
O115  O     O_R   0.754738 0.510540 0.601607 -0.274353
O116  O     O_R   0.636377 0.422621 0.569877 -0.236224
N46   N     N_R   0.395164 0.913662 0.872054 0.127114
O117  O     O_R   0.320898 0.878054 0.854982 -0.246194
O118  O     O_R   0.401158 0.863390 0.893989 -0.241347
N47   N     N_R   0.799657 0.334159 0.596050 0.119285
O119  O     O_R   0.754992 0.245596 0.601589 -0.274576
O120  O     O_R   0.786178 0.364149 0.569851 -0.236223
N48   N     N_R   0.516590 0.603548 0.872000 0.127234
O121  O     O_R   0.554181 0.677624 0.854823 -0.246598
O122  O     O_R   0.460265 0.596996 0.893994 -0.241099

loop_
_geom_bond_atom_site_label_1
_geom_bond_atom_site_label_2
_geom_bond_distance
_ccdc_geom_bond_type
C64   C76   1.413859 A    
C100  C107  1.388026 A    
C117  C165  1.416562 A    
C10   C24   1.463703 S    
N41   O107  1.301494 A    
N9    C57   1.379990 Am   
C52   O42   1.223124 D    
C45   N9    1.383135 Am   
N23   O71   1.301153 A    
O13   C1    1.286912 A    
N27   O80   1.300703 A    
C45   O35   1.221006 D    
N20   O65   1.301279 A    
C112  N40   1.437974 S    
C56   O46   1.222637 D    
C76   C83   1.417552 A    
C37   N1    1.381945 Am   
C153  N30   1.440098 S    
O21   C9    1.289959 A    
C28   C40   1.419254 A    
C141  C153  1.408887 A    
N46   O117  1.301506 A    
O10   Cr4   2.013332 S    
C20   C133  1.396603 A    
C31   C79   1.413870 A    
O12   Cr6   2.013182 S    
N12   C60   1.379817 Am   
C135  H12   1.084450 S    
C18   C141  1.396762 A    
N34   O93   1.301176 A    
C111  C123  1.406503 A    
C70   C106  1.404287 A    
C101  C106  1.388395 A    
C114  C126  1.393457 A    
C72   C84   1.414652 A    
O1    Cr1   2.013200 S    
N4    C52   1.379971 Am   
C24   C123  1.397307 A    
O3    Cr3   2.013308 S    
C50   O40   1.223128 D    
C21   C126  1.395576 A    
O7    C9    1.279207 A    
C150  N33   1.440089 S    
Cr6   O26   1.969534 S    
C36   C96   1.419560 A    
C66   C78   1.413837 A    
C96   N15   1.434654 S    
C33   C45   1.419264 A    
N36   O97   1.301201 A    
C95   N16   1.434672 S    
C53   C65   1.402563 A    
C138  H9    1.083183 S    
C35   C47   1.419210 A    
C26   C38   1.419211 A    
O4    C6    1.279254 A    
C88   N23   1.434616 S    
C5    C13   1.463731 S    
C48   O38   1.221434 D    
C69   C105  1.404010 A    
N10   C58   1.379837 Am   
O14   Cr2   1.903169 S    
C106  H17   1.083567 S    
O15   C3    1.286942 A    
N27   O79   1.301187 A    
C72   C108  1.404217 A    
C22   C137  1.396629 A    
C143  C155  1.408869 A    
N28   O81   1.301278 A    
C134  C146  1.408867 A    
O15   Cr3   1.903018 S    
C40   O30   1.220998 D    
C19   C122  1.395542 A    
O5    C1    1.281931 A    
C59   C71   1.401179 A    
N10   C166  1.444849 S    
C11   C19   1.462314 S    
N16   O58   1.301174 A    
C65   C77   1.414623 A    
C63   C75   1.414597 A    
N26   O77   1.301275 A    
C135  C147  1.394859 A    
C50   C62   1.401179 A    
C154  C166  1.416547 A    
C140  H1    1.084439 S    
N7    C163  1.446450 S    
N47   O119  1.300708 A    
C61   C97   1.404197 A    
C44   N8    1.381913 Am   
O23   Cr5   1.903159 S    
C97   H20   1.083557 S    
Cr2   O25   1.969346 S    
N21   O68   1.301071 A    
O17   C5    1.287035 A    
C53   O43   1.222662 D    
N38   O101  1.300695 A    
C94   N17   1.434529 S    
C20   C121  1.397221 A    
N19   O64   1.301175 A    
C33   C81   1.413832 A    
C38   O28   1.221019 D    
N3    C159  1.444875 S    
C144  H3    1.084490 S    
O21   Cr6   1.902997 S    
C40   N4    1.383108 Am   
N1    C157  1.444967 S    
N35   O95   1.301274 A    
C39   N3    1.381893 Am   
N33   O91   1.301275 A    
C33   C93   1.420314 A    
C117  C129  1.393455 A    
N48   O121  1.301499 A    
C89   C94   1.407177 A    
C122  H26   1.084640 S    
C28   C76   1.413875 A    
C142  C154  1.394722 A    
C156  N27   1.438013 S    
C155  N28   1.440101 S    
N39   O103  1.301502 A    
C31   C91   1.420342 A    
C42   N6    1.383131 Am   
C137  C149  1.394705 A    
C148  C160  1.422204 A    
N4    C160  1.446452 S    
C148  N35   1.440098 S    
C86   N19   1.434668 S    
N23   O72   1.301086 A    
C100  H23   1.083587 S    
N13   O51   1.301244 A    
C58   O48   1.222662 D    
C23   C136  1.396750 A    
C104  H13   1.083561 S    
N30   O85   1.301278 A    
O3    C5    1.282005 A    
N32   O90   1.300707 A    
C139  H2    1.083180 S    
N6    C162  1.446508 S    
C114  C162  1.416556 A    
C111  N39   1.440351 S    
N14   O53   1.301153 A    
C17   C142  1.396622 A    
C127  H31   1.084633 S    
C147  N36   1.438363 S    
C47   O37   1.221022 D    
C77   C82   1.417391 A    
C12   C20   1.463200 S    
C19   C134  1.396736 A    
C13   C128  1.397337 A    
C27   C75   1.414090 A    
C32   C80   1.414086 A    
N25   O76   1.300883 A    
C47   N11   1.383105 Am   
C56   C68   1.402491 A    
C114  N42   1.437880 S    
N42   O109  1.300754 A    
C21   C138  1.396760 A    
C89   N22   1.434563 S    
C39   O29   1.221393 D    
N29   O84   1.300733 A    
O22   C10   1.286954 A    
C87   N24   1.434450 S    
O8    Cr5   2.013367 S    
N35   O96   1.301470 A    
C91   N14   1.434625 S    
C42   O32   1.221008 D    
C113  N41   1.440333 S    
N22   O70   1.301003 A    
N5    C53   1.379846 Am   
O2    Cr2   2.013322 S    
C115  C127  1.393493 A    
N19   O63   1.301075 A    
N7    C55   1.379977 Am   
C43   N7    1.383113 Am   
C98   H19   1.083591 S    
C129  H33   1.084627 S    
C9    C23   1.462420 S    
O8    C10   1.282031 A    
C118  N46   1.440302 S    
C41   O31   1.221416 D    
C68   C80   1.414564 A    
C43   O33   1.220998 D    
C13   C140  1.396870 A    
C67   C79   1.413859 A    
C101  H22   1.083564 S    
C54   C66   1.401174 A    
C115  C163  1.416558 A    
O20   C8    1.286929 A    
C117  N45   1.437884 S    
C153  C165  1.422211 A    
C85   N20   1.434702 S    
O6    Cr3   2.013227 S    
C74   C79   1.417550 A    
C6    C14   1.462423 S    
C30   C42   1.419264 A    
C151  C163  1.422206 A    
C119  N47   1.437886 S    
N15   O55   1.301291 A    
C136  C148  1.408879 A    
N20   O66   1.301005 A    
C85   C92   1.407225 A    
C145  N32   1.438014 S    
C86   C91   1.409228 A    
C120  N48   1.440300 S    
O6    C2    1.279239 A    
C31   C43   1.419257 A    
C131  H35   1.084637 S    
C71   C83   1.413838 A    
N17   O60   1.301004 A    
N46   O118  1.301308 A    
C147  C159  1.416486 A    
O17   Cr2   1.903131 S    
C58   C70   1.402558 A    
C111  C159  1.420679 A    
C62   C74   1.413839 A    
C52   C64   1.401177 A    
C136  H11   1.083181 S    
C145  C157  1.416306 A    
O19   Cr4   1.903135 S    
C109  C157  1.420846 A    
C35   C95   1.420264 A    
N12   C168  1.444969 S    
N18   O61   1.301169 A    
N34   O94   1.300742 A    
N40   O105  1.300743 A    
C66   C102  1.404011 A    
C143  H4    1.083182 S    
N11   C167  1.446448 S    
C3    C17   1.463369 S    
N45   O116  1.301149 A    
C90   N21   1.434641 S    
C36   C48   1.416476 A    
N6    C54   1.379992 Am   
C46   N10   1.381882 Am   
O24   Cr6   1.903104 S    
O19   C7    1.289948 A    
C24   C135  1.396829 A    
C46   O36   1.221417 D    
C133  H8    1.084494 S    
N36   O98   1.300842 A    
C48   N12   1.381939 Am   
C38   N2    1.383114 Am   
C34   C82   1.413985 A    
C144  C156  1.394540 A    
N24   O73   1.301255 A    
C110  C122  1.393461 A    
C61   C73   1.414620 A    
C126  H30   1.084627 S    
C34   C94   1.419629 A    
C8    C22   1.463376 S    
C29   C77   1.413963 A    
N44   O113  1.301540 A    
C150  C162  1.422212 A    
C26   C86   1.420271 A    
C90   C93   1.409253 A    
C68   C104  1.404330 A    
C88   C95   1.409224 A    
N28   O82   1.301462 A    
N43   O111  1.300737 A    
C30   C90   1.420312 A    
C67   C103  1.404036 A    
N37   O100  1.301315 A    
C113  C125  1.406552 A    
C1    C15   1.463264 S    
C2    C16   1.462294 S    
O16   Cr1   1.903023 S    
N31   O87   1.301277 A    
N41   O108  1.301317 A    
C123  H27   1.083244 S    
O5    Cr2   2.013374 S    
C49   O39   1.222659 D    
C51   O41   1.222640 D    
C18   C129  1.395579 A    
N26   O78   1.301467 A    
C34   C46   1.416546 A    
C55   O45   1.223124 D    
C137  H10   1.084483 S    
C16   C131  1.395531 A    
C29   C41   1.416534 A    
C116  C128  1.406415 A    
C25   C85   1.419523 A    
C112  C160  1.416558 A    
C138  C150  1.408885 A    
C119  C131  1.393456 A    
Cr1   O25   1.969453 S    
N11   C59   1.379996 Am   
O18   Cr3   1.903108 S    
C28   C88   1.420352 A    
N21   O67   1.301166 A    
C36   C84   1.413833 A    
C29   C89   1.419609 A    
C78   C81   1.417555 A    
C62   C98   1.404005 A    
C16   C143  1.396731 A    
C105  H18   1.083587 S    
C32   C92   1.419755 A    
N38   O102  1.301147 A    
O24   C12   1.286852 A    
C124  H28   1.084634 S    
C133  C145  1.394482 A    
N3    C51   1.379794 Am   
C151  N26   1.440092 S    
C75   C84   1.417449 A    
C132  H36   1.083250 S    
N8    C56   1.379826 Am   
O23   C11   1.290005 A    
N9    C165  1.446506 S    
Cr5   O26   1.969462 S    
C99   H24   1.083563 S    
N48   O122  1.301309 A    
C128  H32   1.083284 S    
C142  H5    1.084492 S    
C115  N43   1.437970 S    
N39   O104  1.301306 A    
C125  H29   1.083237 S    
C25   C73   1.413795 A    
C23   C124  1.395596 A    
C156  C168  1.416271 A    
C146  N31   1.440085 S    
C54   O44   1.223129 D    
N15   O56   1.301006 A    
C55   C67   1.401185 A    
C134  H7    1.083181 S    
N30   O86   1.301465 A    
C102  H21   1.083586 S    
C118  C166  1.420774 A    
C37   O27   1.221452 D    
N2    C158  1.446466 S    
C130  H34   1.083243 S    
O4    Cr1   2.013332 S    
N14   O54   1.301085 A    
C121  H25   1.083227 S    
O9    C11   1.279278 A    
C120  C132  1.406677 A    
N16   O57   1.301073 A    
C118  C130  1.406525 A    
O10   C12   1.282013 A    
C102  C105  1.388018 A    
O16   C4    1.289921 A    
N25   O75   1.301199 A    
C71   C107  1.404004 A    
C108  H15   1.083570 S    
N42   O110  1.301149 A    
O20   Cr5   1.903048 S    
C14   C127  1.395596 A    
N29   O83   1.301184 A    
C70   C82   1.414620 A    
C41   N5    1.381872 Am   
C103  H14   1.083593 S    
O9    Cr6   2.013300 S    
C57   O47   1.223132 D    
C59   O49   1.223129 D    
C26   C74   1.413823 A    
C73   C80   1.417407 A    
C149  C161  1.416538 A    
C4    C18   1.462409 S    
N5    C161  1.444858 S    
C113  C161  1.420786 A    
N33   O92   1.301468 A    
O7    Cr4   2.013327 S    
O18   C6    1.290025 A    
C44   O34   1.221403 D    
O13   Cr1   1.903143 S    
C120  C168  1.420815 A    
N1    C49   1.379856 Am   
C97   C104  1.388407 A    
O11   C7    1.279220 A    
C98   C103  1.388030 A    
C22   C125  1.397198 A    
C15   C144  1.396605 A    
O12   C8    1.282105 A    
N43   O112  1.301147 A    
C69   C81   1.413839 A    
C17   C130  1.397193 A    
N47   O120  1.301136 A    
Cr3   O25   1.969539 S    
C14   C139  1.396745 A    
N31   O88   1.301464 A    
C109  C121  1.406668 A    
C152  C164  1.416458 A    
C35   C83   1.413817 A    
N8    C164  1.444912 S    
C116  C164  1.420590 A    
C51   C63   1.402518 A    
C112  C124  1.393483 A    
N13   O52   1.301016 A    
C27   C87   1.419722 A    
C49   C61   1.402660 A    
C149  N34   1.438395 S    
O14   C2    1.289973 A    
N32   O89   1.301189 A    
C93   N18   1.434637 S    
C140  C152  1.394870 A    
Cr4   O26   1.969341 S    
C152  N25   1.438307 S    
O22   Cr4   1.903148 S    
N17   O59   1.301267 A    
C32   C44   1.416695 A    
C7    C21   1.462399 S    
C155  C167  1.422219 A    
C116  N44   1.440205 S    
N18   O62   1.301070 A    
N40   O106  1.301146 A    
C30   C78   1.413835 A    
C92   N13   1.434430 S    
C15   C132  1.397259 A    
C65   C101  1.404283 A    
N45   O115  1.300760 A    
N2    C50   1.380005 Am   
C64   C100  1.404033 A    
C141  H6    1.083180 S    
C154  N29   1.438417 S    
C87   C96   1.407215 A    
C139  C151  1.408874 A    
N22   O69   1.301271 A    
N24   O74   1.301015 A    
C107  H16   1.083589 S    
C110  N38   1.437881 S    
O11   Cr5   2.013254 S    
C57   C69   1.401169 A    
C146  C158  1.422214 A    
N44   O114  1.301297 A    
C110  C158  1.416535 A    
C63   C99   1.404308 A    
C60   O50   1.222658 D    
C27   C39   1.416716 A    
O1    C3    1.282066 A    
O2    C4    1.279198 A    
C25   C37   1.416400 A    
N37   O99   1.301495 A    
C119  C167  1.416539 A    
C109  N37   1.440295 S    
C99   C108  1.388397 A    
C60   C72   1.402659 A    
