data_mof_unit_22009.cif
_audit_creation_date              2012-12-10T19:09:32-0500
_audit_creation_method            fapswitch 2.2
_symmetry_space_group_name_H-M    P1
_symmetry_Int_Tables_number       1
_space_group_crystal_system       triclinic
_cell_length_a                    15.001011
_cell_length_b                    15.084418
_cell_length_c                    9.692048
_cell_angle_alpha                 89.942661
_cell_angle_beta                  89.908291
_cell_angle_gamma                 90.039342
_cell_volume                      2193.12692967

loop_
_atom_site_label
_atom_site_type_symbol
_atom_type_description
_atom_site_fract_x
_atom_site_fract_y
_atom_site_fract_z
_atom_type_partial_charge
C1    C     C_R   0.120999 0.378714 0.499714 0.869442
C2    C     C_R   0.878412 0.620902 0.499765 0.916979
C3    C     C_R   0.376701 0.880873 0.500014 0.911649
C4    C     C_R   0.378409 0.120899 0.499765 0.917032
C5    C     C_3   0.851893 0.220264 0.514088 -0.092567
C6    C     C_3   0.755087 0.316085 0.359893 -0.080612
C7    C     C_3   0.848025 0.775598 0.565346 -0.093089
C8    C     C_3   0.728417 0.657851 0.586944 -0.097113
C9    C     C_3   0.351891 0.720267 0.514028 -0.092574
C10   C     C_3   0.255057 0.816119 0.359923 -0.080559
C11   C     C_3   0.348035 0.275608 0.565280 -0.093078
C12   C     C_R   0.119011 0.623158 0.499799 0.875761
C13   C     C_3   0.228433 0.157867 0.587010 -0.097096
C14   C     C_3   0.278734 0.648223 0.515831 -0.461516
C15   C     C_3   0.182802 0.744093 0.360838 -0.453049
C16   C     C_3   0.275191 0.347962 0.564548 -0.458001
C17   C     C_3   0.155374 0.229740 0.583114 -0.450481
C18   C     C_3   0.778735 0.148220 0.515887 -0.461535
C19   C     C_3   0.682831 0.244061 0.360809 -0.453073
C20   C     C_3   0.775183 0.847953 0.564606 -0.458010
C21   C     C_3   0.655361 0.729727 0.583053 -0.450466
C22   C     C_3   0.741276 0.329378 0.620848 -0.417114
C23   C     C_R   0.621003 0.878717 0.499714 0.869441
C24   C     C_3   0.779410 0.708502 0.348360 -0.405469
C25   C     C_3   0.241296 0.829361 0.620891 -0.417117
C26   C     C_3   0.279368 0.208461 0.348371 -0.405596
C27   C     C_3   0.807504 0.313576 0.499736 0.168782
C28   C     C_3   0.810108 0.689049 0.498950 0.170247
C29   C     C_3   0.307500 0.813582 0.499740 0.168734
C30   C     C_3   0.310103 0.189045 0.498953 0.170258
C31   C     C_3   0.186195 0.692062 0.499115 0.166745
C32   C     C_3   0.188907 0.310540 0.499049 0.159726
C33   C     C_3   0.686199 0.192056 0.499111 0.166772
C34   C     C_R   0.619015 0.123154 0.499798 0.875767
C35   C     C_3   0.688912 0.810544 0.499046 0.159735
C36   C     C_3   0.169476 0.757453 0.620070 -0.425386
C37   C     C_3   0.208942 0.280655 0.348682 -0.419896
C38   C     C_3   0.669458 0.257468 0.620030 -0.425401
C39   C     C_3   0.708978 0.780690 0.348674 -0.420009
C40   C     C_3   0.036631 0.416696 0.081275 -0.238549
C41   C     C_3   0.036580 0.416669 0.918761 -0.232526
C42   C     C_3   0.052260 0.574376 0.918535 -0.234485
C43   C     C_3   0.052244 0.574382 0.081001 -0.233437
C44   C     C_3   0.535186 0.916059 0.081282 -0.238740
C45   C     C_3   0.907166 0.508816 0.081550 -0.232415
C46   C     C_3   0.535140 0.916035 0.918763 -0.232604
C47   C     C_3   0.553530 0.073452 0.918536 -0.234412
C48   C     C_3   0.553519 0.073455 0.080998 -0.233453
C49   C     C_3   0.907169 0.508865 0.918842 -0.237973
C50   C     C_3   0.407334 0.010367 0.081544 -0.232573
C51   C     C_3   0.407336 0.010409 0.918840 -0.237957
C52   C     C_R   0.876703 0.380870 0.500013 0.911640
H1    H     H_    0.894779 0.209130 0.421606 0.119145
H2    H     H_    0.195080 0.698777 0.272149 0.157413
H3    H     H_    0.262027 0.369530 0.672533 0.154064
H4    H     H_    0.138837 0.249685 0.690754 0.163366
H5    H     H_    0.790783 0.100625 0.430074 0.138959
H6    H     H_    0.695120 0.198727 0.272143 0.157473
H7    H     H_    0.761997 0.869503 0.672593 0.154128
H8    H     H_    0.638803 0.749648 0.690695 0.163342
H9    H     H_    0.280679 0.609142 0.613340 0.165377
H10   H     H_    0.115120 0.772835 0.345990 0.172739
H11   H     H_    0.297457 0.407835 0.506620 0.154674
H12   H     H_    0.802383 0.300163 0.274445 0.136281
H13   H     H_    0.092867 0.203964 0.536209 0.166142
H14   H     H_    0.780662 0.109155 0.613413 0.165361
H15   H     H_    0.615153 0.272804 0.345924 0.172740
H16   H     H_    0.797463 0.907836 0.506713 0.154671
H17   H     H_    0.592864 0.703963 0.536103 0.166154
H18   H     H_    0.775944 0.328580 0.722117 0.171877
H19   H     H_    0.709823 0.395701 0.612791 0.172862
H20   H     H_    0.836353 0.729729 0.282510 0.168126
H21   H     H_    0.752095 0.647831 0.298866 0.170523
H22   H     H_    0.275983 0.828547 0.722144 0.171987
H23   H     H_    0.865347 0.761148 0.674958 0.135847
H24   H     H_    0.209842 0.895687 0.612876 0.172855
H25   H     H_    0.336295 0.229673 0.282475 0.168072
H26   H     H_    0.252039 0.147779 0.298928 0.170554
H27   H     H_    0.170981 0.722013 0.720879 0.173253
H28   H     H_    0.102676 0.788575 0.609795 0.169148
H29   H     H_    0.233371 0.337780 0.286199 0.168074
H30   H     H_    0.147266 0.254966 0.298771 0.165243
H31   H     H_    0.670947 0.222044 0.720854 0.173268
H32   H     H_    0.602659 0.288586 0.609714 0.169140
H33   H     H_    0.733411 0.837830 0.286225 0.168134
H34   H     H_    0.750447 0.650252 0.696181 0.137659
H35   H     H_    0.647314 0.755003 0.298727 0.165226
H36   H     H_    0.998096 0.358825 0.120404 0.134952
H37   H     H_    0.997933 0.358832 0.880108 0.146752
H38   H     H_    0.025662 0.638577 0.879807 0.137719
H39   H     H_    0.025649 0.638579 0.119688 0.138565
H40   H     H_    0.495653 0.858858 0.120408 0.134986
H41   H     H_    0.495508 0.858866 0.880103 0.146859
H42   H     H_    0.528012 0.138094 0.879842 0.137767
H43   H     H_    0.528014 0.138094 0.119654 0.138664
H44   H     H_    0.106143 0.407891 0.118485 0.141624
H45   H     H_    0.394759 0.709149 0.421521 0.119142
H46   H     H_    0.106056 0.407743 0.881066 0.140688
H47   H     H_    0.122127 0.569692 0.880588 0.138601
H48   H     H_    0.122099 0.569668 0.118616 0.137973
H49   H     H_    0.604529 0.906061 0.118496 0.141760
H50   H     H_    0.604450 0.905927 0.881081 0.140859
H51   H     H_    0.623294 0.067598 0.880533 0.138509
H52   H     H_    0.623273 0.067564 0.118667 0.137854
H53   H     H_    0.864587 0.453698 0.120107 0.150504
H54   H     H_    0.864523 0.453827 0.880521 0.139973
H55   H     H_    0.876213 0.571243 0.880918 0.139425
H56   H     H_    0.302336 0.800217 0.274443 0.136372
H57   H     H_    0.876140 0.571129 0.119504 0.142438
H58   H     H_    0.363811 0.955997 0.120158 0.150598
H59   H     H_    0.363756 0.956110 0.880479 0.139872
H60   H     H_    0.377464 0.073315 0.880950 0.139460
H61   H     H_    0.377400 0.073217 0.119441 0.142339
H62   H     H_    0.944617 0.154325 0.631286 0.165324
H63   H     H_    0.870728 0.211411 0.726045 0.189684
H64   H     H_    0.696511 0.405828 0.228777 0.162338
H65   H     H_    0.660324 0.414341 0.392062 0.190836
H66   H     H_    0.957434 0.857074 0.554941 0.166931
H67   H     H_    0.365387 0.261182 0.674887 0.135810
H68   H     H_    0.914567 0.833333 0.399836 0.187494
H69   H     H_    0.647597 0.549538 0.614206 0.164926
H70   H     H_    0.659602 0.578594 0.448271 0.190866
H71   H     H_    0.444635 0.654303 0.631156 0.165350
H72   H     H_    0.370768 0.711379 0.725973 0.189628
H73   H     H_    0.196454 0.905887 0.228880 0.162331
H74   H     H_    0.160296 0.914363 0.392183 0.190822
H75   H     H_    0.457439 0.357086 0.554760 0.166928
H76   H     H_    0.414531 0.333306 0.399696 0.187520
H77   H     H_    0.147628 0.049554 0.614390 0.164929
H78   H     H_    0.250487 0.150297 0.696240 0.137651
H79   H     H_    0.159582 0.078574 0.448430 0.190861
H80   H     H_    0.290766 0.600642 0.429994 0.138980
N1    N     N_3   0.998760 0.500000 0.138610 -0.027480
N2    N     N_3   0.217173 0.904149 0.331847 -0.462070
N3    N     N_3   0.429742 0.305947 0.495919 -0.495732
N4    N     N_3   0.194075 0.071619 0.541404 -0.482674
N5    N     N_3   0.998760 0.500000 0.861390 -0.027302
N6    N     N_3   0.498760 0.000000 0.138610 -0.027414
N7    N     N_3   0.498760 0.000000 0.861390 -0.027328
N8    N     N_3   0.909418 0.214075 0.636359 -0.472698
N9    N     N_3   0.717210 0.404111 0.331754 -0.462055
N10   N     N_3   0.929752 0.805949 0.496054 -0.495768
N11   N     N_3   0.694067 0.571616 0.541265 -0.482684
N12   N     N_3   0.409441 0.714055 0.636269 -0.472774
O1    O     O_R   0.092530 0.407440 0.616040 -0.630986
O2    O     O_R   0.907330 0.407420 0.383960 -0.634434
O3    O     O_R   0.907330 0.592580 0.383960 -0.631385
O4    O     O_R   0.907330 0.592580 0.616040 -0.646238
O5    O     O_R   0.407330 0.907420 0.616040 -0.620326
O6    O     O_R   0.407330 0.907420 0.383960 -0.634408
O7    O     O_R   0.407330 0.092580 0.383960 -0.631420
O8    O     O_R   0.407330 0.092580 0.616040 -0.646284
O9    O     O_R   0.092530 0.407440 0.383960 -0.641275
O10   O     O_R   0.092530 0.592560 0.383960 -0.637395
O11   O     O_R   0.092530 0.592560 0.616040 -0.638763
O12   O     O_R   0.592530 0.907440 0.616040 -0.630971
O13   O     O_R   0.592530 0.907440 0.383960 -0.641260
O14   O     O_R   0.592530 0.092560 0.383960 -0.637409
O15   O     O_R   0.592530 0.092560 0.616040 -0.638775
O16   O     O_R   0.907330 0.407420 0.616040 -0.620314
Zn1   Zn    Zn3+2 0.999890 0.500000 0.654960 0.903500
Zn2   Zn    Zn3+2 0.999890 0.500000 0.345040 0.901258
Zn3   Zn    Zn3+2 0.499890 0.000000 0.654960 0.903474
Zn4   Zn    Zn3+2 0.499890 0.000000 0.345040 0.901262

loop_
_geom_bond_atom_site_label_1
_geom_bond_atom_site_label_2
_ccdc_geom_bond_type
H73   N2    S    
C52   O16   A    
C41   H37   S    
C48   N6    S    
C51   H60   S    
C48   H43   S    
C49   N5    S    
C38   H31   S    
H69   N11   S    
C1    O1    A    
C39   H35   S    
C14   C31   S    
C11   H67   S    
N1    Zn2   S    
C49   H55   S    
C14   H80   S    
O11   Zn1   S    
C6    C19   S    
C46   H50   S    
C26   H26   S    
O4    Zn1   S    
C5    H1    S    
H75   N3    S    
C10   C15   S    
C45   H57   S    
C24   H21   S    
C2    O4    A    
C22   C38   S    
C50   H58   S    
C24   C39   S    
C52   O2    A    
C43   N1    S    
C25   H22   S    
C6    H12   S    
C3    C29   S    
C5    C27   S    
C20   C35   S    
C10   H56   S    
C15   H10   S    
C47   C48   S    
C11   C30   S    
C45   H53   S    
H71   N12   S    
C9    H45   S    
C13   H78   S    
C19   H15   S    
O5    Zn3   S    
C16   H11   S    
H62   N8    S    
C41   N5    S    
C44   H40   S    
O14   Zn4   S    
C34   O15   A    
C23   O12   A    
C42   N5    S    
C48   H52   S    
C37   H29   S    
H70   N11   S    
C40   H44   S    
C6    N9    S    
C9    N12   S    
C44   C46   S    
C8    C21   S    
C19   H6    S    
C25   C29   S    
H65   N9    S    
C4    O8    A    
C3    O5    A    
C26   H25   S    
C47   H51   S    
C15   H2    S    
C24   C28   S    
C13   C30   S    
H68   N10   S    
C43   H48   S    
O12   Zn3   S    
C21   H8    S    
H79   N4    S    
C19   C33   S    
H76   N3    S    
C7    H23   S    
C5    C18   S    
C2    O3    A    
C14   H9    S    
C36   H27   S    
C1    C32   S    
C43   H39   S    
C7    C28   S    
C21   H17   S    
C42   H38   S    
C35   C39   S    
C9    C14   S    
C11   N3    S    
H77   N4    S    
O2    Zn2   S    
C11   C16   S    
C18   H5    S    
C6    C27   S    
C17   H4    S    
C45   C49   S    
C50   C51   S    
O7    Zn4   S    
C32   C37   S    
C20   H7    S    
C1    O9    A    
O13   Zn4   S    
C51   H59   S    
C34   O14   A    
C40   C41   S    
C26   C30   S    
C23   C35   S    
C22   C27   S    
C12   C31   S    
C36   H28   S    
C8    C28   S    
C13   N4    S    
O15   Zn3   S    
C37   H30   S    
C16   C32   S    
C42   C43   S    
C39   H33   S    
C12   O11   A    
O10   Zn2   S    
C22   H19   S    
C27   C52   S    
C24   H20   S    
C5    N8    S    
C4    O7    A    
C3    O6    A    
C44   N6    S    
C38   H32   S    
C31   C36   S    
C17   H13   S    
C20   H16   S    
C10   N2    S    
C12   O10   A    
H66   N10   S    
O3    Zn2   S    
N6    Zn4   S    
C44   H49   S    
C50   N6    S    
C26   C37   S    
C15   C31   S    
C49   H54   S    
C21   C35   S    
C9    C29   S    
C18   H14   S    
O6    Zn4   S    
C40   N1    S    
C45   N1    S    
C33   C38   S    
C13   C17   S    
O9    Zn2   S    
C50   H61   S    
O16   Zn1   S    
C25   H24   S    
N7    Zn3   S    
C16   H3    S    
C42   H47   S    
N5    Zn1   S    
C10   C29   S    
C40   H36   S    
C46   H41   S    
O1    Zn1   S    
C23   O13   A    
C47   H42   S    
C33   C34   S    
C8    N11   S    
C8    H34   S    
C18   C33   S    
O8    Zn3   S    
C25   C36   S    
H64   N9    S    
H63   N8    S    
H74   N2    S    
C7    C20   S    
C47   N7    S    
C17   C32   S    
C41   H46   S    
H72   N12   S    
C2    C28   S    
C22   H18   S    
C7    N10   S    
C4    C30   S    
C46   N7    S    
C51   N7    S    
