data_mof_unit_20799.cif
_audit_creation_date              2012-12-11T15:31:39-0500
_audit_creation_method            fapswitch 2.2
_symmetry_space_group_name_H-M    P1
_symmetry_Int_Tables_number       1
_space_group_crystal_system       triclinic
_cell_length_a                    13.570296
_cell_length_b                    13.580528
_cell_length_c                    27.678267
_cell_angle_alpha                 90.503365
_cell_angle_beta                  90.002472
_cell_angle_gamma                 119.862189
_cell_volume                      4423.38282786

loop_
_atom_site_label
_atom_site_type_symbol
_atom_type_description
_atom_site_fract_x
_atom_site_fract_y
_atom_site_fract_z
_atom_type_partial_charge
C1    C     C_R   0.619604 0.898389 0.431306 0.545849
C2    C     C_R   0.096679 0.856050 0.269740 -0.106529
C3    C     C_R   0.079119 0.849145 0.219672 -0.104490
C4    C     C_R   0.599756 0.218548 0.431317 0.545454
C5    C     C_R   0.239842 0.819828 0.208125 -0.104583
C6    C     C_R   0.257297 0.826610 0.258137 -0.105150
C7    C     C_R   0.185543 0.844220 0.289113 0.038647
C8    C     C_R   0.150645 0.831007 0.188728 0.040702
C9    C     C_1   0.126312 0.814899 0.137648 -0.055054
C10   C     C_1   0.206473 0.852920 0.340471 -0.057795
C11   C     C_1   0.097583 0.794951 0.095797 -0.011303
C12   C     C_R   0.596011 0.356390 0.216617 0.285774
C13   C     C_1   0.635142 0.865943 0.383722 -0.013939
C14   C     C_R   0.593279 0.865666 0.258606 -0.110936
C15   C     C_R   0.601082 0.854205 0.208700 -0.114380
C16   C     C_R   0.279631 0.878862 0.430502 0.546160
C17   C     C_R   0.720413 0.770928 0.222689 -0.124576
C18   C     C_R   0.712480 0.782241 0.272597 -0.119953
C19   C     C_R   0.649120 0.829965 0.290657 0.032657
C20   C     C_R   0.664920 0.807018 0.190639 0.029684
C21   C     C_1   0.676687 0.797315 0.139410 -0.067528
C22   C     C_1   0.643266 0.846310 0.341803 -0.061355
C23   C     C_R   0.587741 0.340249 0.266943 -0.097490
C24   C     C_1   0.693275 0.787090 0.097358 -0.014757
C25   C     C_R   0.641280 0.282368 0.614466 0.024687
C26   C     C_R   0.726024 0.272895 0.639512 -0.128633
C27   C     C_R   0.740091 0.294601 0.688588 -0.126213
C28   C     C_R   0.620401 0.901045 0.568961 0.546187
C29   C     C_R   0.672497 0.330004 0.712943 0.036048
C30   C     C_R   0.597064 0.352270 0.686881 -0.114766
C31   C     C_R   0.580786 0.327630 0.637768 -0.129281
C32   C     C_R   0.578866 0.306428 0.792564 -0.112601
C33   C     C_R   0.586300 0.325572 0.842138 -0.120166
C34   C     C_R   0.665715 0.319811 0.291619 -0.008316
C35   C     C_R   0.789704 0.397604 0.838651 -0.125208
C36   C     C_R   0.782748 0.381539 0.789184 -0.121468
C37   C     C_R   0.677956 0.339290 0.765596 0.039532
C38   C     C_R   0.692631 0.375799 0.865023 0.024945
C39   C     C_R   0.227121 0.866227 0.615641 0.024983
C40   C     C_R   0.601861 0.223559 0.568269 0.540985
C41   C     C_R   0.254352 0.962492 0.644231 -0.126669
C42   C     C_R   0.229737 0.951209 0.693154 -0.124252
C43   C     C_R   0.175042 0.843318 0.713996 0.035545
C44   C     C_R   0.139435 0.746446 0.684575 -0.120589
C45   C     C_R   0.680047 0.346200 0.190950 0.047085
C46   C     C_R   0.166579 0.757870 0.635727 -0.130280
C47   C     C_R   0.169639 0.748616 0.791303 -0.122917
C48   C     C_R   0.141601 0.729579 0.839900 -0.128814
C49   C     C_R   0.102425 0.885421 0.840778 -0.136902
C50   C     C_R   0.127947 0.902794 0.791951 -0.126095
C51   C     C_R   0.157929 0.831929 0.766470 0.038759
C52   C     C_R   0.280130 0.881949 0.568336 0.541677
C53   C     C_R   0.102897 0.794650 0.864384 0.024059
C54   C     C_R   0.639403 0.864271 0.615728 -0.013176
C55   C     C_R   0.570239 0.751792 0.631005 -0.123630
C56   C     C_1   0.691372 0.365985 0.139638 -0.012286
C57   C     C_R   0.574377 0.721697 0.679499 0.286328
C58   C     C_R   0.650811 0.807454 0.711270 0.048780
C59   C     C_R   0.721094 0.918519 0.695190 -0.178686
C60   C     C_R   0.716259 0.946467 0.647876 -0.142950
C61   C     C_R   0.771188 0.821684 0.779953 -0.130317
C62   C     C_R   0.787711 0.817438 0.828813 -0.119985
C63   C     C_R   0.584688 0.729530 0.842544 -0.138361
C64   C     C_1   0.632005 0.266567 0.384086 -0.010795
C65   C     C_R   0.568148 0.736762 0.793091 -0.078379
C66   C     C_R   0.662046 0.784298 0.761860 0.070116
C67   C     C_1   0.650992 0.295341 0.342467 -0.054136
C68   C     C_R   0.695310 0.773198 0.860576 0.032444
C69   C     C_R   0.049149 0.761084 0.048278 0.546416
C70   C     C_R   0.714274 0.435916 0.049762 0.543205
C71   C     C_R   0.723575 0.770764 0.049545 0.545962
C72   C     C_R   0.044896 0.756186 0.910734 0.540329
C73   C     C_R   0.708326 0.428901 0.912395 0.542801
C74   C     C_R   0.719412 0.763969 0.911025 0.539404
C75   C     C_R   0.750921 0.312696 0.265949 -0.123915
C76   C     C_R   0.758115 0.325931 0.215777 -0.160905
C77   C     C_3   0.519187 0.473533 0.206449 0.007084
C78   C     C_1   0.700993 0.391283 0.097564 0.000940
C79   C     C_3   0.399766 0.445880 0.221522 -0.258425
C80   C     C_3   0.395985 0.552955 0.235347 -0.476879
C81   C     C_3   0.409099 0.539502 0.673865 -0.000071
C82   C     C_3   0.321575 0.578275 0.682558 -0.274540
C83   C     C_3   0.206195 0.493185 0.661007 -0.481790
C84   C     C_1   0.233061 0.862593 0.382593 -0.013092
Cr1   Cr    Cr6+3 0.417720 0.831920 0.499820 1.019025
Cr2   Cr    Cr6+3 0.668190 0.085770 0.500360 1.020575
Cr3   Cr    Cr6+3 0.414060 0.082260 0.499840 1.020782
Cr4   Cr    Cr6+3 0.908000 0.821090 0.979770 1.023478
Cr5   Cr    Cr6+3 0.912420 0.571130 0.979880 1.019683
Cr6   Cr    Cr6+3 0.657970 0.566940 0.980940 1.032215
H1    H     H_    0.810628 0.295178 0.284605 0.127874
H2    H     H_    0.873109 0.436715 0.855353 0.134851
H3    H     H_    0.547293 0.383969 0.704797 0.128028
H4    H     H_    0.824492 0.320354 0.196340 0.120772
H5    H     H_    0.516212 0.337189 0.618841 0.122036
H6    H     H_    0.302347 0.047333 0.629716 0.134151
H7    H     H_    0.197033 0.695806 0.772818 0.096231
H8    H     H_    0.144528 0.660176 0.857523 0.124239
H9    H     H_    0.258795 0.027335 0.714984 0.100264
H10   H     H_    0.118633 0.967970 0.773761 0.097507
H11   H     H_    0.074805 0.938215 0.859080 0.120813
H12   H     H_    0.558060 0.882603 0.184320 0.110558
H13   H     H_    0.093387 0.662107 0.699637 0.102352
H14   H     H_    0.144417 0.682658 0.614162 0.123807
H15   H     H_    0.513615 0.690303 0.604817 0.108048
H16   H     H_    0.844256 0.856885 0.756258 0.111186
H17   H     H_    0.873265 0.847175 0.841728 0.131145
H18   H     H_    0.483293 0.708414 0.779467 0.123976
H19   H     H_    0.512438 0.692538 0.866609 0.108636
H20   H     H_    0.778960 0.984761 0.719786 0.113133
H21   H     H_    0.769072 0.034072 0.637178 0.135984
H22   H     H_    0.519628 0.342153 0.286582 0.113453
H23   H     H_    0.770216 0.734457 0.209060 0.103644
H24   H     H_    0.040879 0.870045 0.293240 0.109662
H25   H     H_    0.008953 0.856519 0.205129 0.111537
H26   H     H_    0.294854 0.804423 0.184714 0.106224
H27   H     H_    0.326445 0.817553 0.272697 0.105129
H28   H     H_    0.544557 0.903311 0.272222 0.110271
H29   H     H_    0.545948 0.531570 0.175053 0.163202
H30   H     H_    0.580233 0.520776 0.236437 0.113748
H31   H     H_    0.339500 0.402204 0.191143 0.184311
H32   H     H_    0.372140 0.387742 0.252884 0.162900
H33   H     H_    0.454302 0.597146 0.266183 0.164941
H34   H     H_    0.756301 0.754728 0.296960 0.107919
H35   H     H_    0.308358 0.529752 0.246233 0.148391
H36   H     H_    0.420680 0.611148 0.204103 0.158931
H37   H     H_    0.374859 0.454146 0.690108 0.148340
H38   H     H_    0.419479 0.526100 0.635037 0.117489
H39   H     H_    0.312032 0.586294 0.722046 0.156694
H40   H     H_    0.350282 0.662362 0.665958 0.166954
H41   H     H_    0.213070 0.486641 0.621251 0.151242
H42   H     H_    0.143911 0.521588 0.668549 0.139168
H43   H     H_    0.174398 0.408186 0.677250 0.141175
H44   H     H_    0.774530 0.238803 0.622324 0.126651
H45   H     H_    0.496393 0.269546 0.775164 0.100675
H46   H     H_    0.510353 0.307295 0.861992 0.127378
H47   H     H_    0.798762 0.276577 0.707777 0.098330
H48   H     H_    0.860510 0.407994 0.769266 0.100261
O1    O     O_R   0.302900 0.805360 0.446400 -0.507310
O2    O     O_R   0.638120 0.455970 0.034270 -0.498324
O3    O     O_R   0.667540 0.672320 0.030160 -0.495547
O4    O     O_R   0.522090 0.841370 0.450730 -0.495879
O5    O     O_R   0.814460 0.840990 0.926980 -0.522392
O6    O     O_R   0.001710 0.811400 0.930110 -0.507940
O7    O     O_R   0.023410 0.659800 0.926210 -0.522439
O8    O     O_R   0.806940 0.473170 0.931090 -0.507274
O9    O     O_R   0.633420 0.451310 0.927930 -0.513516
O10   O     O_R   0.663190 0.668000 0.931580 -0.495076
O11   O     O_3   0.826130 0.653050 0.980200 -0.248256
O12   O     O_R   0.657980 0.180990 0.549630 -0.506944
O13   O     O_R   0.693280 0.995650 0.447220 -0.504459
O14   O     O_R   0.657260 0.178740 0.451050 -0.493821
O15   O     O_R   0.502640 0.195380 0.446850 -0.507193
O16   O     O_R   0.319630 0.976590 0.450330 -0.492664
O17   O     O_R   0.303680 0.807790 0.552740 -0.517582
O18   O     O_R   0.522820 0.843620 0.549310 -0.503195
O19   O     O_R   0.694060 0.998080 0.553560 -0.519724
O20   O     O_3   0.516625 0.372189 0.191494 -0.564461
O21   O     O_3   0.514099 0.611150 0.697256 -0.579968
O22   O     O_R   0.503420 0.197810 0.553190 -0.524041
O23   O     O_R   0.320350 0.978840 0.548910 -0.504811
O24   O     O_3   0.499990 0.999990 0.500010 -0.244946
O25   O     O_R   0.819150 0.845650 0.033320 -0.502851
O26   O     O_R   0.006060 0.815720 0.028680 -0.492032
O27   O     O_R   0.028100 0.664460 0.032550 -0.506991
O28   O     O_R   0.811290 0.477490 0.029660 -0.498257

loop_
_geom_bond_atom_site_label_1
_geom_bond_atom_site_label_2
_ccdc_geom_bond_type
C25   C31   A    
C7    C10   S    
C74   O5    A    
C63   C65   A    
C70   O2    A    
C81   O21   S    
C27   C29   A    
C41   C42   A    
C2    C7    A    
C69   O26   A    
C75   C76   A    
C77   H30   S    
C59   H20   S    
C81   C82   S    
C17   H23   S    
C39   C41   A    
C54   C60   A    
C52   O17   A    
Cr5   O7    S    
C23   H22   S    
C79   H31   S    
C12   C23   A    
C26   C27   A    
C27   H47   S    
C71   O25   A    
C55   H15   S    
C45   C76   A    
C74   O10   A    
C36   C37   A    
C30   H3    S    
Cr2   O12   S    
C25   C40   S    
C49   H11   S    
C30   C31   A    
C38   C73   S    
C31   H5    S    
C41   H6    S    
C70   C78   S    
C80   H35   S    
C68   C74   S    
C72   O7    A    
C16   C84   S    
C17   C20   A    
C56   C78   T    
Cr3   O22   S    
C18   C19   A    
Cr4   O11   S    
C49   C50   A    
Cr6   O10   S    
C1    O4    A    
C76   H4    S    
C63   C68   A    
C61   C66   A    
C58   C66   S    
C35   C36   A    
C45   C56   S    
C8    C9    S    
C14   H28   S    
Cr3   O15   S    
Cr2   O24   S    
C82   H40   S    
C29   C30   A    
Cr1   O1    S    
C6    H27   S    
C75   H1    S    
C34   C75   A    
C71   O3    A    
C35   H2    S    
Cr5   O11   S    
C4    O15   A    
C57   O21   S    
C59   C60   A    
C81   H37   S    
Cr1   O24   S    
Cr5   O8    S    
Cr6   O11   S    
C44   H13   S    
C44   C46   A    
C50   C51   A    
C77   C79   S    
C48   C53   A    
C4    O14   A    
C79   H32   S    
C64   C67   T    
C19   C22   S    
C3    C8    A    
C28   C54   S    
C47   C51   A    
C62   H17   S    
C58   C59   A    
Cr4   O26   S    
C46   H14   S    
C39   C52   S    
C15   C20   A    
Cr1   O18   S    
C63   H19   S    
C43   C44   A    
C83   H41   S    
Cr6   O9    S    
C26   H44   S    
Cr2   O14   S    
C32   H45   S    
C47   C48   A    
C23   C34   A    
C35   C38   A    
C17   C18   A    
Cr3   O16   S    
C40   O12   A    
C65   H18   S    
Cr1   O17   S    
C32   C37   A    
C82   H39   S    
C61   H16   S    
C9    C11   T    
Cr5   O27   S    
C39   C46   A    
Cr3   O23   S    
C73   O9    A    
C65   C66   A    
C55   C57   A    
C5    H26   S    
C16   O16   A    
C16   O1    A    
C1    C13   S    
C42   C43   A    
C72   O6    A    
C4    C64   S    
C54   C55   A    
Cr4   O5    S    
C14   C19   A    
C40   O22   A    
C12   C45   A    
C77   H29   S    
C34   C67   S    
C5    C8    A    
Cr6   O2    S    
C11   C69   S    
C6    C7    A    
Cr4   O25   S    
C48   H8    S    
C52   O23   A    
C50   H10   S    
C33   C38   A    
C47   H7    S    
C62   C68   A    
C73   O8    A    
C32   C33   A    
C70   O28   A    
C2    C3    A    
C25   C26   A    
C83   H42   S    
C81   H38   S    
C60   H21   S    
C3    H25   S    
C42   H9    S    
C2    H24   S    
C33   H46   S    
C43   C51   S    
C57   C58   A    
C5    C6    A    
C80   H36   S    
C49   C53   A    
C77   O20   S    
C10   C84   T    
C28   O19   A    
C13   C22   T    
C1    O13   A    
Cr1   O4    S    
C15   H12   S    
C61   C62   A    
Cr2   O19   S    
C69   O27   A    
Cr5   O28   S    
C83   H43   S    
Cr6   O3    S    
C79   C80   S    
Cr3   O24   S    
C20   C21   S    
C82   C83   S    
C21   C24   T    
C29   C37   S    
C28   O18   A    
C14   C15   A    
C12   O20   S    
Cr2   O13   S    
C53   C72   S    
C36   H48   S    
Cr4   O6    S    
C24   C71   S    
C18   H34   S    
C80   H33   S    
