data_mof_unit_45732.cif
_audit_creation_date              2012-12-10T19:49:43-0500
_audit_creation_method            fapswitch 2.2
_symmetry_space_group_name_H-M    P1
_symmetry_Int_Tables_number       1
_space_group_crystal_system       triclinic
_cell_length_a                    10.85942
_cell_length_b                    16.149434
_cell_length_c                    17.310563
_cell_angle_alpha                 98.327865
_cell_angle_beta                  90.975217
_cell_angle_gamma                 93.039176
_cell_volume                      2998.64042945

loop_
_atom_site_label
_atom_site_type_symbol
_atom_type_description
_atom_site_fract_x
_atom_site_fract_y
_atom_site_fract_z
_atom_type_partial_charge
C1    C     C_R   0.495148 0.487730 0.349448 0.818661
C2    C     C_R   0.498971 0.512135 0.650120 0.794251
C3    C     C_R   0.871323 0.499842 0.499348 -0.246883
C4    C     C_R   0.128413 0.498407 0.504381 -0.258169
C5    C     C_R   0.930052 0.433911 0.455000 -0.144732
C6    C     C_R   0.069797 0.565792 0.547199 -0.134722
C7    C     C_R   0.482129 0.477504 0.264011 -0.082225
C8    C     C_R   0.498467 0.521581 0.734873 -0.067894
C9    C     C_R   0.461930 0.546832 0.226714 -0.204832
C10   C     C_R   0.410325 0.476942 0.772207 -0.240755
C11   C     C_R   0.450071 0.537398 0.145994 -0.232802
C12   C     C_R   0.413900 0.483367 0.853066 -0.244056
C13   C     C_R   0.465845 0.459338 0.100199 0.010920
C14   C     C_R   0.513240 0.527621 0.897420 -0.000053
C15   C     C_R   0.473115 0.387474 0.137461 0.539746
C16   C     C_R   0.597498 0.577669 0.859872 0.558240
C17   C     C_R   0.481421 0.397433 0.219535 -0.292161
C18   C     C_R   0.585238 0.576531 0.778850 -0.324508
C19   C     C_2   0.480485 0.453951 0.014011 0.332151
C20   C     C_2   0.530069 0.520836 0.982183 0.325321
C21   C     C_R   0.427573 0.751915 0.475818 0.692564
C22   C     C_R   0.526430 0.250134 0.549677 0.691009
C23   C     C_R   0.262636 0.499745 0.501274 0.865754
C24   C     C_R   0.737243 0.499985 0.498780 0.856044
C25   C     C_R   0.437939 0.839716 0.482163 -0.422321
C26   C     C_R   0.520420 0.162374 0.541903 -0.481133
C27   C     C_R   0.547945 0.884825 0.510442 -0.073317
C28   C     C_R   0.485154 0.112923 0.470470 -0.021767
C29   C     C_R   0.639525 0.840496 0.543907 0.443535
C30   C     C_R   0.436708 0.154361 0.410623 0.491905
C31   C     C_R   0.617434 0.754112 0.545802 -0.152523
C32   C     C_R   0.434957 0.242702 0.423473 -0.173583
C33   C     C_2   0.566084 0.977848 0.507494 0.373300
C34   C     C_2   0.497005 0.018712 0.458423 0.389432
C35   C     C_R   0.278609 0.687923 0.705916 -0.168442
C36   C     C_R   0.813649 0.342094 0.252931 -0.215703
C37   C     C_R   0.211508 0.621767 0.660565 -0.176729
C38   C     C_R   0.861190 0.399110 0.315995 -0.128292
C39   C     C_R   0.140676 0.636364 0.595991 0.126234
C40   C     C_R   0.863574 0.376799 0.391312 0.126903
C41   C     C_R   0.136724 0.718165 0.577926 -0.078614
C42   C     C_R   0.813867 0.297764 0.403337 -0.162968
C43   C     C_R   0.203760 0.785624 0.622599 0.520303
C44   C     C_R   0.771690 0.238990 0.339633 0.531717
C45   C     C_R   0.275511 0.769248 0.687544 -0.235349
C46   C     C_R   0.770382 0.261927 0.264433 -0.220466
C47   C     C_R   0.941043 0.565024 0.546005 0.444348
C48   C     C_R   0.058167 0.430277 0.461627 0.442110
Cu1   Cu    Cu3+1 0.493640 0.415410 0.495980 0.981503
Cu2   Cu    Cu3+1 0.506360 0.584590 0.504020 0.993888
H1    H     H_    0.545815 0.134107 0.591845 0.221797
H2    H     H_    0.358981 0.871572 0.465785 0.238294
H3    H     H_    0.082170 0.729467 0.527883 0.146825
H4    H     H_    0.813149 0.280402 0.461482 0.138072
H5    H     H_    0.454965 0.608538 0.259831 0.165949
H6    H     H_    0.337918 0.438018 0.738821 0.145124
H7    H     H_    0.645166 0.616977 0.749949 0.147378
H8    H     H_    0.485975 0.342694 0.248624 0.159680
N1    N     N_R   0.515930 0.711660 0.510070 -0.238301
N2    N     N_R   0.484070 0.288340 0.489930 -0.234365
O1    O     O_R   0.494030 0.420280 0.382610 -0.596423
O2    O     O_R   0.505970 0.579720 0.617390 -0.584503
O3    O     O_R   0.504770 0.563150 0.389400 -0.572625
O4    O     O_R   0.495230 0.436850 0.610600 -0.538335
O5    O     O_R   0.314270 0.428570 0.496610 -0.572668
O6    O     O_R   0.685730 0.571430 0.503390 -0.557447
O7    O     O_R   0.325020 0.571440 0.503400 -0.524542
O8    O     O_R   0.674980 0.428560 0.496600 -0.566932
H9    H     H_    0.329199 0.818066 0.724744 0.136716
H10   H     H_    0.737796 0.217012 0.214971 0.125652
O9    O     O_3   0.457878 0.308500 0.093420 -0.528653
C49   C     C_3   0.554836 0.258056 0.108434 -0.354045
H11   H     H_    0.646397 0.292769 0.110675 0.135772
H12   H     H_    0.556422 0.205137 0.059924 0.193986
H13   H     H_    0.538401 0.230604 0.162587 0.152750
O10   O     O_3   0.684838 0.631471 0.903744 -0.528653
C50   C     C_3   0.804041 0.621110 0.873710 -0.356880
H14   H     H_    0.819727 0.554991 0.848758 0.134270
H15   H     H_    0.872592 0.639658 0.922184 0.192391
H16   H     H_    0.821766 0.663673 0.829891 0.167747
H17   H     H_    0.340025 0.451534 0.880185 0.203388
H18   H     H_    0.431735 0.592260 0.119388 0.193138
O11   O     O_3   0.325482 0.705553 0.440310 -0.553039
C51   C     C_3   0.296263 0.729687 0.367248 -0.344585
H19   H     H_    0.379869 0.743298 0.333745 0.148264
H20   H     H_    0.237519 0.784370 0.374912 0.182159
H21   H     H_    0.241918 0.677070 0.331784 0.186971
O12   O     O_3   0.588562 0.297931 0.612833 -0.546952
C52   C     C_3   0.540034 0.280019 0.684213 -0.331495
H22   H     H_    0.581637 0.224253 0.702237 0.161626
H23   H     H_    0.437377 0.272056 0.682114 0.145781
H24   H     H_    0.565979 0.333634 0.730194 0.197891
H25   H     H_    0.394941 0.275512 0.380023 0.173920
H26   H     H_    0.682556 0.720251 0.574991 0.204782
O13   O     O_3   0.433522 0.972634 0.394755 -0.561835
C53   C     C_3   0.518125 0.947352 0.336036 -0.281704
H27   H     H_    0.569603 0.002242 0.317578 0.198879
H28   H     H_    0.465776 0.913943 0.284175 0.187947
H29   H     H_    0.583699 0.903241 0.354996 0.123532
O14   O     O_3   0.657100 0.021405 0.556887 -0.563052
C54   C     C_3   0.758850 0.043040 0.512623 -0.251139
H30   H     H_    0.785317 0.989589 0.469042 0.145879
H31   H     H_    0.839298 0.061395 0.552939 0.194441
H32   H     H_    0.740101 0.097854 0.483354 0.192522
O15   O     O_3   0.743749 0.883261 0.580662 -0.532493
C55   C     C_3   0.852264 0.844949 0.554192 -0.295423
H33   H     H_    0.847839 0.820704 0.490480 0.136141
H34   H     H_    0.872885 0.794396 0.588684 0.207939
H35   H     H_    0.930458 0.892605 0.564203 0.214319
O16   O     O_3   0.381108 0.107559 0.344201 -0.533386
C56   C     C_3   0.416200 0.139419 0.275565 -0.329455
H36   H     H_    0.515328 0.161003 0.277155 0.174925
H37   H     H_    0.356609 0.190447 0.264457 0.168281
H38   H     H_    0.402137 0.088376 0.225461 0.194050
H39   H     H_    0.333418 0.676133 0.755591 0.168395
H40   H     H_    0.813620 0.359423 0.194863 0.141662
H41   H     H_    0.214734 0.559096 0.675585 0.111638
H42   H     H_    0.899107 0.459926 0.305936 0.131868
O17   O     O_3   0.193526 0.864108 0.598837 -0.604543
C57   C     C_3   0.267217 0.929082 0.643169 -0.344097
H43   H     H_    0.366652 0.915942 0.640347 0.176740
H44   H     H_    0.236150 0.940629 0.704468 0.170408
H45   H     H_    0.256308 0.987537 0.617679 0.194030
O18   O     O_3   0.730505 0.159676 0.351834 -0.623859
C58   C     C_3   0.818053 0.102357 0.322553 -0.409913
H46   H     H_    0.790006 0.039817 0.337657 0.174314
H47   H     H_    0.911289 0.120470 0.349527 0.181314
H48   H     H_    0.821811 0.095755 0.257819 0.180754
O19   O     O_3   0.883557 0.631626 0.586631 -0.594060
C59   C     C_3   0.862058 0.614698 0.662843 -0.367464
H49   H     H_    0.949109 0.605909 0.694672 0.166523
H50   H     H_    0.797350 0.558845 0.662306 0.160708
H51   H     H_    0.819589 0.669853 0.695092 0.183807
O20   O     O_3   0.116005 0.366094 0.416766 -0.558723
C60   C     C_3   0.118572 0.296716 0.458016 -0.261998
H52   H     H_    0.025130 0.269032 0.465750 0.134848
H53   H     H_    0.165253 0.313194 0.516320 0.159996
H54   H     H_    0.170359 0.247302 0.423656 0.186278
O21   O     O_3   0.597939 0.585395 0.028734 -0.552300
C61   C     C_3   0.712372 0.556304 0.050501 -0.252728
H55   H     H_    0.757579 0.519539 0.000396 0.143349
H56   H     H_    0.701672 0.518182 0.098665 0.132828
H57   H     H_    0.775335 0.611365 0.072291 0.194421
O22   O     O_3   0.445041 0.378557 0.967522 -0.554241
C62   C     C_3   0.550692 0.340046 0.935678 -0.265953
H58   H     H_    0.628321 0.343543 0.979146 0.140879
H59   H     H_    0.582371 0.367848 0.884010 0.135449
H60   H     H_    0.525680 0.272773 0.915734 0.194575

loop_
_geom_bond_atom_site_label_1
_geom_bond_atom_site_label_2
_ccdc_geom_bond_type
C60   H54   S    
C30   C32   A    
C19   O22   S    
Cu1   O8    S    
C27   C29   A    
O13   C53   S    
C51   H21   S    
C62   H58   S    
C60   H52   S    
C39   C41   A    
C50   H14   S    
C27   C33   S    
C54   H30   S    
Cu1   N2    S    
Cu1   O5    S    
C30   O16   S    
Cu2   N1    S    
C20   O21   S    
C48   O20   S    
C35   C37   A    
C51   H20   S    
C21   N1    A    
C22   N2    A    
C55   H33   S    
C31   N1    A    
C53   H29   S    
C60   H53   S    
C23   O7    A    
O16   C56   S    
C51   H19   S    
C19   C20   D    
C44   C46   A    
C7    C17   A    
C53   H28   S    
C58   H48   S    
C61   H57   S    
C35   H39   S    
C9    H5    S    
C22   O12   S    
C52   H23   S    
C10   H6    S    
Cu2   O7    S    
C57   H45   S    
C24   O6    A    
C17   H8    S    
C40   C42   A    
C32   H25   S    
C28   C34   S    
C54   H31   S    
Cu1   O4    S    
C1    C7    S    
Cu2   O3    S    
C41   C43   A    
C29   O15   S    
C3    C24   S    
C42   C44   A    
C49   H13   S    
C1    O3    A    
C62   H59   S    
C2    O4    A    
C50   H15   S    
C11   H18   S    
C61   H55   S    
C37   C39   A    
C5    C48   A    
Cu1   O1    S    
C6    C47   A    
C13   C19   S    
C45   H9    S    
C21   O11   S    
C34   O13   S    
C4    C6    A    
C4    C23   S    
O22   C62   S    
C44   O18   S    
C8    C18   A    
C59   H50   S    
C14   C20   S    
C43   C45   A    
C18   H7    S    
O11   C51   S    
O21   C61   S    
C53   H27   S    
C33   C34   D    
C56   H37   S    
O10   C50   S    
C52   H24   S    
C36   C46   A    
C9    C11   A    
C41   H3    S    
C10   C12   A    
C49   H12   S    
C47   O19   S    
C54   H32   S    
C13   C15   A    
C58   H46   S    
Cu2   O2    S    
C14   C16   A    
C59   H51   S    
C32   N2    A    
C36   C38   A    
C36   H40   S    
C62   H60   S    
C57   H43   S    
C57   H44   S    
O19   C59   S    
C4    C48   A    
C50   H16   S    
C15   C17   A    
C21   C25   A    
C56   H36   S    
C16   O10   S    
C8    C10   A    
C2    C8    S    
C12   C14   A    
C49   H11   S    
C3    C5    A    
C1    O1    A    
O17   C57   S    
Cu2   O6    S    
O20   C60   S    
C61   H56   S    
C25   C27   A    
C31   H26   S    
C15   O9    S    
O15   C55   S    
C26   C28   A    
C33   O14   S    
C23   O5    A    
C28   C30   A    
C59   H49   S    
C25   H2    S    
O9    C49   S    
C29   C31   A    
C26   H1    S    
C42   H4    S    
C38   C40   A    
C11   C13   A    
C55   H34   S    
C3    C47   A    
O14   C54   S    
C12   H17   S    
C56   H38   S    
C46   H10   S    
C24   O8    A    
C38   H42   S    
C7    C9    A    
C37   H41   S    
O12   C52   S    
C16   C18   A    
Cu1   Cu2   S    
C22   C26   A    
C5    C40   S    
C58   H47   S    
C6    C39   S    
C52   H22   S    
C2    O2    A    
C43   O17   S    
O18   C58   S    
C55   H35   S    
C35   C45   A    
