data_mof_unit_54707.cif
_audit_creation_date              2013-03-05T15:44:57-0500
_audit_creation_method            fapswitch 2.2
_symmetry_space_group_name_H-M    P1
_symmetry_Int_Tables_number       1
_space_group_crystal_system       triclinic
_cell_length_a                    10.913558
_cell_length_b                    10.939766
_cell_length_c                    18.794617
_cell_angle_alpha                 90.047908
_cell_angle_beta                  90.003929
_cell_angle_gamma                 119.757886
_cell_volume                      1948.01668857

loop_
_atom_site_label
_atom_site_type_symbol
_atom_site_description
_atom_site_fract_x
_atom_site_fract_y
_atom_site_fract_z
_atom_type_partial_charge
O1    O     O_R   0.766500 0.250040 0.579790 -0.536477
O2    O     O_R   0.798570 0.516780 0.574780 -0.483387
C1    C     C_R   0.867061 0.635138 0.604811 0.583278
O3    O     O_R   0.984000 0.732950 0.581090 -0.480081
O4    O     O_R   0.218600 0.700890 0.574760 -0.526515
C2    C     C_R   0.267266 0.630428 0.604434 0.574221
O5    O     O_R   0.249390 0.515350 0.579940 -0.446775
O6    O     O_R   0.982790 0.280900 0.573700 -0.465659
C3    C     C_R   0.859349 0.217890 0.599401 0.546419
O7    O     O_R   0.766600 0.251130 0.419260 -0.491111
O8    O     O_R   0.798660 0.517790 0.425980 -0.435405
C4    C     C_R   0.863131 0.639036 0.398259 0.573119
O9    O     O_R   0.984100 0.734040 0.420570 -0.512931
O10   O     O_R   0.218690 0.701900 0.425960 -0.507085
C5    C     C_R   0.274294 0.635720 0.397173 0.550281
O11   O     O_R   0.249490 0.516440 0.419420 -0.494417
O12   O     O_R   0.982880 0.281910 0.424890 -0.493485
C6    C     C_R   0.861765 0.226493 0.396698 0.548057
Cr1   Cr    Cr6+3 0.791660 0.390250 0.499930 1.126182
Cr2   Cr    Cr6+3 0.098520 0.708290 0.500540 1.080692
Cr3   Cr    Cr6+3 0.109770 0.401430 0.499480 1.146116
O13   O     O_3   0.999980 0.499990 0.499980 -0.301410
C7    C     C_R   0.214600 0.673378 0.724784 -0.145198
H1    H     H_    0.119083 0.669104 0.705354 0.155053
C8    C     C_R   0.241494 0.687197 0.797349 -0.122957
H2    H     H_    0.169055 0.696055 0.833565 0.162002
C9    C     C_R   0.361893 0.688383 0.822304 -0.013398
C10   C     C_R   0.454122 0.673402 0.775614 -0.127310
H3    H     H_    0.546781 0.672669 0.795685 0.137193
C11   C     C_R   0.427645 0.659509 0.703185 0.195046
C12   C     C_R   0.308575 0.661605 0.677752 0.007275
C13   C     C_R   0.798010 0.095796 0.810755 -0.025409
C14   C     C_R   0.058838 0.220428 0.821033 -0.095635
C15   C     C_R   0.190397 0.264080 0.790858 -0.119351
C16   C     C_R   0.200566 0.235138 0.719952 -0.023555
C17   C     C_R   0.080207 0.171893 0.676465 0.233597
C18   C     C_R   0.947686 0.145753 0.705118 -0.034308
C19   C     C_R   0.934208 0.151262 0.779839 -0.049020
H4    H     H_    0.302872 0.259847 0.699333 0.199741
H5    H     H_    0.057339 0.248168 0.876041 0.160683
C20   C     C_R   0.696015 0.063733 0.691203 0.006900
C21   C     C_R   0.678758 0.061887 0.765516 -0.051459
C22   C     C_R   0.577454 0.015448 0.646044 -0.093626
C23   C     C_R   0.449757 0.994965 0.671676 -0.096527
C24   C     C_R   0.433331 0.009836 0.744036 0.203260
C25   C     C_R   0.544180 0.035367 0.790577 -0.105070
C26   C     C_R   0.832167 0.125564 0.662111 0.027353
H6    H     H_    0.520888 0.040037 0.845219 0.207659
H7    H     H_    0.364223 0.968716 0.634661 0.184229
C27   C     C_R   0.759464 0.523109 0.719546 -0.096969
C28   C     C_R   0.747051 0.535638 0.792431 -0.148626
H8    H     H_    0.695917 0.442387 0.825469 0.133823
C29   C     C_R   0.806538 0.669892 0.822099 0.011818
C30   C     C_R   0.868340 0.789926 0.778680 -0.102336
H9    H     H_    0.911156 0.894560 0.800685 0.167568
C31   C     C_R   0.877049 0.777281 0.706583 -0.065512
H10   H     H_    0.929064 0.871020 0.674695 0.203472
C32   C     C_R   0.827030 0.645036 0.676805 0.071835
C33   C     C_R   0.405894 0.607485 0.298731 -0.117948
C34   C     C_R   0.442704 0.624758 0.227798 -0.132457
H11   H     H_    0.478513 0.557987 0.204238 0.141499
C35   C     C_R   0.425216 0.720764 0.186402 0.021131
C36   C     C_R   0.375872 0.804807 0.217684 -0.139095
C37   C     C_R   0.337427 0.786585 0.289229 -0.137414
C38   C     C_R   0.347695 0.683848 0.329363 0.019149
C39   C     C_R   0.713819 0.114154 0.293391 -0.096574
C40   C     C_R   0.705429 0.102892 0.220630 -0.106045
H12   H     H_    0.604136 0.070764 0.196316 0.152977
C41   C     C_R   0.824765 0.131688 0.179975 0.023445
C42   C     C_R   0.952532 0.167782 0.213644 -0.147393
H13   H     H_    0.044110 0.185214 0.183221 0.133350
C43   C     C_R   0.962801 0.185873 0.287124 -0.134919
H14   H     H_    0.064816 0.224173 0.312173 0.155061
C44   C     C_R   0.844105 0.164530 0.326663 0.021777
C45   C     C_R   0.897870 0.786114 0.295345 -0.169336
H15   H     H_    0.972185 0.878622 0.324921 0.159561
C46   C     C_R   0.895670 0.795702 0.222658 -0.141268
C47   C     C_R   0.807621 0.676916 0.181502 -0.015676
C48   C     C_R   0.715531 0.549817 0.214417 -0.140295
C49   C     C_R   0.713420 0.539163 0.288550 0.189454
C50   C     C_R   0.814724 0.656728 0.328748 0.015204
O14   O     O_R   0.895110 0.806860 0.920430 -0.495513
O15   O     O_R   0.872260 0.046970 0.925000 -0.499294
C51   C     C_R   0.774213 0.052692 0.886926 0.536558
O16   O     O_R   0.691430 0.085060 0.918550 -0.526797
O17   O     O_R   0.451490 0.822460 0.925250 -0.500816
C52   C     C_R   0.395443 0.700682 0.896704 0.550138
O18   O     O_R   0.413330 0.603360 0.920440 -0.515801
O19   O     O_R   0.676110 0.626250 0.926750 -0.504545
C53   C     C_R   0.796332 0.692759 0.896724 0.539573
O20   O     O_R   0.895350 0.809870 0.080950 -0.512458
O21   O     O_R   0.872490 0.049760 0.073800 -0.503477
C54   C     C_R   0.803446 0.100088 0.104619 0.546876
O22   O     O_R   0.691680 0.088070 0.079070 -0.521544
O23   O     O_R   0.451720 0.825250 0.074050 -0.501832
C55   C     C_R   0.457691 0.727865 0.110918 0.555666
O24   O     O_R   0.413580 0.606370 0.080960 -0.505996
O25   O     O_R   0.676340 0.629040 0.075550 -0.520896
C56   C     C_R   0.796024 0.698372 0.106323 0.547073
Cr4   Cr    Cr6+3 0.874790 0.925890 0.000070 1.040296
Cr5   Cr    Cr6+3 0.574120 0.948670 0.999300 1.033678
Cr6   Cr    Cr6+3 0.551420 0.625320 0.000920 1.020207
O26   O     O_3   0.666780 0.833290 0.000090 -0.293288
H16   H     H_    0.586044 0.001880 0.589482 0.164869
N1    N     N_R   0.302793 0.995066 0.770536 0.060548
O27   O     O_R   0.289079 0.018575 0.837163 -0.367516
O28   O     O_R   0.195637 0.956463 0.728123 -0.378523
H17   H     H_    0.721179 0.419065 0.697167 0.155229
H18   H     H_    0.413365 0.526774 0.328159 0.198809
H19   H     H_    0.361161 0.879642 0.186436 0.140619
H20   H     H_    0.291633 0.846073 0.311643 0.149953
H21   H     H_    0.620311 0.093624 0.322990 0.179546
H22   H     H_    0.963179 0.897747 0.198866 0.155776
H23   H     H_    0.641371 0.461178 0.182542 0.159159
N2    N     N_R   0.607923 0.410522 0.321270 0.079911
O29   O     O_R   0.545328 0.414761 0.379399 -0.319398
O30   O     O_R   0.554621 0.292478 0.286212 -0.383665
N3    N     N_R   0.518326 0.638120 0.656246 0.071421
O31   O     O_R   0.585573 0.728743 0.606003 -0.344743
O32   O     O_R   0.509065 0.515047 0.653927 -0.340551
H24   H     H_    0.284687 0.316590 0.823269 0.153947
N4    N     N_R   0.092913 0.125774 0.606067 0.091520
O33   O     O_R   0.982958 0.029104 0.572505 -0.342348
O34   O     O_R   0.216309 0.175667 0.576296 -0.312425

loop_
_geom_bond_atom_site_label_1
_geom_bond_atom_site_label_2
_geom_bond_distance
_ccdc_geom_bond_type
C23   H7    1.082267 S    
C52   O18   1.256085 A    
C54   O22   1.255516 A    
C35   C55   1.455093 S    
O19   Cr6   1.944653 S    
C20   C21   1.408170 A    
C17   N4    1.446643 S    
O23   C55   1.299823 A    
C45   H15   1.084056 S    
O4    Cr2   1.942953 S    
C46   C47   1.403211 A    
N1    O28   1.300178 A    
O8    Cr1   1.944671 S    
C18   C19   1.416390 A    
C10   H3    1.083035 S    
C41   C54   1.448714 S    
C11   C12   1.395401 A    
C49   C50   1.426183 A    
N2    O29   1.301493 A    
C5    C38   1.458008 S    
C31   H10   1.075289 S    
C34   C35   1.394692 A    
C15   C16   1.386633 A    
C21   C25   1.428464 A    
N3    O31   1.301000 A    
O20   C56   1.256500 A    
C22   H16   1.083737 S    
C16   C17   1.403157 A    
O22   Cr5   2.067157 S    
O6    C3    1.265783 A    
N2    O30   1.301145 A    
C7    H1    1.083396 S    
C42   H13   1.083172 S    
C13   C19   1.421475 A    
O20   Cr4   2.063472 S    
C18   C26   1.419405 A    
O24   Cr6   2.064029 S    
C2    C12   1.436978 S    
C33   C34   1.378255 A    
C6    C44   1.448451 S    
Cr3   O13   1.969969 S    
C27   H17   1.083560 S    
C20   C22   1.412182 A    
Cr6   O26   1.979456 S    
C46   H22   1.083251 S    
C24   N1    1.440654 S    
C14   C15   1.389626 A    
C25   H6    1.065240 S    
C13   C51   1.489597 S    
C30   C31   1.370053 A    
O1    Cr1   2.065617 S    
C14   H5    1.079653 S    
C5    O11   1.265358 A    
C36   C37   1.393339 A    
C40   H12   1.080912 S    
C27   C32   1.411986 A    
O10   Cr2   1.944412 S    
Cr1   O13   1.975023 S    
O1    C3    1.280746 A    
C51   O16   1.269714 A    
C43   C44   1.408898 A    
C47   C48   1.392985 A    
C45   C50   1.395574 A    
C37   H20   1.083144 S    
C11   N3    1.429020 S    
C27   C28   1.389886 A    
C8    H2    1.083365 S    
O25   Cr6   1.942234 S    
Cr4   O26   1.974047 S    
O12   Cr3   1.947278 S    
C28   H8    1.083359 S    
C34   H11   1.079454 S    
C28   C29   1.393400 A    
C7    C12   1.407435 A    
C16   H4    1.081891 S    
C22   C23   1.383751 A    
C35   C36   1.404129 A    
O15   C51   1.314319 A    
C49   N2    1.441321 S    
O7    Cr1   2.067060 S    
C55   O24   1.295721 A    
O12   C6    1.264648 A    
C20   C26   1.402648 A    
C9    C52   1.434637 S    
C45   C46   1.371358 A    
Cr2   O13   1.979055 S    
C3    C26   1.483866 S    
C15   H24   1.082836 S    
O15   Cr4   1.945606 S    
N4    O34   1.302119 A    
C1    O3    1.271913 A    
C29   C53   1.438466 S    
O16   Cr5   2.067964 S    
C23   C24   1.391677 A    
O21   Cr4   1.946233 S    
C30   H9    1.080685 S    
C17   C18   1.432935 A    
O9    Cr2   2.060910 S    
O2    Cr1   1.947781 S    
O17   C52   1.275405 A    
O14   Cr4   2.066074 S    
C43   H14   1.083173 S    
O6    Cr3   1.947916 S    
O18   Cr6   2.063140 S    
O8    C4    1.265167 A    
O11   Cr3   2.066711 S    
C29   C30   1.402809 A    
C2    O5    1.260999 A    
C8    C9    1.389124 A    
N1    O27   1.301646 A    
C14   C19   1.413936 A    
O14   C53   1.257768 A    
C39   H21   1.083563 S    
C37   C38   1.403980 A    
C36   H19   1.082679 S    
C10   C11   1.384084 A    
O2    C1    1.261671 A    
N4    O33   1.302042 A    
O5    Cr3   2.067179 S    
C33   C38   1.399532 A    
O4    C2    1.262695 A    
O7    C6    1.268407 A    
O21   C54   1.271920 A    
C33   H18   1.079093 S    
C31   C32   1.385240 A    
C4    C50   1.457776 S    
C39   C40   1.371927 A    
C7    C8    1.387298 A    
C41   C42   1.397716 A    
N3    O32   1.299878 A    
C48   C49   1.397504 A    
O3    Cr2   2.064223 S    
C1    C32   1.442302 S    
C24   C25   1.403812 A    
C4    O9    1.279098 A    
Cr5   O26   1.970578 S    
O25   C56   1.277344 A    
C48   H23   1.083580 S    
C47   C56   1.448318 S    
C13   C21   1.440282 A    
O10   C5    1.273051 A    
C42   C43   1.391563 A    
C40   C41   1.404466 A    
O19   C53   1.273771 A    
O17   Cr5   1.948500 S    
O23   Cr5   1.947869 S    
C9    C10   1.404871 A    
C39   C44   1.392107 A    
