data_mof_unit_16119.cif
_audit_creation_date              2012-12-10T20:35:48-0500
_audit_creation_method            fapswitch 2.2
_symmetry_space_group_name_H-M    P1
_symmetry_Int_Tables_number       1
_space_group_crystal_system       triclinic
_cell_length_a                    15.733751
_cell_length_b                    10.67554
_cell_length_c                    9.948108
_cell_angle_alpha                 89.700184
_cell_angle_beta                  90.324317
_cell_angle_gamma                 90.977473
_cell_volume                      1670.65480954

loop_
_atom_site_label
_atom_site_type_symbol
_atom_type_description
_atom_site_fract_x
_atom_site_fract_y
_atom_site_fract_z
_atom_type_partial_charge
C1    C     C_R   0.498680 0.260498 0.500363 0.888512
C2    C     C_3   0.950383 0.457887 0.631179 -0.396994
C3    C     C_3   0.917097 0.502009 0.491809 0.156245
C4    C     C_3   0.953481 0.637593 0.465940 -0.152677
C5    C     C_3   0.052391 0.634904 0.466331 -0.417305
C6    C     C_1   0.825447 0.501395 0.497417 -0.153175
C7    C     C_1   0.174405 0.500053 0.496692 -0.061933
C8    C     C_1   0.249695 0.499981 0.498544 -0.176274
C9    C     C_R   0.520029 0.063572 0.613672 0.107888
C10   C     C_R   0.490219 0.128704 0.502625 -0.124360
C11   C     C_R   0.447385 0.065830 0.398653 -0.269912
C12   C     C_R   0.338531 0.499866 0.499687 0.904753
C13   C     C_R   0.446295 0.935568 0.397162 0.081585
C14   C     C_R   0.488728 0.871382 0.501268 -0.105122
C15   C     C_R   0.518968 0.936013 0.613370 0.106383
C16   C     C_3   0.603679 0.929606 0.681840 -0.486113
C17   C     C_3   0.605082 0.071518 0.680849 -0.455678
C18   C     C_R   0.429986 0.460992 0.070773 0.154059
C19   C     C_R   0.564304 0.556765 0.072587 0.002824
C20   C     C_R   0.564986 0.554989 0.928983 0.103804
C21   C     C_R   0.430161 0.459573 0.929592 0.141221
C22   C     C_3   0.384072 0.334472 0.929435 -0.133991
C23   C     C_R   0.497823 0.739553 0.499698 0.883428
C24   C     C_3   0.383788 0.339106 0.082506 -0.456221
C25   C     C_R   0.661435 0.500245 0.500232 0.897859
C26   C     C_3   0.048278 0.456596 0.632305 -0.401303
C27   C     C_3   0.048178 0.413727 0.379237 -0.040507
C28   C     C_3   0.949009 0.406666 0.384742 -0.205317
C29   C     C_1   0.750209 0.500817 0.500191 -0.167669
C30   C     C_3   0.082866 0.499970 0.493929 0.249873
H1    H     H_    0.925241 0.362255 0.655191 0.186661
H2    H     H_    0.072646 0.520265 0.712592 0.187072
H3    H     H_    0.927945 0.521238 0.711708 0.201021
H4    H     H_    0.417723 0.116929 0.317144 0.160189
H5    H     H_    0.598750 0.889673 0.784924 0.212647
H6    H     H_    0.653361 0.888016 0.617559 0.192267
H7    H     H_    0.601898 0.112363 0.783108 0.205806
H8    H     H_    0.655060 0.113097 0.614845 0.199600
H9    H     H_    0.070651 0.361160 0.658022 0.181646
H10   H     H_    0.319262 0.338223 0.884232 0.165312
H11   H     H_    0.319197 0.350052 0.125082 0.184840
H12   H     H_    0.422829 0.266346 0.132336 0.215916
H13   H     H_    0.068587 0.457224 0.282153 0.183615
H14   H     H_    0.928418 0.311367 0.418820 0.148487
H15   H     H_    0.077253 0.698958 0.545956 0.165080
H16   H     H_    0.080196 0.669551 0.370338 0.216218
H17   H     H_    0.934467 0.697074 0.552041 0.125429
N1    N     N_R   0.499430 0.499140 0.142800 -0.162562
N2    N     N_R   0.499430 0.499180 0.857150 -0.143814
O1    O     O_R   0.500010 0.316790 0.614690 -0.630474
O2    O     O_R   0.500000 0.316760 0.385350 -0.615989
O3    O     O_R   0.377150 0.500020 0.614720 -0.615071
O4    O     O_R   0.377140 0.499990 0.385380 -0.605479
O5    O     O_R   0.500000 0.683240 0.614650 -0.633018
O6    O     O_R   0.499990 0.683210 0.385310 -0.624904
O7    O     O_R   0.622860 0.500010 0.614620 -0.640507
O8    O     O_R   0.622850 0.499980 0.385280 -0.624490
Zn1   Zn    Zn3+2 0.500010 0.500020 0.653130 0.923846
Zn2   Zn    Zn3+2 0.499990 0.499980 0.346870 0.947254
C31   C     C_2   0.915578 0.700072 0.342466 0.374774
H18   H     H_    0.848478 0.722048 0.341832 0.088760
O9    O     O_2   0.958017 0.726395 0.243546 -0.556399
N3    N     N_3   0.404700 0.869879 0.289367 -0.430357
H19   H     H_    0.432537 0.899214 0.199073 0.188707
H20   H     H_    0.340993 0.896168 0.287243 0.185509
C32   C     C_2   0.632875 0.624783 0.145335 0.473868
H21   H     H_    0.618159 0.682950 0.230286 0.090966
O10   O     O_2   0.706991 0.616656 0.111167 -0.586023
N4    N     N_3   0.635081 0.614141 0.861784 -0.411378
H22   H     H_    0.613187 0.667570 0.781443 0.222399
H23   H     H_    0.676417 0.544995 0.830025 0.235861
N5    N     N_3   0.433843 0.229062 0.881890 -0.433486
H24   H     H_    0.498533 0.252736 0.878070 0.216255
H25   H     H_    0.412862 0.206415 0.785185 0.215528
N6    N     N_3   0.085251 0.288401 0.385888 -0.463231
H26   H     H_    0.061389 0.238851 0.468742 0.188173
H27   H     H_    0.066438 0.238861 0.300006 0.226178
C33   C     C_2   0.909846 0.422260 0.246260 0.427148
H28   H     H_    0.859149 0.487878 0.228400 0.134167
O11   O     O_2   0.932356 0.356343 0.153522 -0.567899

loop_
_geom_bond_atom_site_label_1
_geom_bond_atom_site_label_2
_ccdc_geom_bond_type
C32   O10   D    
N3    H20   S    
C26   H2    S    
O6    Zn2   S    
C18   C21   A    
C24   H12   S    
C19   C20   A    
C25   O7    A    
C3    C6    S    
C21   N2    A    
O4    Zn2   S    
C7    C8    T    
C23   O5    A    
C18   C24   S    
C3    C28   S    
C16   H5    S    
O5    Zn1   S    
C33   O11   D    
C26   H9    S    
O8    Zn2   S    
C15   C16   S    
C19   C32   S    
C31   O9    D    
N4    H23   S    
C16   C17   S    
C28   C33   S    
C1    O1    A    
C12   O4    A    
C32   H21   S    
C7    C30   S    
C21   C22   S    
C27   C30   S    
C24   H11   S    
C25   O8    A    
C27   N6    S    
C22   N5    S    
C12   O3    A    
C25   C29   S    
O1    Zn1   S    
N5    H25   S    
C33   H28   S    
N5    H24   S    
C5    H15   S    
C28   H14   S    
N2    Zn1   S    
C31   H18   S    
C14   C23   S    
N6    H26   S    
C20   N2    A    
C1    O2    A    
C13   N3    S    
C8    C12   S    
C22   H10   S    
C4    C31   S    
C2    C26   S    
C17   H7    S    
N6    H27   S    
O3    Zn1   S    
C2    H3    S    
C9    C17   S    
C26   C30   S    
C22   C24   S    
C20   N4    S    
O2    Zn2   S    
C3    C4    S    
N1    Zn2   S    
C5    C30   S    
C9    C10   A    
C19   N1    A    
C11   H4    S    
C1    C10   S    
C4    C5    S    
C18   N1    A    
C23   O6    A    
C5    H16   S    
C2    C3    S    
C9    C15   A    
C16   H6    S    
C11   C13   A    
O7    Zn1   S    
C17   H8    S    
N4    H22   S    
C10   C11   A    
N3    H19   S    
C27   H13   S    
C6    C29   T    
C27   C28   S    
C14   C15   A    
C2    H1    S    
C13   C14   A    
C4    H17   S    
