data_mof_unit_38113.cif
_audit_creation_date              2013-03-05T15:40:07-0500
_audit_creation_method            fapswitch 2.2
_symmetry_space_group_name_H-M    P1
_symmetry_Int_Tables_number       1
_space_group_crystal_system       triclinic
_cell_length_a                    16.53086
_cell_length_b                    16.531422
_cell_length_c                    28.989175
_cell_angle_alpha                 90.050771
_cell_angle_beta                  90.051771
_cell_angle_gamma                 89.999552
_cell_volume                      7922.11547226

loop_
_atom_site_label
_atom_site_type_symbol
_atom_site_description
_atom_site_fract_x
_atom_site_fract_y
_atom_site_fract_z
_atom_type_partial_charge
O1    O     O_R   0.931980 0.584070 0.954320 -0.572699
O2    O     O_R   0.068020 0.415930 0.045680 -0.574990
O3    O     O_R   0.415930 0.931980 0.454320 -0.572681
O4    O     O_R   0.584070 0.068020 0.545680 -0.576061
O5    O     O_R   0.068020 0.415930 0.954320 -0.572841
O6    O     O_R   0.931980 0.584070 0.045680 -0.575839
O7    O     O_R   0.584070 0.068020 0.454320 -0.572838
O8    O     O_R   0.415930 0.931980 0.545680 -0.574731
O9    O     O_R   0.931980 0.415930 0.045680 -0.572800
O10   O     O_R   0.068020 0.584070 0.954320 -0.574624
O11   O     O_R   0.415930 0.068020 0.545680 -0.572651
O12   O     O_R   0.584070 0.931980 0.454320 -0.574928
O13   O     O_R   0.068020 0.584070 0.045680 -0.572490
O14   O     O_R   0.931980 0.415930 0.954320 -0.576058
O15   O     O_R   0.584070 0.931980 0.545680 -0.572876
O16   O     O_R   0.415930 0.068020 0.454320 -0.575781
C1    C     C_1   0.998343 0.130000 0.195019 0.185866
C2    C     C_1   0.998567 0.870043 0.804623 0.187204
C3    C     C_1   0.871912 0.000477 0.694158 0.184780
C4    C     C_1   0.128122 0.000691 0.305462 0.186162
C5    C     C_1   0.999279 0.871912 0.194531 0.186120
C6    C     C_1   0.999567 0.128173 0.805801 0.184740
C7    C     C_1   0.130017 0.001465 0.695400 0.187193
C8    C     C_1   0.869990 0.001759 0.304981 0.185975
C9    C     C_3   0.999142 0.000869 0.250003 -0.135368
C10   C     C_3   0.000169 0.999871 0.750000 -0.135318
C11   C     C_R   0.999220 0.196273 0.162642 -0.131385
C12   C     C_R   0.999340 0.803697 0.837058 -0.131163
C13   C     C_R   0.805481 0.001216 0.661786 -0.133513
C14   C     C_R   0.194622 0.001328 0.337883 -0.133218
C15   C     C_R   0.998670 0.805431 0.162098 -0.133102
C16   C     C_R   0.998810 0.194618 0.838159 -0.133529
C17   C     C_R   0.196353 0.000691 0.662963 -0.131148
C18   C     C_R   0.803712 0.000859 0.337359 -0.131428
Cu1   Cu    Cu3+1 0.919200 0.500000 0.000000 0.959437
Cu2   Cu    Cu3+1 0.080800 0.500000 0.000000 0.956105
Cu3   Cu    Cu3+1 0.500000 0.919200 0.500000 0.955847
Cu4   Cu    Cu3+1 0.500000 0.080800 0.500000 0.959436
C19   C     C_R   0.000059 0.612246 0.938894 0.813072
C20   C     C_R   0.000096 0.387792 0.061086 0.813630
C21   C     C_R   0.387852 0.000004 0.438820 0.813315
C22   C     C_R   0.612126 0.000045 0.561150 0.813745
C23   C     C_R   0.999954 0.387885 0.938842 0.813812
C24   C     C_R   0.999994 0.612166 0.061174 0.812953
C25   C     C_R   0.612201 0.999897 0.438913 0.813800
C26   C     C_R   0.387759 0.999938 0.561107 0.813205
C27   C     C_R   0.063410 0.202259 0.131202 0.287554
C28   C     C_R   0.935960 0.746957 0.837569 0.272002
C29   C     C_R   0.799686 0.064261 0.629450 0.285428
C30   C     C_R   0.251273 0.937889 0.337859 0.276080
C31   C     C_R   0.935550 0.799493 0.129737 0.285223
C32   C     C_R   0.062210 0.251278 0.838149 0.275933
C33   C     C_R   0.202266 0.936606 0.631369 0.287438
C34   C     C_R   0.746864 0.064112 0.337834 0.271888
C35   C     C_R   0.063423 0.797764 0.868660 0.287303
C36   C     C_R   0.935819 0.252947 0.162088 0.271842
C37   C     C_R   0.797845 0.936737 0.368851 0.287617
C38   C     C_R   0.253104 0.064059 0.662445 0.271926
C39   C     C_R   0.935723 0.200428 0.870465 0.285425
C40   C     C_R   0.062243 0.748930 0.162036 0.275775
C41   C     C_R   0.200420 0.064327 0.370328 0.285248
C42   C     C_R   0.748802 0.937836 0.661825 0.275941
C43   C     C_R   0.063928 0.264468 0.098036 -0.147500
C44   C     C_R   0.936486 0.683164 0.870104 -0.146352
C45   C     C_R   0.737100 0.063692 0.596312 -0.146343
C46   C     C_R   0.315273 0.937791 0.370169 -0.146215
C47   C     C_R   0.936197 0.736995 0.096518 -0.145910
C48   C     C_R   0.062182 0.315378 0.870346 -0.146225
C49   C     C_R   0.264398 0.936154 0.598125 -0.147038
C50   C     C_R   0.682944 0.063413 0.370238 -0.146616
C51   C     C_R   0.063851 0.735619 0.901898 -0.146955
C52   C     C_R   0.936440 0.316840 0.129669 -0.146495
C53   C     C_R   0.735603 0.936157 0.401997 -0.147424
C54   C     C_R   0.316893 0.063510 0.629908 -0.146498
C55   C     C_R   0.936282 0.262985 0.903616 -0.146382
C56   C     C_R   0.062355 0.684932 0.129724 -0.146043
C57   C     C_R   0.262908 0.063665 0.403553 -0.146062
C58   C     C_R   0.684686 0.937846 0.629636 -0.146218
C59   C     C_R   0.000340 0.322539 0.096806 -0.221333
C60   C     C_R   0.000273 0.677538 0.903110 -0.221319
C61   C     C_R   0.678661 0.000448 0.596140 -0.222377
C62   C     C_R   0.321297 0.000367 0.403756 -0.222474
C63   C     C_R   0.999625 0.678734 0.096235 -0.222417
C64   C     C_R   0.999551 0.321395 0.903827 -0.222404
C65   C     C_R   0.322492 0.999720 0.596903 -0.221301
C66   C     C_R   0.677419 0.999636 0.403176 -0.221250
C67   C     C_1   0.998751 0.072730 0.220671 0.101340
C68   C     C_1   0.999237 0.927507 0.779049 0.103744
C69   C     C_1   0.928881 0.000251 0.720108 0.100482
C70   C     C_1   0.070948 0.000721 0.279600 0.102839
C71   C     C_1   0.999252 0.929070 0.220403 0.102787
C72   C     C_1   0.999789 0.071180 0.779872 0.100419
C73   C     C_1   0.072547 0.000790 0.720968 0.103693
C74   C     C_1   0.927269 0.001321 0.279332 0.101518
C75   C     C_R   0.132301 0.267477 0.065110 0.182151
C76   C     C_R   0.203311 0.309374 0.076689 -0.054305
C77   C     C_R   0.268234 0.311549 0.045844 -0.132774
C78   C     C_R   0.263191 0.270485 0.003761 -0.113561
C79   C     C_R   0.193278 0.227079 0.992554 -0.108108
C80   C     C_R   0.127879 0.225809 0.023011 -0.078903
H1    H     H_    0.208144 0.340205 0.109483 0.115572
H2    H     H_    0.322615 0.344575 0.054703 0.123498
H3    H     H_    0.313664 0.271739 0.980018 0.132281
H4    H     H_    0.189854 0.193930 0.960404 0.149905
H5    H     H_    0.074903 0.190669 0.014368 0.127961
C81   C     C_R   0.870579 0.621919 0.868567 0.181743
C82   C     C_R   0.789904 0.644153 0.877105 -0.071026
C83   C     C_R   0.728751 0.585683 0.876625 -0.127349
C84   C     C_R   0.747510 0.504876 0.867209 -0.114983
C85   C     C_R   0.827386 0.482539 0.857988 -0.102904
C86   C     C_R   0.888569 0.540793 0.858600 -0.065170
H6    H     H_    0.774385 0.706523 0.884165 0.133969
H7    H     H_    0.666806 0.603047 0.883534 0.135013
H8    H     H_    0.700165 0.459654 0.866916 0.130054
H9    H     H_    0.842089 0.420140 0.850443 0.130482
H10   H     H_    0.950099 0.522845 0.851872 0.090432
C87   C     C_R   0.734932 0.129157 0.561395 0.190072
C88   C     C_R   0.711545 0.207840 0.573869 -0.070627
C89   C     C_R   0.709129 0.269099 0.540649 -0.129929
C90   C     C_R   0.731025 0.252389 0.495041 -0.104465
C91   C     C_R   0.755457 0.174417 0.482634 -0.091037
C92   C     C_R   0.757046 0.112949 0.515609 -0.064253
H11   H     H_    0.695102 0.221564 0.609151 0.122632
H12   H     H_    0.690567 0.329568 0.550295 0.131828
H13   H     H_    0.729415 0.299896 0.469392 0.131165
H14   H     H_    0.773387 0.161399 0.447539 0.135164
H15   H     H_    0.775701 0.052941 0.505585 0.097819
C93   C     C_R   0.375502 0.871538 0.368204 0.181944
C94   C     C_R   0.359179 0.796840 0.389136 -0.049221
C95   C     C_R   0.416742 0.734918 0.387959 -0.128299
C96   C     C_R   0.490275 0.746824 0.365185 -0.115035
C97   C     C_R   0.505966 0.820412 0.343211 -0.114802
C98   C     C_R   0.448612 0.882477 0.344532 -0.091617
H16   H     H_    0.302079 0.786731 0.406234 0.117562
H17   H     H_    0.404221 0.677653 0.404552 0.124069
H18   H     H_    0.534751 0.698808 0.364206 0.128748
H19   H     H_    0.562347 0.829239 0.324941 0.143615
H20   H     H_    0.460220 0.938224 0.326332 0.124688
C99   C     C_R   0.870614 0.734767 0.061605 0.190097
C100  C     C_R   0.791997 0.711251 0.074066 -0.070572
C101  C     C_R   0.730648 0.708747 0.040836 -0.130134
C102  C     C_R   0.747197 0.730692 0.995232 -0.104428
C103  C     C_R   0.825093 0.755278 0.982843 -0.091023
C104  C     C_R   0.886647 0.756958 0.015828 -0.064330
H21   H     H_    0.778391 0.694781 0.109344 0.122647
H22   H     H_    0.670234 0.690078 0.050472 0.131552
H23   H     H_    0.699625 0.729011 0.969574 0.130912
H24   H     H_    0.837992 0.773265 0.947758 0.134848
H25   H     H_    0.946588 0.775745 0.005817 0.097833
C105  C     C_R   0.128346 0.375712 0.868364 0.182466
C106  C     C_R   0.203243 0.359407 0.889151 -0.048715
C107  C     C_R   0.265071 0.417065 0.887955 -0.128206
C108  C     C_R   0.252868 0.490681 0.865306 -0.115195
C109  C     C_R   0.179077 0.506361 0.843474 -0.114650
C110  C     C_R   0.117111 0.448907 0.844811 -0.091926
H26   H     H_    0.213586 0.302245 0.906148 0.117679
H27   H     H_    0.322493 0.404553 0.904435 0.124279
H28   H     H_    0.300814 0.535228 0.864311 0.128598
H29   H     H_    0.170016 0.562806 0.825298 0.143828
H30   H     H_    0.061203 0.460507 0.826714 0.124225
C111  C     C_R   0.267362 0.867787 0.565132 0.181891
C112  C     C_R   0.309371 0.796837 0.576606 -0.054270
C113  C     C_R   0.311498 0.731895 0.545708 -0.133044
C114  C     C_R   0.270267 0.736860 0.503681 -0.113633
C115  C     C_R   0.226753 0.806719 0.492580 -0.108214
C116  C     C_R   0.225539 0.872143 0.523087 -0.079071
H31   H     H_    0.340335 0.792082 0.609359 0.115904
H32   H     H_    0.344617 0.677561 0.554482 0.123337
H33   H     H_    0.271481 0.686371 0.479897 0.132160
H34   H     H_    0.193488 0.810082 0.460470 0.149902
H35   H     H_    0.190333 0.925090 0.514526 0.128234
C117  C     C_R   0.621459 0.129098 0.368630 0.182089
C118  C     C_R   0.643346 0.209865 0.377248 -0.070274
C119  C     C_R   0.584640 0.270789 0.376731 -0.127507
C120  C     C_R   0.503938 0.251705 0.367210 -0.115117
C121  C     C_R   0.481939 0.171732 0.357923 -0.102693
C122  C     C_R   0.540433 0.110778 0.358566 -0.065913
H36   H     H_    0.705626 0.225628 0.384409 0.134013
H37   H     H_    0.601737 0.332807 0.383698 0.135157
H38   H     H_    0.458532 0.298873 0.366894 0.129919
H39   H     H_    0.419613 0.156781 0.350316 0.130895
H40   H     H_    0.522749 0.049164 0.351797 0.090486
C123  C     C_R   0.132168 0.732643 0.934923 0.182484
C124  C     C_R   0.203310 0.690981 0.923384 -0.054586
C125  C     C_R   0.268171 0.688805 0.954339 -0.132948
C126  C     C_R   0.262914 0.729616 0.996497 -0.112845
C127  C     C_R   0.192861 0.772797 0.007661 -0.107746
C128  C     C_R   0.127536 0.774076 0.977090 -0.078962
H41   H     H_    0.208285 0.660337 0.890536 0.115871
H42   H     H_    0.322668 0.655976 0.945507 0.123393
H43   H     H_    0.313338 0.728364 0.020325 0.131813
H44   H     H_    0.189280 0.805802 0.039853 0.149248
H45   H     H_    0.074451 0.809049 0.985700 0.127637
C129  C     C_R   0.870487 0.378055 0.131173 0.181941
C130  C     C_R   0.789838 0.355827 0.122464 -0.070368
C131  C     C_R   0.728654 0.414266 0.122923 -0.127448
C132  C     C_R   0.747351 0.495037 0.132498 -0.115387
C133  C     C_R   0.827193 0.517363 0.141902 -0.102710
C134  C     C_R   0.888404 0.459137 0.141306 -0.065181
H46   H     H_    0.774357 0.293482 0.115299 0.134033
H47   H     H_    0.666732 0.396904 0.115882 0.135144
H48   H     H_    0.699983 0.540237 0.132780 0.129889
H49   H     H_    0.841849 0.579728 0.149582 0.130726
H50   H     H_    0.949895 0.477068 0.148191 0.090499
C135  C     C_R   0.732564 0.867739 0.434888 0.181987
C136  C     C_R   0.690574 0.796808 0.423270 -0.054401
C137  C     C_R   0.688334 0.731831 0.454076 -0.132910
C138  C     C_R   0.729416 0.736750 0.496159 -0.113561
C139  C     C_R   0.772906 0.806591 0.507405 -0.108182
C140  C     C_R   0.774244 0.872043 0.476987 -0.078840
H51   H     H_    0.659706 0.792096 0.390479 0.115912
H52   H     H_    0.655236 0.677510 0.445189 0.123455
H53   H     H_    0.728107 0.686238 0.519874 0.132266
H54   H     H_    0.806060 0.809916 0.539557 0.149929
H55   H     H_    0.809434 0.924971 0.485663 0.128231
C141  C     C_R   0.378149 0.129407 0.631430 0.181819
C142  C     C_R   0.355918 0.210074 0.622882 -0.070960
C143  C     C_R   0.414397 0.271219 0.623336 -0.127382
C144  C     C_R   0.495212 0.252456 0.632732 -0.114969
C145  C     C_R   0.517550 0.172586 0.641958 -0.102821
C146  C     C_R   0.459284 0.111411 0.641376 -0.065186
H56   H     H_    0.293543 0.225590 0.615826 0.133920
H57   H     H_    0.397035 0.333159 0.616421 0.135026
H58   H     H_    0.540442 0.299794 0.633003 0.130041
H59   H     H_    0.579959 0.157882 0.649479 0.130474
H60   H     H_    0.477233 0.049882 0.648103 0.090411
C147  C     C_R   0.870813 0.265104 0.938527 0.190096
C148  C     C_R   0.792151 0.288609 0.926079 -0.070521
C149  C     C_R   0.730872 0.290879 0.959292 -0.129860
C150  C     C_R   0.747541 0.268702 0.004862 -0.104356
C151  C     C_R   0.825493 0.244147 0.017237 -0.091289
C152  C     C_R   0.886982 0.242724 0.984274 -0.064468
H61   H     H_    0.778451 0.305229 0.890821 0.122487
H62   H     H_    0.670417 0.309527 0.949667 0.131772
H63   H     H_    0.700013 0.270176 0.030502 0.131132
H64   H     H_    0.838484 0.225967 0.052293 0.135197
H65   H     H_    0.946964 0.223942 0.994270 0.097998
C153  C     C_R   0.128754 0.624850 0.131619 0.182849
C154  C     C_R   0.203846 0.641913 0.111308 -0.049969
C155  C     C_R   0.265941 0.584533 0.112477 -0.128189
C156  C     C_R   0.253792 0.510424 0.134620 -0.114798
C157  C     C_R   0.179806 0.494000 0.156006 -0.114538
C158  C     C_R   0.117587 0.551176 0.154696 -0.090791
H66   H     H_    0.214174 0.699479 0.094743 0.117768
H67   H     H_    0.323537 0.597654 0.096387 0.124523
H68   H     H_    0.301934 0.466085 0.135592 0.128762
H69   H     H_    0.170792 0.437208 0.173838 0.142841
H70   H     H_    0.061544 0.539002 0.172476 0.123141
C159  C     C_R   0.265022 0.129110 0.438546 0.190116
C160  C     C_R   0.288454 0.207794 0.426181 -0.070483
C161  C     C_R   0.290838 0.269029 0.459479 -0.130052
C162  C     C_R   0.268876 0.252291 0.505057 -0.104270
C163  C     C_R   0.244410 0.174316 0.517356 -0.091053
C164  C     C_R   0.242844 0.112873 0.484301 -0.064524
H71   H     H_    0.304964 0.221533 0.390925 0.122604
H72   H     H_    0.309432 0.329499 0.449917 0.131627
H73   H     H_    0.270464 0.299779 0.530766 0.130937
H74   H     H_    0.226437 0.161273 0.552426 0.134989
H75   H     H_    0.224164 0.052859 0.494241 0.097850
C165  C     C_R   0.624344 0.871696 0.631652 0.182375
C166  C     C_R   0.640617 0.796789 0.610869 -0.048666
C167  C     C_R   0.582991 0.734937 0.612143 -0.128227
C168  C     C_R   0.509439 0.747129 0.634863 -0.115394
C169  C     C_R   0.493787 0.820939 0.656681 -0.114789
C170  C     C_R   0.551207 0.882930 0.655266 -0.091907
H76   H     H_    0.697737 0.786451 0.593823 0.117663
H77   H     H_    0.595481 0.677503 0.595672 0.124294
H78   H     H_    0.464918 0.699164 0.635920 0.128735
H79   H     H_    0.437389 0.829994 0.674908 0.143955
H80   H     H_    0.539636 0.938850 0.673357 0.124299
N1    N     N_R   0.128676 0.144774 0.133045 0.126380
O17   O     O_R   0.143551 0.098031 0.097942 -0.331730
O18   O     O_R   0.170447 0.135981 0.170773 -0.334054
N2    N     N_R   0.871549 0.753447 0.804425 0.138376
O19   O     O_R   0.854995 0.693293 0.777022 -0.290619
O20   O     O_R   0.829434 0.819732 0.801500 -0.290759
N3    N     N_R   0.858966 0.128036 0.629471 0.123832
O21   O     O_R   0.900757 0.143447 0.592494 -0.324376
O22   O     O_R   0.872857 0.169411 0.666853 -0.338138
N4    N     N_R   0.243141 0.872708 0.305295 0.143742
O23   O     O_R   0.302039 0.855114 0.277293 -0.291432
O24   O     O_R   0.176510 0.830931 0.303487 -0.288170
N5    N     N_R   0.871576 0.858558 0.129815 0.123553
O25   O     O_R   0.855962 0.900460 0.092890 -0.324482
O26   O     O_R   0.830225 0.872147 0.167199 -0.337120
N6    N     N_R   0.127479 0.243043 0.805719 0.143542
O27   O     O_R   0.145104 0.301824 0.777661 -0.292316
O28   O     O_R   0.169511 0.176552 0.804221 -0.288077
N7    N     N_R   0.144792 0.871336 0.633143 0.126152
O29   O     O_R   0.097894 0.856601 0.598072 -0.331793
O30   O     O_R   0.136168 0.829415 0.670786 -0.333017
N8    N     N_R   0.753409 0.128574 0.304796 0.138245
O31   O     O_R   0.693427 0.144954 0.277252 -0.291496
O32   O     O_R   0.819504 0.171048 0.302199 -0.290741
N9    N     N_R   0.128691 0.855251 0.866915 0.126108
O33   O     O_R   0.143665 0.901840 0.902089 -0.331686
O34   O     O_R   0.170489 0.864086 0.829242 -0.333120
N10   N     N_R   0.871266 0.246249 0.195060 0.138247
O35   O     O_R   0.854650 0.306196 0.222581 -0.291380
O36   O     O_R   0.828923 0.180064 0.197606 -0.290898
N11   N     N_R   0.855457 0.871579 0.367067 0.126399
O37   O     O_R   0.902210 0.856872 0.402190 -0.331829
O38   O     O_R   0.864329 0.829721 0.329377 -0.334071
N12   N     N_R   0.246629 0.128477 0.695583 0.138396
O39   O     O_R   0.306799 0.145042 0.722974 -0.290625
O40   O     O_R   0.180342 0.170590 0.698513 -0.290778
N13   N     N_R   0.871913 0.141184 0.870403 0.123841
O41   O     O_R   0.856478 0.099325 0.907351 -0.324465
O42   O     O_R   0.830552 0.127376 0.833006 -0.338110
N14   N     N_R   0.127479 0.757136 0.194562 0.143499
O43   O     O_R   0.145390 0.698141 0.222433 -0.291147
O44   O     O_R   0.169072 0.823877 0.196417 -0.288452
N15   N     N_R   0.141224 0.128178 0.370329 0.123583
O45   O     O_R   0.099307 0.143583 0.407276 -0.324389
O46   O     O_R   0.127537 0.169633 0.332993 -0.337112
N16   N     N_R   0.757032 0.872601 0.694277 0.143534
O47   O     O_R   0.698273 0.855052 0.722366 -0.292290
O48   O     O_R   0.823504 0.830537 0.695771 -0.288047

loop_
_geom_bond_atom_site_label_1
_geom_bond_atom_site_label_2
_geom_bond_distance
_ccdc_geom_bond_type
C117  C122  1.403579 A    
C169  H79   1.082379 S    
C82   H6    1.081895 S    
C33   C49   1.409077 A    
C125  H42   1.082517 S    
N11   O37   1.300840 A    
C52   C59   1.426274 A    
C40   N14   1.438184 S    
C81   C82   1.405464 A    
C10   C72   1.462115 S    
C122  H40   1.077486 S    
O5    Cu2   1.930280 S    
C142  H56   1.081903 S    
C83   C84   1.398100 A    
N2    O19   1.301168 A    
C149  H62   1.082261 S    
C85   C86   1.396649 A    
C16   C32   1.405630 A    
C153  C154  1.403142 A    
C163  H74   1.081344 S    
C154  C155  1.398067 A    
C36   C52   1.414475 A    
C156  H68   1.082307 S    
C151  H64   1.081353 S    
C10   C73   1.463537 S    
O5    C23   1.296542 A    
O6    C24   1.296266 A    
C45   C87   1.482885 S    
C56   C63   1.423502 A    
C148  C149  1.398672 A    
N14   O44   1.301079 A    
C51   C123  1.480709 S    
C161  C162  1.398426 A    
C100  C101  1.398699 A    
C90   H13   1.082295 S    
C97   H19   1.082357 S    
C40   C56   1.412428 A    
C8    C18   1.443444 S    
N16   O47   1.300974 A    
C83   H7    1.082290 S    
C170  H80   1.079600 S    
Cu3   Cu4   2.671476 S    
C46   C62   1.423412 A    
C147  C148  1.404117 A    
C34   C50   1.414522 A    
C33   N7    1.438685 S    
C109  C110  1.397517 A    
O4    Cu4   1.930484 S    
C18   C34   1.405946 A    
C155  H67   1.082651 S    
N10   O35   1.301176 A    
C107  H27   1.082315 S    
C1    C67   1.204412 T    
O15   C22   1.296560 A    
C131  C132  1.398095 A    
C100  H21   1.082367 S    
C99   C100  1.404170 A    
C44   C81   1.487926 S    
C36   N10   1.437600 S    
C19   C60   1.497706 S    
N8    O32   1.301044 A    
C95   C96   1.397825 A    
C166  H76   1.079663 S    
C123  C128  1.402826 A    
N6    O28   1.301083 A    
C161  H72   1.082264 S    
C164  H75   1.078583 S    
C21   C62   1.497220 S    
C55   C147  1.482793 S    
C46   C93   1.481247 S    
O1    C19   1.297983 A    
C130  C131  1.398737 A    
O2    C20   1.295336 A    
O3    Cu3   1.930487 S    
C78   C79   1.398233 A    
C14   C41   1.405890 A    
O11   C26   1.298027 A    
C16   C39   1.405525 A    
C126  C127  1.398426 A    
O13   C24   1.297146 A    
C35   C51   1.409151 A    
N1    O17   1.300829 A    
O14   C23   1.295936 A    
C28   N2    1.437622 S    
C47   C63   1.423749 A    
C138  H53   1.082328 S    
C24   C63   1.497380 S    
C93   C94   1.402678 A    
C39   N13   1.439395 S    
C77   C78   1.397995 A    
C125  C126  1.398230 A    
C143  H57   1.082276 S    
N9    O34   1.301189 A    
C13   C29   1.405584 A    
O6    Cu1   1.930277 S    
C5    C15   1.445724 S    
C159  C160  1.404124 A    
C6    C16   1.443888 S    
C57   C62   1.423603 A    
N16   O48   1.301085 A    
C32   N6    1.438088 S    
C166  C167  1.398025 A    
C55   C64   1.423472 A    
N15   O46   1.301209 A    
C140  H55   1.080078 S    
C30   N4    1.438138 S    
C126  H43   1.082303 S    
C124  C125  1.398024 A    
C156  C157  1.398434 A    
C37   C53   1.408477 A    
C92   H15   1.078550 S    
C119  C120  1.398086 A    
O15   Cu3   1.930230 S    
C144  H58   1.082356 S    
C79   C80   1.396609 A    
C41   C57   1.411775 A    
C169  C170  1.397509 A    
C82   C83   1.398718 A    
C47   C99   1.482925 S    
C35   N9    1.438754 S    
N12   O40   1.301030 A    
C118  C119  1.398710 A    
N3    O21   1.301172 A    
C22   C61   1.495513 S    
C145  C146  1.396669 A    
N7    O29   1.300824 A    
C81   C86   1.403568 A    
C103  H24   1.081330 S    
C1    C11   1.443375 S    
C2    C12   1.445354 S    
N4    O23   1.300962 A    
C96   H18   1.082333 S    
C167  H77   1.082355 S    
C142  C143  1.398715 A    
C153  C158  1.402358 A    
C2    C68   1.205589 T    
C7    C73   1.205534 T    
C87   C92   1.402622 A    
C29   N3    1.439396 S    
C139  C140  1.396620 A    
C127  H44   1.082272 S    
C20   C59   1.495962 S    
C132  H48   1.082374 S    
C31   C47   1.411802 A    
C148  H61   1.082368 S    
C84   H8    1.082352 S    
C128  H45   1.080179 S    
C158  H70   1.079597 S    
C105  C110  1.402158 A    
C152  H65   1.078518 S    
C49   C65   1.424061 A    
C90   C91   1.397640 A    
C38   C54   1.415437 A    
C94   C95   1.398038 A    
C11   C27   1.402977 A    
C53   C135  1.480839 S    
C121  C122  1.396682 A    
C102  H23   1.082314 S    
C42   C58   1.411479 A    
C15   C31   1.405888 A    
C165  C166  1.402773 A    
C167  C168  1.397842 A    
C113  H32   1.082293 S    
C109  H29   1.082370 S    
C87   C88   1.404129 A    
O4    C22   1.295960 A    
C118  H36   1.081887 S    
C155  C156  1.398180 A    
C79   H4    1.082198 S    
N2    O20   1.301030 A    
C54   C65   1.426322 A    
C132  C133  1.397048 A    
O8    C26   1.295569 A    
C48   C105  1.481426 S    
C27   N1    1.438717 S    
C9    C74   1.461632 S    
C52   C129  1.488165 S    
C107  C108  1.397845 A    
N5    O25   1.301179 A    
C6    C72   1.204763 T    
C105  C106  1.402736 A    
C162  C163  1.397648 A    
C131  H47   1.082292 S    
O16   C21   1.296282 A    
C38   N12   1.437618 S    
C17   C38   1.406329 A    
Cu1   Cu2   2.671385 S    
C111  C112  1.403171 A    
C168  C169  1.398131 A    
C114  C115  1.398176 A    
C27   C43   1.408496 A    
C28   C44   1.415455 A    
C78   H3    1.082328 S    
C43   C75   1.480915 S    
C9    C67   1.461547 S    
C56   C153  1.481319 S    
O12   Cu3   1.932211 S    
C50   C117  1.488058 S    
C141  C146  1.403568 A    
C34   N8    1.437567 S    
C12   C28   1.406361 A    
C113  C114  1.397957 A    
C138  C139  1.398230 A    
C106  C107  1.398034 A    
C86   H10   1.077454 S    
C77   H2    1.082365 S    
C26   C65   1.497640 S    
C41   N15   1.439365 S    
C129  C130  1.405498 A    
C14   C30   1.406003 A    
C98   H20   1.079606 S    
C76   H1    1.081173 S    
C44   C60   1.426309 A    
C168  H78   1.082327 S    
N10   O36   1.301059 A    
C37   N11   1.438714 S    
C162  H73   1.082305 S    
N11   O38   1.301168 A    
C121  H39   1.082009 S    
N13   O41   1.301176 A    
C48   C64   1.423214 A    
C159  C164  1.402616 A    
C144  C145  1.397042 A    
C11   C36   1.405874 A    
C4    C14   1.445709 S    
C160  C161  1.398668 A    
C135  C136  1.403253 A    
C146  H60   1.077458 S    
O9    C20   1.297378 A    
C137  C138  1.398006 A    
O10   C19   1.295589 A    
C15   C40   1.405998 A    
O11   Cu4   1.932210 S    
C45   C61   1.423505 A    
C157  C158  1.397389 A    
C9    C70   1.464013 S    
C150  H63   1.082307 S    
C106  H26   1.079651 S    
C91   C92   1.395980 A    
C120  H38   1.082348 S    
C101  H22   1.082281 S    
C95   H17   1.082312 S    
C57   C159  1.482824 S    
O8    Cu3   1.931951 S    
C96   C97   1.398082 A    
C3    C13   1.443933 S    
O7    C25   1.297475 A    
N9    O33   1.300909 A    
C112  C113  1.398023 A    
C5    C71   1.205846 T    
C115  H34   1.082174 S    
N14   O43   1.300995 A    
C75   C80   1.402704 A    
C49   C111  1.480773 S    
C89   C90   1.398420 A    
C139  H54   1.082189 S    
C103  C104  1.395948 A    
C127  C128  1.396524 A    
C84   C85   1.397063 A    
C58   C61   1.423186 A    
N15   O45   1.301171 A    
C163  C164  1.395989 A    
C25   C66   1.495877 S    
C88   H11   1.082379 S    
C150  C151  1.397656 A    
C94   H16   1.079612 S    
C10   C68   1.463634 S    
C133  H49   1.081993 S    
O9    Cu1   1.931965 S    
C102  C103  1.397653 A    
O10   Cu2   1.931966 S    
C165  C170  1.402166 A    
C93   C98   1.402145 A    
C85   H9    1.081978 S    
C115  C116  1.396637 A    
N5    O26   1.301215 A    
C75   C76   1.403285 A    
C123  C124  1.403417 A    
C43   C59   1.423999 A    
C89   H12   1.082263 S    
C10   C69   1.462158 S    
C80   H5    1.080061 S    
C149  C150  1.398442 A    
C29   C45   1.411211 A    
C135  C140  1.402691 A    
N8    O31   1.301166 A    
N4    O24   1.301072 A    
N6    O27   1.300975 A    
C108  H28   1.082325 S    
C88   C89   1.398656 A    
C136  H51   1.081251 S    
C120  C121  1.397059 A    
C97   C98   1.397527 A    
C136  C137  1.398018 A    
C18   C37   1.403000 A    
C154  H66   1.079965 S    
C111  C116  1.402631 A    
C32   C48   1.411502 A    
C147  C152  1.402574 A    
C116  H35   1.080072 S    
C23   C64   1.495529 S    
C31   N5    1.439369 S    
C114  H33   1.082335 S    
C51   C60   1.424043 A    
C12   C35   1.403371 A    
C17   C33   1.403277 A    
C9    C71   1.464021 S    
C141  C142  1.405432 A    
O13   Cu2   1.930537 S    
O14   Cu1   1.930540 S    
C7    C17   1.445259 S    
C4    C70   1.205836 T    
N13   O42   1.301207 A    
C104  H25   1.078513 S    
C3    C69   1.204789 T    
C8    C74   1.204460 T    
C99   C104  1.402625 A    
C129  C134  1.403500 A    
C76   C77   1.398030 A    
C30   C46   1.412393 A    
C133  C134  1.396667 A    
N12   O39   1.301161 A    
N3    O22   1.301209 A    
C137  H52   1.082354 S    
C50   C66   1.426070 A    
C39   C55   1.411149 A    
C117  C118  1.405460 A    
O1    Cu1   1.932230 S    
C130  H46   1.081849 S    
O2    Cu2   1.932229 S    
C160  H71   1.082395 S    
N1    O18   1.301158 A    
C13   C42   1.405605 A    
O3    C21   1.297094 A    
C58   C165  1.481399 S    
C54   C141  1.487921 S    
C110  H30   1.079558 S    
O12   C25   1.295227 A    
C157  H69   1.082541 S    
C91   H14   1.081350 S    
C101  C102  1.398456 A    
C143  C144  1.398085 A    
C134  H50   1.077267 S    
N7    O30   1.301159 A    
O7    Cu4   1.931952 S    
C145  H59   1.081969 S    
C53   C66   1.423899 A    
C112  H31   1.081176 S    
C42   N16   1.438092 S    
C151  C152  1.395931 A    
C124  H41   1.081415 S    
C108  C109  1.398085 A    
C119  H37   1.082285 S    
O16   Cu4   1.930233 S    
