data_mof_unit_13315.cif
_audit_creation_date              2012-10-26T20:57:24-0400
_audit_creation_method            fapswitch 2.2
_symmetry_space_group_name_H-M    P1
_symmetry_Int_Tables_number       1
_space_group_crystal_system       triclinic
_cell_length_a                    14.710981
_cell_length_b                    14.572127
_cell_length_c                    15.847469
_cell_angle_alpha                 76.966547
_cell_angle_beta                  102.422506
_cell_angle_gamma                 114.522389
_cell_volume                      2982.73797429

loop_
_atom_site_label
_atom_site_type_symbol
_atom_type_description
_atom_site_fract_x
_atom_site_fract_y
_atom_site_fract_z
_atom_type_partial_charge
C1    C     C_R   0.880686 0.311635 0.513247 0.557269
C2    C     C_R   0.360846 0.920535 0.501039 0.023374
C3    C     C_R   0.675379 0.001260 0.507971 0.023053
C4    C     C_R   0.326310 0.992604 0.514992 0.023107
C5    C     C_R   0.535386 0.047496 0.517639 0.040203
C6    C     C_R   0.466395 0.946706 0.504961 0.039890
C7    C     C_R   0.505434 0.874896 0.498592 -0.134072
C8    C     C_R   0.497070 0.116677 0.531501 -0.132666
C9    C     C_R   0.607785 0.901878 0.500397 -0.136320
C10   C     C_R   0.394742 0.089388 0.530317 -0.135220
C11   C     C_R   0.714444 0.667508 0.353572 -0.166450
C12   C     C_R   0.119247 0.688261 0.487299 0.556955
C13   C     C_R   0.286202 0.333554 0.647366 -0.166644
C14   C     C_R   0.795825 0.637457 0.376364 0.045095
C15   C     C_R   0.204553 0.363190 0.624162 0.046304
C16   C     C_R   0.999449 0.500099 0.660024 0.548706
C17   C     C_R   0.000560 0.499916 0.339973 0.548063
C18   C     C_R   0.715457 0.510001 0.489113 0.040591
C19   C     C_R   0.284598 0.490041 0.510953 0.039990
C20   C     C_R   0.629054 0.535625 0.468181 0.003743
C21   C     C_R   0.371405 0.465072 0.532482 0.003885
C22   C     C_R   0.631097 0.617283 0.399352 0.038818
C23   C     C_R   0.777921 0.027171 0.506030 -0.125801
C24   C     C_R   0.369569 0.383768 0.601619 0.039568
C25   C     C_R   0.541850 0.484232 0.512831 0.024947
C26   C     C_R   0.458784 0.516732 0.488086 0.023910
C27   C     C_R   0.466212 0.600086 0.420273 -0.145129
C28   C     C_R   0.534697 0.401319 0.581055 -0.143425
C29   C     C_R   0.550369 0.648708 0.376764 -0.134367
C30   C     C_R   0.450589 0.352789 0.624628 -0.135514
C31   C     C_3   0.978065 0.404449 0.043173 -0.099864
C32   C     C_3   0.021980 0.595654 0.956806 -0.099909
C33   C     C_3   0.908054 0.438959 0.966774 -0.100392
C34   C     C_R   0.223339 0.967031 0.514714 -0.125898
C35   C     C_3   0.091991 0.561144 0.033206 -0.100309
C36   C     C_1   0.998464 0.500412 0.749565 -0.033118
C37   C     C_1   0.001563 0.499640 0.250426 -0.033301
C38   C     C_3   0.069108 0.465785 0.991964 -0.099451
C39   C     C_3   0.930937 0.534317 0.008017 -0.099570
C40   C     C_3   0.999100 0.500294 0.917107 0.051854
C41   C     C_3   0.000945 0.499808 0.082874 0.051866
C42   C     C_1   0.998413 0.500457 0.825185 -0.063265
C43   C     C_1   0.001625 0.499624 0.174801 -0.063220
C44   C     C_R   0.813886 0.202573 0.517096 0.018772
C45   C     C_R   0.847739 0.127028 0.510938 0.125908
C46   C     C_R   0.185948 0.796642 0.488225 0.019482
C47   C     C_3   0.994219 0.875011 0.427181 -0.295577
C48   C     C_3   0.006936 0.122726 0.585195 -0.297253
C49   C     C_R   0.152709 0.869432 0.502020 0.126081
C50   C     C_R   0.711588 0.175515 0.521090 -0.169051
C51   C     C_R   0.288291 0.824357 0.484382 -0.166062
C52   C     C_R   0.640410 0.075333 0.516600 0.022574
Cu1   Cu    Cu3+1 0.081740 0.475690 0.522610 0.946323
Cu2   Cu    Cu3+1 0.918260 0.524310 0.477390 0.945375
H1    H     H_    0.832547 0.388857 0.938119 0.104404
H2    H     H_    0.369001 0.144746 0.541793 0.112735
H3    H     H_    0.309089 0.768180 0.468838 0.112823
H4    H     H_    0.689141 0.235605 0.525035 0.118198
H5    H     H_    0.804016 0.969937 0.499378 0.100149
H6    H     H_    0.197570 0.022458 0.526026 0.099218
H7    H     H_    0.459469 0.796022 0.493637 0.104638
H8    H     H_    0.543949 0.192442 0.545512 0.099571
H9    H     H_    0.552328 0.712019 0.324806 0.106762
H10   H     H_    0.448864 0.289841 0.676916 0.104743
H11   H     H_    0.278076 0.548743 0.457934 0.115387
H12   H     H_    0.167498 0.611246 0.061860 0.104437
H13   H     H_    0.721722 0.450807 0.541713 0.115278
H14   H     H_    0.140339 0.324810 0.659599 0.120007
H15   H     H_    0.860195 0.676129 0.341112 0.119262
H16   H     H_    0.408079 0.630235 0.399116 0.088022
H17   H     H_    0.593144 0.371649 0.602695 0.086583
H18   H     H_    0.039797 0.868102 0.560198 0.237861
H19   H     H_    0.023420 0.959668 0.411250 0.121263
H20   H     H_    0.913263 0.846140 0.434857 0.137245
H21   H     H_    0.000753 0.843002 0.372451 0.153576
H22   H     H_    0.958970 0.125246 0.452731 0.238336
H23   H     H_    0.716759 0.729833 0.300551 0.085412
H24   H     H_    0.977673 0.038290 0.603250 0.120844
H25   H     H_    0.001712 0.157109 0.638919 0.152541
H26   H     H_    0.087471 0.150607 0.576563 0.136437
H27   H     H_    0.284124 0.271637 0.700741 0.084482
H28   H     H_    0.960104 0.325985 0.080007 0.104815
H29   H     H_    0.039940 0.674117 0.919969 0.104641
H30   H     H_    0.874237 0.562450 0.015998 0.105959
H31   H     H_    0.125807 0.437653 0.983980 0.105990
H32   H     H_    0.634101 0.844386 0.494831 0.114311
N1    N     N_R   0.795440 0.560790 0.443380 -0.226523
N2    N     N_R   0.204560 0.439210 0.556620 -0.226577
N3    N     N_2   0.049624 0.844042 0.507589 -0.485786
N4    N     N_2   0.950434 0.151584 0.504572 -0.485566
O1    O     O_R   0.977900 0.338120 0.529810 -0.464946
O2    O     O_R   0.022100 0.661880 0.470190 -0.467156
O3    O     O_R   0.839850 0.379180 0.491620 -0.520190
O4    O     O_R   0.160150 0.620820 0.508380 -0.518920
O5    O     O_R   0.069010 0.479460 0.640020 -0.500938
O6    O     O_R   0.930990 0.520540 0.359980 -0.500527
O7    O     O_R   0.930960 0.520530 0.601820 -0.495971
O8    O     O_R   0.069040 0.479470 0.398180 -0.496686

loop_
_geom_bond_atom_site_label_1
_geom_bond_atom_site_label_2
_ccdc_geom_bond_type
C33   H1    S    
C21   C26   A    
C29   H9    S    
C23   C45   A    
C22   C29   A    
C30   H10   S    
C27   C29   A    
C47   N3    S    
C36   C42   T    
C39   C41   S    
Cu1   Cu2   S    
C25   C28   A    
C23   H5    S    
C46   C49   A    
C26   C27   A    
C33   C39   S    
C31   H28   S    
C48   H25   S    
C19   C21   A    
C14   N1    A    
Cu2   N1    S    
C11   C14   A    
C16   O7    A    
Cu1   O5    S    
C20   C25   A    
C13   H27   S    
C32   C39   S    
C48   H24   S    
C7    H7    S    
Cu2   O3    S    
C11   H23   S    
C3    C23   A    
C16   O5    A    
Cu1   O1    S    
C50   C52   A    
C31   C33   S    
C5    C52   A    
C51   H3    S    
C10   H2    S    
C17   O8    A    
Cu2   O6    S    
C40   C42   S    
C1    O1    A    
C48   N4    S    
C34   H6    S    
C41   C43   S    
C12   O4    A    
C2    C6    A    
C4    C34   A    
C33   C40   S    
C38   H31   S    
C50   H4    S    
C32   C35   S    
C35   C38   S    
C47   H19   S    
C12   C46   S    
C19   N2    A    
C35   H12   S    
C18   H13   S    
C46   C51   A    
C13   C24   A    
C37   C43   T    
C2    C4    A    
Cu2   O2    S    
C3    C9    A    
C9    H32   S    
C1    C44   S    
Cu2   O7    S    
C17   O6    A    
C17   C37   S    
C45   N4    S    
C27   H16   S    
C8    C10   A    
C20   C22   A    
C13   C15   A    
C14   H15   S    
C28   H17   S    
C4    C10   A    
C44   C45   A    
C44   C50   A    
C7    C9    A    
C32   H29   S    
C34   C49   A    
C31   C41   S    
Cu1   O4    S    
C12   O2    A    
C47   H20   S    
C49   N3    S    
C39   H30   S    
C5    C8    A    
C3    C52   A    
C6    C7    A    
Cu1   O8    S    
C11   C22   A    
C18   N1    A    
C31   C38   S    
C48   H26   S    
C28   C30   A    
C25   C26   A    
C47   H21   S    
C16   C36   S    
C38   C40   S    
H18   N3    S    
C5    C6    A    
C15   H14   S    
C19   H11   S    
Cu1   N2    S    
C18   C20   A    
C32   C40   S    
C35   C41   S    
C24   C30   A    
C2    C51   A    
C1    O3    A    
C21   C24   A    
C8    H8    S    
H22   N4    S    
C15   N2    A    
