data_mof_unit_27477.cif
_audit_creation_date              2012-12-11T16:43:11-0500
_audit_creation_method            fapswitch 2.2
_symmetry_space_group_name_H-M    P1
_symmetry_Int_Tables_number       1
_space_group_crystal_system       triclinic
_cell_length_a                    6.927715
_cell_length_b                    23.269995
_cell_length_c                    25.829048
_cell_angle_alpha                 104.797648
_cell_angle_beta                  90.058461
_cell_angle_gamma                 90.673451
_cell_volume                      4025.43483485

loop_
_atom_site_label
_atom_site_type_symbol
_atom_type_description
_atom_site_fract_x
_atom_site_fract_y
_atom_site_fract_z
_atom_type_partial_charge
O1    O     O_R   0.505750 0.453350 0.547660 -0.544181
O2    O     O_R   0.170990 0.432220 0.437590 -0.539064
O3    O     O_R   0.005600 0.546650 0.452340 -0.545632
C1    C     C_R   0.339815 0.415147 0.417620 0.706898
O4    O     O_R   0.175720 0.446240 0.546340 -0.514798
O5    O     O_R   0.010370 0.560770 0.561860 -0.539757
C2    C     C_R   0.344131 0.433705 0.562545 0.721166
O6    O     O_R   0.500990 0.439230 0.438140 -0.541108
O7    O     O_3   0.340820 0.537560 0.504970 -0.373939
V1    V     V_3+5 0.064050 0.493030 0.499080 1.425971
O8    O     O_R   0.680940 0.567780 0.562410 -0.543994
C3    C     C_R   0.850766 0.584313 0.582630 0.710700
O9    O     O_R   0.676210 0.553760 0.453660 -0.539328
C4    C     C_R   0.846195 0.566752 0.437914 0.690468
V2    V     V_3+5 0.564640 0.506970 0.500920 1.405105
O10   O     O_3   0.837740 0.462440 0.495030 -0.358637
C5    C     C_R   0.772776 0.869913 0.109583 -0.161832
H1    H     H_    0.643220 0.877640 0.088968 0.123103
C6    C     C_R   0.759618 0.833833 0.145289 -0.144126
H2    H     H_    0.620740 0.814292 0.150491 0.101071
C7    C     C_R   0.923655 0.822476 0.173158 0.095604
C8    C     C_R   0.101738 0.847843 0.163741 -0.140218
H3    H     H_    0.230767 0.841185 0.185046 0.099396
C9    C     C_R   0.115292 0.883354 0.127500 -0.162515
H4    H     H_    0.254373 0.902394 0.121564 0.118710
C10   C     C_R   0.950754 0.895106 0.100182 -0.054303
C11   C     C_R   0.062516 0.747870 0.218333 -0.151085
C12   C     C_R   0.050230 0.713137 0.255167 -0.154100
H5    H     H_    0.170766 0.685203 0.258862 0.105298
C13   C     C_R   0.883467 0.713649 0.286252 0.095210
C14   C     C_R   0.728756 0.749573 0.279438 -0.144609
C15   C     C_R   0.741703 0.784838 0.242974 -0.153879
H6    H     H_    0.621635 0.813179 0.239991 0.106369
C16   C     C_R   0.908981 0.784580 0.211892 0.083940
C17   C     C_R   0.704723 0.645266 0.331602 -0.137426
H7    H     H_    0.579449 0.646305 0.306749 0.112815
C18   C     C_R   0.698010 0.610054 0.368155 -0.171329
H8    H     H_    0.567429 0.584778 0.370279 0.130306
C19   C     C_R   0.858583 0.606153 0.400519 -0.106075
C20   C     C_R   0.027543 0.639887 0.395819 0.185687
C21   C     C_R   0.032534 0.674604 0.358786 -0.112289
C22   C     C_R   0.872884 0.677383 0.326080 0.027392
C23   C     C_R   0.023781 0.637329 0.666686 -0.217018
C24   C     C_R   0.864632 0.633482 0.632099 -0.097522
C25   C     C_R   0.720239 0.676706 0.644868 -0.199519
C26   C     C_R   0.733090 0.723773 0.691721 0.074846
C27   C     C_R   0.893523 0.726697 0.726405 0.007191
C28   C     C_R   0.038749 0.683290 0.713755 0.098645
C29   C     C_R   0.590574 0.768267 0.704480 0.205849
C30   C     C_R   0.606967 0.813629 0.752291 -0.220925
C31   C     C_R   0.765251 0.816480 0.786763 0.052138
C32   C     C_R   0.910427 0.773395 0.773551 0.047106
C33   C     C_R   0.073236 0.777145 0.807373 0.107705
C34   C     C_R   0.216178 0.733707 0.794215 -0.179873
C35   C     C_R   0.198330 0.686948 0.748073 -0.200258
C36   C     C_R   0.781665 0.862312 0.833994 -0.196212
C37   C     C_R   0.943934 0.866696 0.867740 -0.086175
C38   C     C_R   0.090149 0.824157 0.853816 -0.224900
H9    H     H_    0.135786 0.604154 0.657165 0.122962
H10   H     H_    0.599514 0.673752 0.617625 0.154086
H11   H     H_    0.496747 0.847314 0.762310 0.129084
H12   H     H_    0.669151 0.895272 0.844051 0.124892
H13   H     H_    0.215394 0.827020 0.879599 0.127366
H14   H     H_    0.342107 0.735917 0.819604 0.130074
H15   H     H_    0.311277 0.654117 0.738714 0.127430
C39   C     C_R   0.288707 0.170342 0.140130 -0.214371
C40   C     C_R   0.456246 0.135337 0.131100 -0.085537
C41   C     C_R   0.604452 0.147256 0.169849 -0.223828
C42   C     C_R   0.583852 0.192412 0.217587 0.093282
C43   C     C_R   0.415451 0.227246 0.226083 0.052629
C44   C     C_R   0.268226 0.216435 0.186954 0.088330
C45   C     C_R   0.727715 0.203046 0.257319 -0.179864
C46   C     C_R   0.706901 0.248339 0.304468 -0.193272
C47   C     C_R   0.541136 0.283657 0.312998 0.086735
C48   C     C_R   0.393912 0.272848 0.273868 0.052574
C49   C     C_R   0.225511 0.307682 0.282365 0.093725
C50   C     C_R   0.081645 0.297046 0.242634 -0.181417
C51   C     C_R   0.102458 0.251753 0.195485 -0.194836
C52   C     C_R   0.520653 0.329748 0.359821 -0.212839
C53   C     C_R   0.353115 0.364753 0.368851 -0.083309
C54   C     C_R   0.204909 0.352837 0.330103 -0.225065
H16   H     H_    0.173866 0.161804 0.110493 0.128251
H17   H     H_    0.733224 0.120358 0.163533 0.124128
H18   H     H_    0.857331 0.176586 0.251778 0.137605
H19   H     H_    0.821343 0.255975 0.334164 0.135300
H20   H     H_    0.635485 0.338282 0.389462 0.131251
H21   H     H_    0.076134 0.379734 0.336423 0.122719
H22   H     H_    0.952027 0.323506 0.248175 0.136538
H23   H     H_    0.988012 0.244115 0.165790 0.133671
C55   C     C_R   0.282498 0.130918 0.890324 -0.159934
H24   H     H_    0.152339 0.123996 0.911244 0.134936
C56   C     C_R   0.273850 0.166911 0.854502 -0.163452
H25   H     H_    0.138577 0.187251 0.848925 0.150558
C57   C     C_R   0.438257 0.177167 0.826380 0.026971
C58   C     C_R   0.614192 0.150653 0.834806 0.218763
C59   C     C_R   0.622623 0.115262 0.871415 -0.140367
H26   H     H_    0.758500 0.095070 0.877124 0.135067
C60   C     C_R   0.457068 0.104732 0.899402 -0.116124
C61   C     C_R   0.507587 0.271565 0.799464 -0.156462
H27   H     H_    0.583894 0.288860 0.836936 0.112674
C62   C     C_R   0.493202 0.306811 0.763030 -0.151057
C63   C     C_R   0.394250 0.285820 0.713979 0.093524
C64   C     C_R   0.308668 0.228663 0.702843 -0.154700
H28   H     H_    0.233927 0.210370 0.665336 0.111585
C65   C     C_R   0.321719 0.193724 0.739567 -0.146512
H29   H     H_    0.255045 0.149921 0.729967 0.126119
C66   C     C_R   0.422796 0.214662 0.787903 0.078136
C67   C     C_R   0.214015 0.321244 0.642954 -0.197286
H30   H     H_    0.092811 0.292935 0.647016 0.111066
C68   C     C_R   0.199999 0.356025 0.605798 0.193511
C69   C     C_R   0.353311 0.394891 0.600527 -0.047772
C70   C     C_R   0.518976 0.396827 0.632520 -0.229446
H31   H     H_    0.638613 0.426283 0.629828 0.134538
C71   C     C_R   0.532830 0.361422 0.668762 -0.154718
H32   H     H_    0.664760 0.363614 0.691710 0.113606
C72   C     C_R   0.380185 0.323306 0.674795 0.070833
O11   O     O_R   0.308350 0.060850 0.061810 -0.539408
O12   O     O_R   0.633860 0.053770 0.953650 -0.544302
O13   O     O_R   0.798960 0.939210 0.938150 -0.539390
C73   C     C_R   0.465459 0.065946 0.937170 0.701716
O14   O     O_R   0.638360 0.067800 0.062400 -0.540683
O15   O     O_R   0.803500 0.953330 0.047670 -0.539749
C74   C     C_R   0.469530 0.084922 0.082340 0.710725
O16   O     O_R   0.303810 0.046730 0.952290 -0.538183
O17   O     O_3   0.468430 0.962490 0.995010 -0.368389
V3    V     V_3+5 0.745300 0.006960 0.000930 1.396948
O18   O     O_R   0.132880 0.946160 0.046390 -0.542359
C75   C     C_R   0.963394 0.933996 0.062688 0.691605
O19   O     O_R   0.128380 0.932130 0.937650 -0.541713
C76   C     C_R   0.958524 0.915706 0.917333 0.712607
V4    V     V_3+5 0.244670 0.992930 0.999140 1.399241
O20   O     O_3   0.971670 0.037510 0.005000 -0.369529
N1    N     N_3   0.194902 0.641434 0.428815 -0.666424
H33   H     H_    0.258511 0.599599 0.419009 0.241669
H34   H     H_    0.153183 0.652442 0.469003 0.238585
H35   H     H_    0.162150 0.700185 0.356049 0.126683
N2    N     N_3   0.433226 0.768527 0.668128 -0.661208
H36   H     H_    0.347659 0.730844 0.666241 0.232115
H37   H     H_    0.344742 0.805141 0.682841 0.236203
N3    N     N_3   0.784463 0.157465 0.805446 -0.694260
H38   H     H_    0.820086 0.202654 0.813757 0.223080
H39   H     H_    0.753343 0.142424 0.764562 0.237852
H40   H     H_    0.557519 0.350888 0.773732 0.109911
N4    N     N_3   0.031078 0.350545 0.572810 -0.654479
H41   H     H_    0.017866 0.306230 0.550800 0.221605
H42   H     H_    0.911303 0.360244 0.597915 0.225135
H43   H     H_    0.191919 0.745289 0.194441 0.107149
H44   H     H_    0.599211 0.751450 0.303223 0.112836

loop_
_geom_bond_atom_site_label_1
_geom_bond_atom_site_label_2
_ccdc_geom_bond_type
C28   C35   A    
C25   H10   S    
C62   C63   A    
C29   N2    S    
C62   H40   S    
C21   C22   A    
C65   H29   S    
C58   C59   A    
C1    O6    A    
C70   C71   A    
C71   H32   S    
C37   C38   A    
C50   C51   A    
C36   C37   A    
N2    H37   S    
C26   C29   A    
C58   N3    S    
C5    C10   A    
C12   H5    S    
C6    C7    A    
N3    H39   S    
C1    C53   S    
O5    C3    A    
C13   C14   A    
V2    O10   S    
O13   C76   A    
C67   H30   S    
C31   C36   A    
C46   C47   A    
C17   C22   A    
C68   C69   A    
C4    C19   S    
C26   C27   A    
O8    V2    S    
C39   C44   A    
C50   H22   S    
C67   C68   A    
C41   C42   A    
C59   C60   A    
C43   C44   A    
O1    V2    S    
C23   C28   A    
C23   H9    S    
C39   C40   A    
C51   H23   S    
O9    C4    A    
O15   C75   A    
C42   C43   A    
C70   H31   S    
C35   H15   S    
C5    H1    S    
O18   V4    S    
C49   C50   A    
C11   C16   A    
C57   C66   S    
C47   C48   A    
C31   C32   A    
C27   C28   A    
C37   C76   S    
C21   H35   S    
C9    H4    S    
N4    H42   S    
C19   C20   A    
O4    C2    A    
C45   C46   A    
C7    C16   S    
C33   C34   A    
C40   C41   A    
O16   V4    S    
C73   O16   A    
C17   H7    S    
C15   C16   A    
O15   V3    S    
C42   C45   A    
O2    C1    A    
C48   C49   A    
C18   H8    S    
C39   H16   S    
C65   C66   A    
O17   V4    S    
C55   C56   A    
C61   H27   S    
V3    O20   S    
C33   C38   A    
C59   H26   S    
C56   C57   A    
C30   C31   A    
C57   C58   A    
C64   C65   A    
C10   C75   S    
N3    H38   S    
C68   N4    S    
C46   H19   S    
C45   H18   S    
O3    C4    A    
C14   H44   S    
C11   H43   S    
C20   C21   A    
C61   C62   A    
O6    V2    S    
C47   C52   A    
O9    V2    S    
C23   C24   A    
O17   V3    S    
C8    C9    A    
O18   C75   A    
O2    V1    S    
C11   C12   A    
C32   C33   A    
O19   C76   A    
O7    V1    S    
C20   N1    S    
C38   H13   S    
C34   C35   A    
C69   C70   A    
C17   C18   A    
O1    C2    A    
C41   H17   S    
C14   C15   A    
C24   C25   A    
C9    C10   A    
C53   C54   A    
C40   C74   S    
C49   C54   A    
O5    V1    S    
C71   C72   A    
O8    C3    A    
C60   C73   S    
C27   C32   A    
C61   C66   A    
N2    H36   S    
N4    H41   S    
C15   H6    S    
C67   C72   A    
C6    H2    S    
C12   C13   A    
O11   C74   A    
O4    V1    S    
C18   C19   A    
O3    V1    S    
V1    O10   S    
C54   H21   S    
C55   H24   S    
N1    H33   S    
C34   H14   S    
C56   H25   S    
C5    C6    A    
C2    C69   S    
C36   H12   S    
C52   H20   S    
O7    V2    S    
C63   C64   A    
O11   V4    S    
O12   C73   A    
O14   C74   A    
C63   C72   S    
C52   C53   A    
O13   V3    S    
C25   C26   A    
O14   V3    S    
C43   C48   A    
C3    C24   S    
C29   C30   A    
C64   H28   S    
N1    H34   S    
C30   H11   S    
C8    H3    S    
C13   C22   S    
O12   V3    S    
C7    C8    A    
C55   C60   A    
C44   C51   A    
V4    O20   S    
O19   V4    S    
