data_mof_unit_51809.cif
_audit_creation_date              2012-12-10T17:12:01-0500
_audit_creation_method            fapswitch 2.2
_symmetry_space_group_name_H-M    P1
_symmetry_Int_Tables_number       1
_space_group_crystal_system       triclinic
_cell_length_a                    11.65405
_cell_length_b                    13.0133
_cell_length_c                    15.78156
_cell_angle_alpha                 92.319596
_cell_angle_beta                  73.614104
_cell_angle_gamma                 100.688444
_cell_volume                      2256.16640034

loop_
_atom_site_label
_atom_site_type_symbol
_atom_type_description
_atom_site_fract_x
_atom_site_fract_y
_atom_site_fract_z
_atom_type_partial_charge
C1    C     C_R   0.522171 0.701135 0.500522 0.848031
C2    C     C_R   0.477657 0.298754 0.499792 0.866370
C3    C     C_R   0.383315 0.398001 0.073649 -0.246891
C4    C     C_R   0.611968 0.601515 0.927638 -0.244674
C5    C     C_R   0.300775 0.368165 0.025021 -0.188573
C6    C     C_R   0.696287 0.628945 0.975174 -0.189291
C7    C     C_R   0.462198 0.184565 0.502474 -0.234484
C8    C     C_R   0.536963 0.815156 0.499969 -0.237995
C9    C     C_R   0.662315 0.988802 0.484211 0.427147
C10   C     C_R   0.335880 0.011251 0.526808 0.414263
C11   C     C_R   0.652861 0.879811 0.482412 0.369374
C12   C     C_R   0.346683 0.119667 0.516919 0.399505
C13   C     C_R   0.432727 0.859558 0.515629 -0.275736
C14   C     C_R   0.565793 0.140310 0.491934 -0.282807
C15   C     C_R   0.441356 0.967484 0.513112 -0.062917
C16   C     C_R   0.557018 0.032522 0.496294 -0.064374
C17   C     C_R   0.939847 0.594339 0.584967 0.415771
C18   C     C_R   0.060520 0.406419 0.414016 0.392712
C19   C     C_R   0.821998 0.586697 0.574747 0.019867
C20   C     C_R   0.179060 0.415074 0.423817 -0.010277
C21   C     C_R   0.858982 0.458375 0.464569 0.016522
C22   C     C_R   0.140553 0.540762 0.536093 0.025905
C23   C     C_R   0.425717 0.491840 0.668367 0.868392
C24   C     C_R   0.574220 0.506970 0.331446 0.849727
C25   C     C_R   0.979604 0.465282 0.469534 -0.107990
C26   C     C_R   0.020328 0.534296 0.530588 -0.114693
C27   C     C_R   0.378421 0.474992 0.764555 -0.228299
C28   C     C_R   0.621009 0.520787 0.234738 -0.224339
C29   C     C_R   0.236224 0.378527 0.891911 0.416353
C30   C     C_R   0.765512 0.611499 0.105261 0.420596
C31   C     C_R   0.266786 0.408436 0.802553 0.397942
C32   C     C_R   0.736613 0.580313 0.194215 0.390427
C33   C     C_R   0.453921 0.516561 0.816877 -0.341609
C34   C     C_R   0.541948 0.483115 0.183927 -0.337880
C35   C     C_R   0.427018 0.486641 0.905989 0.032930
C36   C     C_R   0.569128 0.511669 0.094514 0.031641
C37   C     C_R   0.319579 0.412532 0.941956 -0.022820
C38   C     C_R   0.678587 0.582766 0.057334 -0.023982
C39   C     C_R   0.508702 0.522266 0.957989 0.124353
C40   C     C_R   0.486424 0.477254 0.043137 0.124766
Cu1   Cu    Cu3+1 0.386820 0.492450 0.493500 0.966258
Cu2   Cu    Cu3+1 0.613180 0.507550 0.506500 0.962298
H1    H     H_    0.224047 0.306381 0.051858 0.182844
H2    H     H_    0.773919 0.689850 0.948102 0.181467
H3    H     H_    0.454972 0.437849 0.218005 0.171676
H4    H     H_    0.538323 0.566254 0.783894 0.171208
H5    H     H_    0.365229 0.354817 0.134198 0.132681
H6    H     H_    0.629834 0.645590 0.867605 0.134654
N1    N     N_R   0.216750 0.481110 0.483710 -0.205319
N2    N     N_R   0.783250 0.518890 0.516290 -0.216027
O1    O     O_R   0.419950 0.645670 0.495380 -0.598593
O2    O     O_R   0.580050 0.354330 0.504620 -0.603694
O3    O     O_R   0.611110 0.658410 0.506370 -0.535806
O4    O     O_R   0.388890 0.341590 0.493630 -0.533211
O5    O     O_R   0.350820 0.490050 0.621260 -0.556910
O6    O     O_R   0.649180 0.509950 0.378740 -0.555847
O7    O     O_R   0.541970 0.502800 0.632250 -0.596452
O8    O     O_R   0.458030 0.497200 0.367750 -0.595912
H7    H     H_    0.241427 0.368547 0.383887 0.124725
H8    H     H_    0.761146 0.635335 0.613644 0.143711
O9    O     O_3   0.979709 0.665435 0.642846 -0.585785
C41   C     C_3   0.915375 0.633420 0.730365 -0.395189
H9    H     H_    0.819786 0.645579 0.746420 0.165148
H10   H     H_    0.959086 0.682282 0.775944 0.192577
H11   H     H_    0.918173 0.550387 0.742856 0.152628
O10   O     O_3   0.019323 0.336396 0.355613 -0.583211
C42   C     C_3   0.099490 0.351832 0.269584 -0.369491
H12   H     H_    0.132287 0.436259 0.251422 0.154718
H13   H     H_    0.049900 0.316673 0.221843 0.196851
H14   H     H_    0.177254 0.310954 0.262251 0.159090
O11   O     O_3   0.813028 0.623119 0.244553 -0.567846
C43   C     C_3   0.894516 0.555390 0.244830 -0.254148
H15   H     H_    0.850422 0.471281 0.252115 0.142785
H16   H     H_    0.932076 0.575317 0.301826 0.185505
H17   H     H_    0.972579 0.567830 0.184682 0.161208
O12   O     O_3   0.198354 0.357835 0.749226 -0.527277
C44   C     C_3   0.105828 0.413656 0.748133 -0.226804
H18   H     H_    0.081360 0.396740 0.685354 0.188892
H19   H     H_    0.133571 0.500213 0.751313 0.115803
H20   H     H_    0.022817 0.385617 0.802265 0.160936
O13   O     O_3   0.132164 0.304994 0.925764 -0.544085
C45   C     C_3   0.041240 0.356276 0.979256 -0.355932
H21   H     H_    0.954561 0.299305 0.998744 0.203000
H22   H     H_    0.025772 0.421757 0.943348 0.133468
H23   H     H_    0.063427 0.385978 0.040810 0.144094
O14   O     O_3   0.873068 0.680508 0.069735 -0.546817
C46   C     C_3   0.956975 0.625530 0.012429 -0.350303
H24   H     H_    0.965550 0.553791 0.044084 0.133015
H25   H     H_    0.047775 0.676843 0.994621 0.199943
H26   H     H_    0.932173 0.604383 0.950198 0.144571
H27   H     H_    0.654316 0.190425 0.479327 0.228401
H28   H     H_    0.344174 0.809347 0.529080 0.228315
O15   O     O_3   0.243014 0.162321 0.528795 -0.548257
C47   C     C_3   0.206145 0.149132 0.450595 -0.226331
H29   H     H_    0.175903 0.065273 0.437868 0.196895
H30   H     H_    0.279718 0.185557 0.392543 0.122904
H31   H     H_    0.127221 0.188500 0.458477 0.188251
O16   O     O_3   0.757160 0.837256 0.466419 -0.571114
C48   C     C_3   0.805731 0.829754 0.374304 -0.146563
H32   H     H_    0.839771 0.908547 0.342652 0.172577
H33   H     H_    0.737955 0.783609 0.343388 0.164901
H34   H     H_    0.884069 0.788543 0.361492 0.199928
O17   O     O_3   0.775916 0.052109 0.467037 -0.572856
C49   C     C_3   0.807444 0.068828 0.547074 -0.256722
H35   H     H_    0.817390 0.994535 0.574439 0.191264
H36   H     H_    0.739960 0.106746 0.596682 0.142705
H37   H     H_    0.896579 0.122442 0.533945 0.195630
O18   O     O_3   0.222302 0.947774 0.544793 -0.580612
C50   C     C_3   0.170632 0.942156 0.637112 -0.246637
H38   H     H_    0.156238 0.020271 0.664815 0.192689
H39   H     H_    0.227395 0.907887 0.670523 0.143099
H40   H     H_    0.080326 0.890141 0.651673 0.219212
H41   H     H_    0.173608 0.592820 0.582707 0.171132
H42   H     H_    0.825416 0.405685 0.418560 0.177134

loop_
_geom_bond_atom_site_label_1
_geom_bond_atom_site_label_2
_ccdc_geom_bond_type
C46   H24   S    
O15   C47   S    
C5    C37   A    
C1    C8    S    
Cu1   Cu2   S    
C10   O18   S    
C2    C7    S    
C49   H36   S    
O13   C45   S    
C44   H18   S    
C27   C33   A    
C8    C13   A    
C11   O16   S    
C17   C26   A    
C35   C37   A    
C9    C16   A    
Cu1   O8    S    
C10   C15   A    
C50   H39   S    
Cu2   O3    S    
C33   C35   A    
C15   C16   A    
O18   C50   S    
C30   C38   A    
C1    O3    A    
C21   N2    A    
C41   H10   S    
Cu2   O6    S    
C22   H41   S    
Cu1   O5    S    
C6    C38   A    
C23   C27   S    
C30   O14   S    
C18   C20   A    
C17   O9    S    
O10   C42   S    
C5    H1    S    
C28   C34   A    
C6    H2    S    
C33   H4    S    
C47   H29   S    
C18   C25   A    
C43   H17   S    
C10   C12   A    
Cu2   O7    S    
Cu1   N1    S    
C49   H35   S    
C32   O11   S    
C44   H19   S    
C7    C12   A    
C14   H27   S    
C27   C31   A    
C42   H12   S    
C36   C40   A    
O12   C44   S    
C4    C6    A    
C2    O4    A    
C50   H40   S    
C39   C40   A    
O14   C46   S    
C43   H15   S    
C47   H31   S    
C25   C26   A    
C7    C14   A    
C42   H13   S    
C35   C39   A    
C29   O13   S    
C41   H9    S    
C20   N1    A    
C9    C11   A    
C48   H32   S    
C4    C39   A    
C28   C32   A    
C9    O17   S    
C34   H3    S    
C20   H7    S    
C47   H30   S    
C1    O1    A    
C2    O2    A    
Cu2   N2    S    
C22   N1    A    
C43   H16   S    
C48   H33   S    
C3    C40   A    
C45   H21   S    
C45   H22   S    
C13   C15   A    
C13   H28   S    
C14   C16   A    
C12   O15   S    
C24   O6    A    
C4    H6    S    
C44   H20   S    
C23   O7    A    
C21   C25   A    
C41   H11   S    
C24   C28   S    
C21   H42   S    
C3    C5    A    
C23   O5    A    
C19   H8    S    
C18   O10   S    
C45   H23   S    
C42   H14   S    
C36   C38   A    
O11   C43   S    
C29   C31   A    
C50   H38   S    
C30   C32   A    
C19   N2    A    
C31   O12   S    
C8    C11   A    
C3    H5    S    
C17   C19   A    
C34   C36   A    
O9    C41   S    
Cu1   O4    S    
C48   H34   S    
C24   O8    A    
O16   C48   S    
C22   C26   A    
C46   H26   S    
C29   C37   A    
O17   C49   S    
C46   H25   S    
Cu1   O1    S    
C49   H37   S    
Cu2   O2    S    
