data_mof_unit_23579.cif
_audit_creation_date              2012-12-10T17:01:12-0500
_audit_creation_method            fapswitch 2.2
_symmetry_space_group_name_H-M    P1
_symmetry_Int_Tables_number       1
_space_group_crystal_system       triclinic
_cell_length_a                    15.510351
_cell_length_b                    15.452637
_cell_length_c                    9.926821
_cell_angle_alpha                 91.206577
_cell_angle_beta                  60.029097
_cell_angle_gamma                 90.8668
_cell_volume                      2060.5817913

loop_
_atom_site_label
_atom_site_type_symbol
_atom_type_description
_atom_site_fract_x
_atom_site_fract_y
_atom_site_fract_z
_atom_type_partial_charge
C1    C     C_R   0.368992 0.116694 0.563606 0.705351
C2    C     C_R   0.628310 0.880225 0.436864 0.698770
C3    C     C_R   0.630142 0.117831 0.438812 0.680111
C4    C     C_R   0.372687 0.880056 0.559684 0.743855
C5    C     C_R   0.869174 0.616750 0.563610 0.701345
C6    C     C_R   0.128434 0.380270 0.436877 0.705393
C7    C     C_R   0.130216 0.617827 0.438808 0.692152
C8    C     C_R   0.872765 0.380089 0.559681 0.746213
C9    C     C_2   0.510236 0.987256 0.918418 0.522936
C10   C     C_2   0.487440 0.989563 0.085963 0.615596
C11   C     C_2   0.011690 0.489147 0.916410 0.608363
C12   C     C_2   0.988609 0.488227 0.082212 0.589179
C13   C     C_2   0.299676 0.810603 0.586370 0.306947
C14   C     C_2   0.703282 0.188231 0.413112 0.342540
C15   C     C_2   0.705306 0.812387 0.400314 0.262120
C16   C     C_2   0.290844 0.182207 0.598017 0.293272
C17   C     C_2   0.799949 0.310670 0.586741 0.305812
C18   C     C_2   0.203569 0.688145 0.413248 0.336889
C19   C     C_2   0.205748 0.312647 0.400575 0.267857
C20   C     C_2   0.791199 0.682283 0.598589 0.293171
C21   C     C_2   0.242662 0.818076 0.520470 -0.163953
C22   C     C_2   0.675916 0.247466 0.528367 -0.174359
C23   C     C_2   0.733459 0.801312 0.506567 -0.154093
C24   C     C_2   0.308822 0.237703 0.484588 -0.145932
C25   C     C_2   0.743183 0.317413 0.520356 -0.156035
C26   C     C_2   0.175291 0.748396 0.527209 -0.171541
C27   C     C_2   0.234854 0.302693 0.506050 -0.156238
C28   C     C_2   0.807511 0.736337 0.484174 -0.165593
Cu1   Cu    Cu3+1 0.522650 0.000000 0.349410 0.980644
Cu2   Cu    Cu3+1 0.477350 0.000000 0.650590 0.951898
Cu3   Cu    Cu3+1 0.022650 0.500000 0.349410 0.940060
Cu4   Cu    Cu3+1 0.977350 0.500000 0.650590 0.951152
H1    H     H_    0.602960 0.244929 0.632444 0.117891
H2    H     H_    0.243460 0.877350 0.462879 0.144639
H3    H     H_    0.376701 0.233826 0.372139 0.159860
H4    H     H_    0.699626 0.837633 0.615551 0.213353
H5    H     H_    0.101150 0.747224 0.628859 0.117254
H6    H     H_    0.744558 0.376025 0.460722 0.149669
H7    H     H_    0.873942 0.731021 0.370146 0.164672
H8    H     H_    0.201637 0.339810 0.614208 0.208011
N1    N     N_2   0.443290 0.000000 0.876860 -0.091629
N2    N     N_2   0.556710 0.000000 0.123140 -0.060340
N3    N     N_2   0.943290 0.500000 0.876860 -0.080732
N4    N     N_2   0.056710 0.500000 0.123140 -0.094954
O1    O     O_R   0.422430 0.089640 0.419570 -0.539970
O2    O     O_R   0.577570 0.910360 0.580430 -0.574052
O3    O     O_R   0.577570 0.089640 0.580430 -0.599505
O4    O     O_R   0.422430 0.910360 0.419570 -0.548502
O5    O     O_R   0.922430 0.589640 0.419570 -0.613514
O6    O     O_R   0.077570 0.410360 0.580430 -0.575399
O7    O     O_R   0.077570 0.589640 0.580430 -0.605974
O8    O     O_R   0.922430 0.410360 0.419570 -0.582538
O9    O     O_R   0.384170 0.089650 0.673910 -0.580330
O10   O     O_R   0.615830 0.910350 0.326090 -0.591414
O11   O     O_R   0.615830 0.089650 0.326090 -0.584244
O12   O     O_R   0.384170 0.910350 0.673910 -0.588143
O13   O     O_R   0.884170 0.589650 0.673910 -0.574152
O14   O     O_R   0.115830 0.410350 0.326090 -0.586812
O15   O     O_R   0.115830 0.589650 0.326090 -0.579044
O16   O     O_R   0.884170 0.410350 0.673910 -0.585415
O17   O     O_3   0.650486 0.014116 0.009249 -0.663294
H9    H     H_    0.690573 0.014912 0.061378 0.348737
O18   O     O_3   0.356027 0.032903 0.986009 -0.686576
H10   H     H_    0.313601 0.030919 0.938282 0.352383
O19   O     O_3   0.149212 0.520397 0.011399 -0.660227
H11   H     H_    0.189473 0.520704 0.063129 0.353325
O20   O     O_3   0.851977 0.522583 0.989896 -0.652516
H12   H     H_    0.811179 0.521957 0.939226 0.347951
O21   O     O_3   0.799687 0.195030 0.285168 -0.603168
C29   C     C_3   0.831946 0.123050 0.181972 0.026608
H13   H     H_    0.901284 0.142739 0.075682 0.154386
H14   H     H_    0.780278 0.106691 0.139097 0.163598
C30   C     C_3   0.858307 0.045394 0.247925 -0.350886
H15   H     H_    0.928138 0.059722 0.249870 0.219875
H16   H     H_    0.798806 0.031935 0.368723 0.213926
C31   C     C_3   0.872652 0.965081 0.147400 -0.936401
H17   H     H_    0.800789 0.946292 0.157502 0.262078
H18   H     H_    0.900803 0.910809 0.186024 0.271053
H19   H     H_    0.925090 0.978351 0.023119 0.262947
O22   O     O_3   0.305009 0.731438 0.645683 -0.598083
C32   C     C_3   0.267467 0.738444 0.807659 0.064482
H20   H     H_    0.220795 0.680318 0.862282 0.190919
H21   H     H_    0.216154 0.794011 0.863580 0.130926
C33   C     C_3   0.353016 0.739695 0.843460 -0.332559
H22   H     H_    0.369669 0.672400 0.860259 0.186452
H23   H     H_    0.422121 0.766169 0.744518 0.250584
C34   C     C_3   0.326469 0.794191 0.988850 -0.857885
H24   H     H_    0.311984 0.861953 0.971905 0.270517
H25   H     H_    0.389177 0.793975 0.012713 0.259012
H26   H     H_    0.258403 0.768190 0.090222 0.262776
O23   O     O_3   0.197114 0.187058 0.733079 -0.617552
C35   C     C_3   0.169797 0.115443 0.832385 0.053432
H27   H     H_    0.097736 0.131150 0.937116 0.162783
H28   H     H_    0.221259 0.107108 0.877154 0.158644
C36   C     C_3   0.150036 0.032563 0.764192 -0.345701
H29   H     H_    0.082153 0.041288 0.754998 0.219079
H30   H     H_    0.212513 0.017122 0.646305 0.207598
C37   C     C_3   0.134380 0.956792 0.870085 -0.981689
H31   H     H_    0.205068 0.941965 0.866263 0.265429
H32   H     H_    0.108119 0.899058 0.832143 0.257079
H33   H     H_    0.079533 0.973030 0.992663 0.269182
O24   O     O_3   0.748862 0.756797 0.269095 -0.607044
C38   C     C_3   0.715854 0.764138 0.160591 0.115587
H34   H     H_    0.767324 0.725190 0.056215 0.164754
H35   H     H_    0.725916 0.830324 0.114443 0.163178
C39   C     C_3   0.611005 0.725959 0.220452 -0.352277
H36   H     H_    0.616745 0.654854 0.198374 0.199381
H37   H     H_    0.563094 0.736447 0.347782 0.226345
C40   C     C_3   0.560796 0.766549 0.138703 -0.855286
H38   H     H_    0.538990 0.833551 0.180159 0.300401
H39   H     H_    0.492959 0.729390 0.164341 0.270990
H40   H     H_    0.611856 0.768925 0.011420 0.272040
O25   O     O_3   0.301343 0.693201 0.288377 -0.608530
C41   C     C_3   0.332061 0.622572 0.182331 0.025873
H41   H     H_    0.402074 0.642084 0.077092 0.156796
H42   H     H_    0.280331 0.609344 0.138320 0.163154
C42   C     C_3   0.356420 0.542458 0.245279 -0.346068
H43   H     H_    0.426179 0.554417 0.248672 0.219879
H44   H     H_    0.296255 0.528014 0.365127 0.212544
C43   C     C_3   0.369882 0.464271 0.140733 -0.940718
H45   H     H_    0.297903 0.447599 0.149549 0.263328
H46   H     H_    0.397151 0.408143 0.176620 0.271813
H47   H     H_    0.422547 0.479096 0.017258 0.263411
O26   O     O_3   0.805439 0.232158 0.647567 -0.597866
C44   C     C_3   0.757259 0.237845 0.811508 0.066725
H48   H     H_    0.712855 0.177689 0.858513 0.191752
H49   H     H_    0.701785 0.290985 0.862447 0.127028
C45   C     C_3   0.834404 0.243265 0.865273 -0.371308
H50   H     H_    0.852527 0.176881 0.883591 0.188505
H51   H     H_    0.905100 0.272374 0.774615 0.257558
C46   C     C_3   0.796007 0.296824 0.015030 -0.767980
H52   H     H_    0.776918 0.363041 0.998098 0.268441
H53   H     H_    0.854572 0.302143 0.047971 0.290423
H54   H     H_    0.728463 0.266035 0.110368 0.249238
O27   O     O_3   0.699986 0.689498 0.737572 -0.618652
C47   C     C_3   0.669775 0.615488 0.831897 0.056893
H55   H     H_    0.598555 0.631296 0.938111 0.161752
H56   H     H_    0.720945 0.601933 0.875436 0.161076
C48   C     C_3   0.646748 0.536520 0.758669 -0.354274
H57   H     H_    0.578383 0.549137 0.752650 0.218544
H58   H     H_    0.708022 0.522562 0.638953 0.196992
C49   C     C_3   0.630338 0.457316 0.857763 -0.982826
H59   H     H_    0.701439 0.439044 0.849484 0.262028
H60   H     H_    0.601563 0.402516 0.817230 0.257912
H61   H     H_    0.577401 0.471441 0.982115 0.269759
O28   O     O_3   0.248241 0.255893 0.270971 -0.595673
C50   C     C_3   0.215253 0.262909 0.162396 0.119514
H62   H     H_    0.266539 0.223601 0.058427 0.168672
H63   H     H_    0.225470 0.328888 0.115577 0.159903
C51   C     C_3   0.110224 0.225109 0.222739 -0.366042
H64   H     H_    0.115558 0.153927 0.201561 0.201005
H65   H     H_    0.062392 0.236164 0.349933 0.230780
C52   C     C_3   0.060324 0.265513 0.140350 -0.831932
H66   H     H_    0.038981 0.332730 0.180866 0.308342
H67   H     H_    0.992259 0.228589 0.166400 0.272661
H68   H     H_    0.111487 0.267361 0.013022 0.263987
O29   O     O_3   0.391577 0.976426 0.205686 -0.709433
H69   H     H_    0.357583 0.937048 0.166911 0.318162
O30   O     O_3   0.605845 0.965249 0.808126 -0.725949
H70   H     H_    0.628031 0.006547 0.722564 0.354080
O31   O     O_3   0.892628 0.465618 0.190763 -0.734975
H71   H     H_    0.871420 0.503583 0.282435 0.352876
O32   O     O_3   0.108143 0.469893 0.805439 -0.738578
H72   H     H_    0.128537 0.510335 0.719445 0.349539

loop_
_geom_bond_atom_site_label_1
_geom_bond_atom_site_label_2
_ccdc_geom_bond_type
C21   C26   S    
O29   H69   S    
Cu1   N2    S    
C10   N2    D    
C30   H15   S    
C6    O14   A    
C36   H29   S    
C18   C26   D    
C33   C34   S    
Cu3   O8    S    
C34   H24   S    
C46   H54   S    
C45   H50   S    
C41   H41   S    
C36   C37   S    
O27   C47   S    
C5    C20   S    
C2    O2    A    
C6    C19   S    
Cu3   O14   S    
C50   H63   S    
C33   H23   S    
O28   C50   S    
O21   C29   S    
C42   H44   S    
C48   C49   S    
Cu1   O10   S    
C9    O30   S    
C23   H4    S    
Cu3   O15   S    
C4    C13   S    
C1    O9    A    
C12   O31   S    
C3    O11   A    
C33   H22   S    
C50   H62   S    
C22   C25   S    
C44   C45   S    
C24   C27   S    
Cu2   N1    S    
C11   N3    D    
C29   H13   S    
C52   H67   S    
C19   C27   D    
C9    C10   S    
C8    O8    A    
C43   H47   S    
C15   C23   D    
C13   O22   S    
C20   O27   S    
C4    O12   A    
C30   H16   S    
C49   H61   S    
C5    O5    A    
N4    O19   S    
O24   C38   S    
Cu4   O13   S    
Cu3   O5    S    
C47   C48   S    
C18   O25   S    
C7    O15   A    
C32   H21   S    
C43   H46   S    
C32   H20   S    
C41   C42   S    
Cu2   O9    S    
C24   H3    S    
Cu3   N4    S    
Cu1   O4    S    
O20   H12   S    
C19   O28   S    
Cu2   O3    S    
C50   C51   S    
C31   H17   S    
C47   H56   S    
C2    O10   A    
C40   H40   S    
O23   C35   S    
C47   H55   S    
C21   H2    S    
C20   C28   D    
C28   H7    S    
Cu2   O12   S    
C51   C52   S    
C35   C36   S    
Cu1   O1    S    
Cu4   O7    S    
Cu1   Cu2   S    
C25   H6    S    
C17   O26   S    
O30   H70   S    
N2    O17   S    
C27   H8    S    
C48   H57   S    
C7    C18   S    
C29   C30   S    
C11   O32   S    
C13   C21   D    
C38   H35   S    
C1    C16   S    
C23   C28   S    
C6    O6    A    
C52   H68   S    
C2    C15   S    
C10   O29   S    
Cu4   O6    S    
C3    C14   S    
N3    O20   S    
O19   H11   S    
C37   H32   S    
C34   H25   S    
C44   H48   S    
C14   O21   S    
C51   H65   S    
C42   C43   S    
N1    O18   S    
C46   H52   S    
C45   C46   S    
C32   C33   S    
C43   H45   S    
O25   C41   S    
C4    O4    A    
C22   H1    S    
C49   H59   S    
Cu2   O2    S    
Cu3   Cu4   S    
C31   H18   S    
O22   C32   S    
C46   H53   S    
C45   H51   S    
C41   H42   S    
C11   C12   S    
C36   H30   S    
C26   H5    S    
C37   H33   S    
Cu1   O11   S    
C9    N1    D    
C8    C17   S    
C5    O13   A    
C17   C25   D    
C14   C22   D    
C40   H39   S    
C7    O7    A    
C12   N4    D    
O31   H71   S    
C42   H43   S    
C8    O16   A    
C48   H58   S    
C1    O1    A    
C35   H28   S    
C39   H37   S    
C3    O3    A    
C35   H27   S    
C30   C31   S    
Cu4   N3    S    
C38   C39   S    
C49   H60   S    
C15   O24   S    
O17   H9    S    
O32   H72   S    
O18   H10   S    
C31   H19   S    
C16   O23   S    
C16   C24   D    
C37   H31   S    
C39   H36   S    
C34   H26   S    
C38   H34   S    
C44   H49   S    
Cu4   O16   S    
C51   H64   S    
C29   H14   S    
C52   H66   S    
C40   H38   S    
O26   C44   S    
C39   C40   S    
