data_mof_unit_46612.cif
_audit_creation_date              2013-03-05T15:54:26-0500
_audit_creation_method            fapswitch 2.2
_symmetry_space_group_name_H-M    P1
_symmetry_Int_Tables_number       1
_space_group_crystal_system       triclinic
_cell_length_a                    15.719454
_cell_length_b                    10.67896
_cell_length_c                    9.991896
_cell_angle_alpha                 88.163717
_cell_angle_beta                  88.559172
_cell_angle_gamma                 92.224672
_cell_volume                      1674.6040612

loop_
_atom_site_label
_atom_site_type_symbol
_atom_site_description
_atom_site_fract_x
_atom_site_fract_y
_atom_site_fract_z
_atom_type_partial_charge
O1    O     O_R   0.500000 0.316780 0.614690 -0.670872
O2    O     O_R   0.499990 0.316750 0.385360 -0.531381
C1    C     C_R   0.506240 0.260433 0.503670 0.913658
O3    O     O_R   0.376780 0.500000 0.614650 -0.613535
O4    O     O_R   0.376770 0.499980 0.385310 -0.608734
C2    C     C_R   0.338151 0.498860 0.501636 0.958055
Zn1   Zn    Zn3+2 0.500010 0.500020 0.653130 0.990132
Zn2   Zn    Zn3+2 0.499990 0.499980 0.346870 1.091751
O5    O     O_R   0.500010 0.683250 0.614640 -0.619197
O6    O     O_R   0.500000 0.683220 0.385310 -0.585515
O7    O     O_R   0.623230 0.500020 0.614690 -0.622521
O8    O     O_R   0.623220 0.500000 0.385350 -0.538983
C3    C     C_R   0.493747 0.739097 0.498220 0.924563
C4    C     C_R   0.661715 0.501126 0.498743 0.892747
C5    C     C_3   0.968756 0.444290 0.610456 0.203157
C6    C     C_3   0.026360 0.396534 0.497534 -0.296509
H1    H     H_    0.047809 0.299372 0.487646 0.221325
C7    C     C_1   0.249375 0.505103 0.505893 0.015080
C8    C     C_1   0.750582 0.506509 0.497315 -0.038235
C9    C     C_3   0.026660 0.561376 0.624505 0.417311
C10   C     C_3   0.083543 0.516343 0.510564 -0.058006
C11   C     C_3   0.973913 0.634415 0.521347 -0.306190
C12   C     C_3   0.916406 0.515193 0.508165 -0.110902
C13   C     C_3   0.032556 0.589435 0.405852 -0.160162
C14   C     C_3   0.974372 0.471026 0.396045 0.340804
C15   C     C_1   0.174323 0.511824 0.509402 0.199209
C16   C     C_1   0.825757 0.511409 0.501189 0.139603
H2    H     H_    0.059274 0.650011 0.321559 0.227046
H3    H     H_    0.951300 0.730831 0.532374 0.218933
H4    H     H_    0.575647 0.119716 0.320220 0.205514
C17   C     C_R   0.471007 0.100082 0.759210 -0.160101
H5    H     H_    0.504469 0.183538 0.790809 0.199031
C18   C     C_R   0.424654 0.031427 0.858840 -0.172256
H6    H     H_    0.419681 0.066695 0.958599 0.243348
C19   C     C_R   0.381682 0.920514 0.828533 -0.154309
H7    H     H_    0.339562 0.874303 0.903723 0.209707
C20   C     C_R   0.391679 0.871203 0.701184 0.328168
C21   C     C_R   0.450237 0.931743 0.606559 -0.022636
C22   C     C_R   0.478322 0.055228 0.627477 0.058026
C23   C     C_R   0.513044 0.126422 0.514845 -0.112851
C24   C     C_R   0.542387 0.067369 0.401558 -0.105645
H8    H     H_    0.556644 0.895824 0.306281 0.216905
C25   C     C_R   0.529811 0.940482 0.392344 -0.149899
C26   C     C_R   0.485223 0.872189 0.494694 -0.090776
C27   C     C_R   0.358334 0.383800 0.141248 0.391207
C28   C     C_R   0.281901 0.389947 0.071036 0.356691
C29   C     C_R   0.286681 0.371381 0.933589 -0.186700
H9    H     H_    0.230822 0.344496 0.878557 0.229045
C30   C     C_R   0.365585 0.382467 0.868071 -0.189167
H10   H     H_    0.371722 0.347123 0.769391 0.212810
C31   C     C_R   0.433911 0.441253 0.931594 0.108263
C32   C     C_R   0.431953 0.442703 0.075368 -0.080583
N1    N     N_R   0.499210 0.498800 0.142780 -0.165095
C33   C     C_R   0.565184 0.555850 0.063436 0.454499
H11   H     H_    0.615488 0.598426 0.861472 0.218616
C34   C     C_R   0.563793 0.554942 0.921767 -0.123892
N2    N     N_R   0.499180 0.498720 0.857170 -0.138303
N3    N     N_R   0.334612 0.771213 0.663242 0.202169
O9    O     O_R   0.304013 0.773651 0.543430 -0.426821
O10   O     O_R   0.299382 0.694577 0.754218 -0.343562
S1    S     S_3+6 0.658796 0.628746 0.126074 0.054594
O11   O     O_2   0.640277 0.708212 0.243260 -0.316228
O12   O     O_2   0.719265 0.529011 0.165026 -0.245810
O13   O     O_3   0.707062 0.722109 0.005741 -0.554756
H12   H     H_    0.762482 0.748521 0.043053 0.408711
S2    S     S_3+6 0.368445 0.228099 0.205274 0.030929
O14   O     O_2   0.307644 0.140052 0.137045 -0.321364
O15   O     O_2   0.457179 0.187102 0.177281 -0.340780
O16   O     O_3   0.344159 0.218923 0.370219 -0.546277
H13   H     H_    0.339277 0.127990 0.393398 0.383658
S3    S     S_3+6 0.181468 0.383469 0.154092 0.099690
O17   O     O_2   0.157082 0.515675 0.176975 -0.273248
O18   O     O_2   0.115562 0.321763 0.068728 -0.188392
O19   O     O_3   0.184139 0.305588 0.302658 -0.550036
H14   H     H_    0.163519 0.218849 0.285614 0.399801
N4    N     N_R   0.935200 0.366086 0.723408 0.263505
O20   O     O_R   0.987277 0.308646 0.801176 -0.262867
O21   O     O_R   0.853601 0.353473 0.747560 -0.326859
N5    N     N_R   0.943341 0.421088 0.271608 0.263707
O22   O     O_R   0.960573 0.480698 0.158081 -0.251178
O23   O     O_R   0.896248 0.318175 0.274138 -0.320658
S4    S     S_3+6 0.062296 0.623875 0.777390 0.120661
O24   O     O_2   0.121166 0.534647 0.843103 -0.226093
O25   O     O_2   0.108620 0.747848 0.748192 -0.238146
O26   O     O_3   0.977652 0.644125 0.879430 -0.472484
H15   H     H_    0.001579 0.682465 0.960001 0.405888

loop_
_geom_bond_atom_site_label_1
_geom_bond_atom_site_label_2
_geom_bond_distance
_ccdc_geom_bond_type
S2    O15   1.500380 D    
H11   C34   1.080317 S    
C6    C10   1.545700 S    
C11   H3    1.110098 S    
C9    S4    1.781071 S    
C19   H7    1.082679 S    
C7    C15   1.184444 T    
C10   C15   1.429460 S    
C29   C30   1.387005 A    
N1    C33   1.397810 A    
Zn1   O7    1.965169 S    
C19   C20   1.400164 A    
N4    O21   1.300229 A    
O4    C2    1.297200 A    
O7    C4    1.292919 A    
S2    O16   1.681290 S    
N3    O10   1.301761 A    
C5    C6    1.540919 S    
C34   N2    1.348759 A    
S1    O12   1.503329 D    
O5    C3    1.297842 A    
C17   H5    1.077338 S    
C6    H1    1.109997 S    
C30   C31   1.399289 A    
C17   C18   1.390940 A    
H4    C24   1.083139 S    
C31   N2    1.365939 A    
C12   C16   1.427482 S    
C8    C16   1.182498 T    
C20   N3    1.434329 S    
C5    C12   1.528472 S    
S2    O14   1.505449 D    
O1    Zn1   2.006187 S    
C24   C25   1.368122 A    
S1    O11   1.497217 D    
O3    Zn1   1.984352 S    
C5    C9    1.530002 S    
C2    C7    1.399332 S    
C33   C34   1.416607 A    
O19   H14   0.990776 S    
C31   C32   1.436719 A    
C13   C14   1.538732 S    
O3    C2    1.295688 A    
C22   C23   1.422854 A    
N5    O23   1.300222 A    
C27   C32   1.430683 A    
N3    O9    1.301199 A    
O26   H15   0.990766 S    
O1    C1    1.282240 A    
S1    O13   1.683425 S    
C25   C26   1.394801 A    
C21   C26   1.413532 A    
C20   C21   1.424816 A    
O4    Zn2   1.965168 S    
C29   H9    1.081966 S    
Zn2   O8    1.984353 S    
C18   H6    1.078873 S    
N4    O20   1.300239 A    
C28   S3    1.762923 S    
C23   C24   1.390630 A    
O8    C4    1.298001 A    
C1    C23   1.440206 S    
C30   H10   1.070441 S    
S4    O25   1.502602 D    
C11   C13   1.558421 S    
H8    C25   1.080968 S    
C32   N1    1.393851 A    
S3    O18   1.504167 D    
C6    C14   1.539299 S    
Zn1   O5    1.982013 S    
C28   C29   1.394446 A    
C14   N5    1.456387 S    
C4    C8    1.395584 S    
O2    Zn2   1.982014 S    
C13   H2    1.109252 S    
C9    C11   1.549184 S    
O6    C3    1.296396 A    
Zn2   N1    2.040030 S    
S3    O19   1.680422 S    
C33   S1    1.775304 S    
S4    O26   1.680748 S    
O13   H12   0.990687 S    
O2    C1    1.316683 A    
S3    O17   1.500259 D    
C21   C22   1.398088 A    
C18   C19   1.386378 A    
C17   C22   1.418545 A    
C5    N4    1.457705 S    
C12   C14   1.524356 S    
O16   H13   0.990664 S    
N5    O22   1.300089 A    
C27   C28   1.409127 A    
C9    C10   1.531088 S    
Zn2   O6    2.006186 S    
S4    O24   1.501460 D    
C10   C13   1.544254 S    
C27   S2    1.776698 S    
C11   C12   1.543650 S    
Zn1   N2    2.038060 S    
C3    C26   1.432149 S    
