data_mof_unit_52324.cif
_audit_creation_date              2012-12-10T17:11:04-0500
_audit_creation_method            fapswitch 2.2
_symmetry_space_group_name_H-M    P1
_symmetry_Int_Tables_number       1
_space_group_crystal_system       triclinic
_cell_length_a                    11.661278
_cell_length_b                    13.049849
_cell_length_c                    13.332101
_cell_angle_alpha                 93.034927
_cell_angle_beta                  76.822205
_cell_angle_gamma                 100.385964
_cell_volume                      1942.91158881

loop_
_atom_site_label
_atom_site_type_symbol
_atom_type_description
_atom_site_fract_x
_atom_site_fract_y
_atom_site_fract_z
_atom_type_partial_charge
C1    C     C_R   0.521998 0.700593 0.500150 0.823201
C2    C     C_R   0.439860 0.522812 0.980176 -0.077860
C3    C     C_R   0.469468 0.547660 0.874746 -0.050227
C4    C     C_R   0.530191 0.545718 0.037339 0.042465
C5    C     C_R   0.639634 0.611675 0.995357 0.081091
C6    C     C_R   0.654433 0.656010 0.898633 -0.307761
C7    C     C_R   0.567396 0.628547 0.840295 0.283795
C8    C     C_R   0.515205 0.501429 0.133833 -0.202798
C9    C     C_R   0.708362 0.593879 0.152100 -0.259995
C10   C     C_R   0.394615 0.497271 0.810104 -0.218730
C11   C     C_R   0.467856 0.184159 0.491667 -0.223920
C12   C     C_R   0.436144 0.498047 0.696665 0.886280
C13   C     C_R   0.535891 0.813380 0.500264 -0.047890
C14   C     C_R   0.632131 0.981451 0.549087 -0.182018
C15   C     C_R   0.627799 0.874804 0.538498 -0.207361
C16   C     C_R   0.453656 0.859505 0.465461 -0.240170
C17   C     C_R   0.459751 0.967479 0.470933 0.000082
C18   C     C_R   0.547689 0.029286 0.516839 0.071867
C19   C     C_R   0.548714 0.136951 0.530655 0.142156
C20   C     C_R   0.383846 0.121984 0.441486 0.169355
C21   C     C_R   0.378297 0.014189 0.433316 0.218280
C22   C     C_R   0.946016 0.598929 0.597900 0.124932
C23   C     C_R   0.478858 0.298644 0.497288 0.853398
C24   C     C_R   0.826978 0.588094 0.587443 0.057934
C25   C     C_R   0.856739 0.457460 0.458977 0.007928
C26   C     C_R   0.977086 0.464619 0.466301 0.007458
C27   C     C_R   0.023098 0.536462 0.536215 -0.001283
C28   C     C_R   0.144139 0.542260 0.542435 0.041672
C29   C     C_R   0.171965 0.412476 0.412641 0.085425
C30   C     C_R   0.052491 0.402185 0.404719 -0.303611
C31   C     C_R   0.563582 0.506776 0.303729 0.799980
C32   C     C_R   0.729083 0.635485 0.053372 0.275508
C33   C     C_R   0.600053 0.529420 0.193396 -0.115713
C34   C     C_R   0.280548 0.440638 0.855458 0.347343
C35   C     C_R   0.241067 0.440097 0.962387 -0.301268
C36   C     C_R   0.318271 0.483249 0.025356 0.376830
Cu1   Cu    Cu3+1 0.386470 0.492430 0.492410 0.935693
Cu2   Cu    Cu3+1 0.613530 0.507570 0.507590 0.948102
H1    H     H_    0.774099 0.616898 0.198520 0.157598
H2    H     H_    0.701493 0.024800 0.583802 0.139848
H3    H     H_    0.692982 0.839941 0.564958 0.151111
H4    H     H_    0.384257 0.809826 0.435289 0.158697
H5    H     H_    0.182191 0.595212 0.596026 0.135985
H6    H     H_    0.230219 0.366425 0.362985 0.142062
H7    H     H_    0.019969 0.346987 0.349687 0.145250
H8    H     H_    0.768629 0.636030 0.634018 0.138003
H9    H     H_    0.731391 0.714901 0.869346 0.183520
H10   H     H_    0.820948 0.402804 0.405186 0.132135
H11   H     H_    0.436617 0.445026 0.164750 0.196455
H12   H     H_    0.149081 0.407541 0.996743 0.176456
N1    N     N_R   0.215880 0.481050 0.481000 -0.193162
N2    N     N_R   0.784100 0.518950 0.519000 -0.200920
O1    O     O_R   0.419710 0.645650 0.494620 -0.601052
O2    O     O_R   0.611450 0.658430 0.507430 -0.584860
O3    O     O_R   0.357340 0.490460 0.641450 -0.542958
O4    O     O_R   0.549080 0.503250 0.654260 -0.568927
O5    O     O_R   0.388550 0.341570 0.492570 -0.604743
O6    O     O_R   0.580290 0.354350 0.505380 -0.546460
O7    O     O_R   0.450920 0.496750 0.345740 -0.584053
O8    O     O_R   0.642660 0.509540 0.358550 -0.587919
N3    N     N_2   0.307346 0.165535 0.392826 -0.392748
H13   H     H_    0.250088 0.209102 0.438828 0.258657
C37   C     C_3   0.360943 0.203534 0.289761 -0.654812
H14   H     H_    0.429356 0.274310 0.291918 0.207798
H15   H     H_    0.290799 0.223037 0.253737 0.214317
H16   H     H_    0.403294 0.142575 0.241370 0.231389
N4    N     N_2   0.292730 0.954919 0.382101 -0.401497
H17   H     H_    0.324429 0.900546 0.329055 0.236699
C38   C     C_3   0.177794 0.917347 0.448702 -0.675246
H18   H     H_    0.115241 0.877668 0.401598 0.222225
H19   H     H_    0.139447 0.983413 0.491100 0.239354
H20   H     H_    0.186916 0.860943 0.504744 0.206273
N5    N     N_2   0.985488 0.673782 0.669643 -0.459520
H21   H     H_    0.067302 0.719574 0.641631 0.241228
C39   C     C_3   0.975169 0.632446 0.770409 -0.676098
H22   H     H_    0.999551 0.697077 0.823308 0.239907
H23   H     H_    0.036382 0.575416 0.766061 0.240895
H24   H     H_    0.881899 0.593577 0.802159 0.247383
N6    N     N_2   0.838487 0.703517 0.014512 -0.451172
H25   H     H_    0.911432 0.680918 0.032980 0.248456
C40   C     C_3   0.834397 0.812333 0.038826 -0.722369
H26   H     H_    0.820721 0.825955 0.123420 0.229201
H27   H     H_    0.760923 0.837276 0.011109 0.236730
H28   H     H_    0.920209 0.860463 0.000313 0.228213
O9    O     O_3   0.201455 0.395828 0.795986 -0.560063
C41   C     C_3   0.216386 0.291443 0.774057 0.100998
H29   H     H_    0.188922 0.244834 0.845867 0.129937
H30   H     H_    0.310836 0.286318 0.736378 0.113683
C42   C     C_3   0.138447 0.244463 0.700195 -0.768511
H31   H     H_    0.162929 0.290533 0.628407 0.263405
H32   H     H_    0.151624 0.163043 0.680242 0.185997
H33   H     H_    0.042779 0.244506 0.736581 0.238822
O10   O     O_3   0.269455 0.499141 0.128642 -0.589728
C43   C     C_3   0.255390 0.604901 0.142834 0.078928
H34   H     H_    0.193286 0.623425 0.096718 0.138504
H35   H     H_    0.342781 0.658359 0.120481 0.148414
C44   C     C_3   0.203361 0.626312 0.255607 -0.787315
H36   H     H_    0.113195 0.578460 0.279707 0.253222
H37   H     H_    0.195154 0.709827 0.266935 0.189212
H38   H     H_    0.262983 0.608145 0.303803 0.270141
N7    N     N_2   0.566819 0.695147 0.759002 -0.419456
H39   H     H_    0.648234 0.741279 0.730360 0.236196
C45   C     C_3   0.471522 0.756237 0.783398 -0.719024
H40   H     H_    0.475947 0.806208 0.717676 0.232979
H41   H     H_    0.480386 0.807204 0.851685 0.221563
H42   H     H_    0.382532 0.705119 0.799003 0.230492
N8    N     N_2   0.630727 0.198876 0.583787 -0.394638
H43   H     H_    0.719120 0.191084 0.558589 0.242877
C46   C     C_3   0.589796 0.203083 0.694519 -0.664087
H44   H     H_    0.655582 0.258745 0.727776 0.226935
H45   H     H_    0.580200 0.124975 0.727914 0.211668
H46   H     H_    0.502599 0.230576 0.715382 0.211358

loop_
_geom_bond_atom_site_label_1
_geom_bond_atom_site_label_2
_ccdc_geom_bond_type
C24   N2    A    
C23   O6    A    
C37   H15   S    
O10   C43   S    
N8    C46   S    
N5    H21   S    
C14   C18   A    
C30   H7    S    
C35   C36   A    
C4    C8    A    
C40   H28   S    
C40   H26   S    
O9    C41   S    
C11   C19   A    
C26   C27   A    
N7    H39   S    
Cu1   Cu2   S    
C18   C19   A    
C3    C7    A    
C46   H45   S    
C5    C6    A    
Cu1   N1    S    
C28   N1    A    
C41   H30   S    
Cu2   N2    S    
C9    H1    S    
N3    C37   S    
C34   C35   A    
C31   O7    A    
C20   N3    S    
C38   H19   S    
C1    O1    A    
C9    C32   A    
C40   H27   S    
Cu2   O6    S    
C36   O10   S    
C16   C17   A    
N8    H43   S    
C31   C33   S    
C42   H32   S    
C5    C32   A    
Cu1   O1    S    
C37   H16   S    
N7    C45   S    
C21   N4    S    
C9    C33   A    
N5    C39   S    
C38   H18   S    
C44   H37   S    
C44   H36   S    
C11   C20   A    
C6    H9    S    
N4    H17   S    
C15   H3    S    
C45   H41   S    
C46   H46   S    
N6    C40   S    
C41   H29   S    
C43   C44   S    
C25   C26   A    
C17   C21   A    
C37   H14   S    
N4    C38   S    
C34   O9    S    
C31   O8    A    
C38   H20   S    
C2    C4    A    
C39   H22   S    
C29   C30   A    
Cu2   O2    S    
C35   H12   S    
C17   C18   A    
C43   H34   S    
C10   C34   A    
Cu1   O7    S    
C42   H33   S    
C43   H35   S    
C39   H23   S    
C25   H10   S    
C12   O4    A    
C10   C12   S    
C1    O2    A    
Cu2   O8    S    
C26   C30   A    
C22   C27   A    
C13   C15   A    
C29   H6    S    
C22   C24   A    
C1    C13   S    
C16   H4    S    
C27   C28   A    
C44   H38   S    
C29   N1    A    
C2    C36   A    
C23   O5    A    
C4    C5    A    
C41   C42   S    
C6    C7    A    
C28   H5    S    
C24   H8    S    
C2    C3    A    
C25   N2    A    
C3    C10   A    
C46   H44   S    
C32   N6    S    
C11   C23   S    
C45   H42   S    
C8    C33   A    
N3    H13   S    
C39   H24   S    
C12   O3    A    
C14   H2    S    
N6    H25   S    
Cu1   O3    S    
Cu2   O4    S    
C20   C21   A    
C7    N7    S    
C13   C16   A    
C45   H40   S    
C14   C15   A    
C22   N5    S    
C42   H31   S    
C8    H11   S    
Cu1   O5    S    
C19   N8    S    
