data_mof_unit_47747.cif
_audit_creation_date              2013-03-05T16:19:39-0500
_audit_creation_method            fapswitch 2.2
_symmetry_space_group_name_H-M    P1
_symmetry_Int_Tables_number       1
_space_group_crystal_system       triclinic
_cell_length_a                    10.607572
_cell_length_b                    9.822377
_cell_length_c                    26.874853
_cell_angle_alpha                 90.543707
_cell_angle_beta                  89.651459
_cell_angle_gamma                 89.599189
_cell_volume                      2799.88562426

loop_
_atom_site_label
_atom_site_type_symbol
_atom_site_description
_atom_site_fract_x
_atom_site_fract_y
_atom_site_fract_z
_atom_type_partial_charge
O1    O     O_R   0.314910 0.616040 0.499990 -0.590661
O2    O     O_R   0.314910 0.383960 0.499990 -0.640528
C1    C     C_R   0.258128 0.500189 0.502246 0.831788
O3    O     O_R   0.500140 0.616020 0.428740 -0.585189
O4    O     O_R   0.500140 0.383980 0.428740 -0.599179
C2    C     C_R   0.499029 0.499574 0.405482 0.959010
Zn1   Zn    Zn3+2 0.500150 0.654960 0.499980 0.954553
Zn2   Zn    Zn3+2 0.500150 0.345040 0.499980 0.948616
O5    O     O_R   0.685320 0.616040 0.499970 -0.637386
O6    O     O_R   0.685320 0.383960 0.499970 -0.586141
O7    O     O_R   0.500090 0.616050 0.571230 -0.629797
O8    O     O_R   0.500090 0.383950 0.571230 -0.627531
C3    C     C_R   0.741914 0.499614 0.502579 0.860425
C4    C     C_R   0.495943 0.500880 0.594467 0.836229
C5    C     C_R   0.259676 0.402744 0.184227 0.602422
O9    O     O_2   0.241325 0.284721 0.208430 -0.505226
N1    N     N_R   0.309222 0.511997 0.208902 -0.356998
C6    C     C_R   0.321259 0.635814 0.186732 0.515027
C7    C     C_R   0.489286 0.467646 0.264512 -0.043515
C8    C     C_R   0.539237 0.468149 0.313369 -0.076423
C9    C     C_R   0.330703 0.527207 0.345832 -0.210398
C10   C     C_R   0.281207 0.523618 0.298380 -0.102541
C11   C     C_R   0.359248 0.495026 0.257746 0.239409
C12   C     C_R   0.256985 0.534710 0.108477 -0.047476
C13   C     C_R   0.233314 0.411755 0.133273 -0.023821
C14   C     C_R   0.191322 0.298952 0.106246 -0.116358
C15   C     C_R   0.295352 0.649580 0.136071 -0.025582
C16   C     C_R   0.458442 0.499787 0.353770 -0.037483
H1    H     H_    0.171142 0.203670 0.124562 0.192007
C17   C     C_R   0.465528 0.505171 0.647507 -0.030106
C18   C     C_R   0.216229 0.427151 0.975533 0.045602
C19   C     C_R   0.299264 0.661456 0.979191 0.046255
C20   C     C_R   0.267751 0.542615 0.951558 0.072945
C21   C     C_R   0.176682 0.316189 0.945651 -0.215430
C22   C     C_R   0.198279 0.313593 0.894587 -0.137236
C23   C     C_R   0.259962 0.421328 0.871452 -0.019088
C24   C     C_R   0.292417 0.537277 0.899640 -0.051854
C25   C     C_R   0.353135 0.646286 0.876104 -0.019861
C26   C     C_R   0.386586 0.634391 0.825801 0.504877
N2    N     N_R   0.355375 0.520246 0.799069 -0.353293
C27   C     C_R   0.290913 0.415653 0.820617 0.503379
C28   C     C_R   0.467376 0.405409 0.729500 -0.091428
C29   C     C_R   0.503692 0.400986 0.679465 -0.236858
C30   C     C_R   0.388192 0.611310 0.665581 -0.228421
C31   C     C_R   0.349317 0.613554 0.714933 -0.100554
C32   C     C_R   0.389876 0.511903 0.747403 0.299267
O10   O     O_2   0.256868 0.306684 0.792975 -0.567010
C33   C     C_R   0.212100 0.423922 0.028352 0.045197
C34   C     C_R   0.248348 0.541182 0.055949 0.076647
C35   C     C_R   0.282455 0.663090 0.031506 0.044949
C36   C     C_R   0.180397 0.304749 0.054786 -0.210022
H2    H     H_    0.562164 0.317597 0.665870 0.148020
H3    H     H_    0.499827 0.326663 0.754370 0.155630
H4    H     H_    0.168982 0.224877 0.873487 0.190346
H5    H     H_    0.128996 0.229040 0.960584 0.144786
H6    H     H_    0.152916 0.211369 0.036720 0.141557
O11   O     O_2   0.362549 0.743747 0.213337 -0.506535
C37   C     C_R   0.312519 0.773628 0.112162 -0.108375
C38   C     C_R   0.354937 0.771587 0.953836 -0.214596
C39   C     C_R   0.382086 0.763451 0.903377 -0.134303
O12   O     O_2   0.451949 0.735295 0.803951 -0.563470
C40   C     C_R   0.305059 0.780812 0.060747 -0.215301
H7    H     H_    0.384868 0.863500 0.972306 0.146528
H8    H     H_    0.428036 0.849116 0.885989 0.192443
H9    H     H_    0.288154 0.695121 0.728130 0.153113
H10   H     H_    0.319353 0.879980 0.044954 0.143195
C41   C     C_3   0.071191 0.615088 0.538664 -0.395962
C42   C     C_3   0.072564 0.361297 0.523715 -0.393595
H11   H     H_    0.105592 0.716092 0.526192 0.194842
H12   H     H_    0.105544 0.275817 0.499318 0.218624
H13   H     H_    0.105411 0.599466 0.577289 0.156465
H14   H     H_    0.109135 0.342696 0.561821 0.164669
C43   C     C_3   0.926600 0.616042 0.538165 -0.404347
C44   C     C_3   0.928699 0.361674 0.524689 -0.399871
H15   H     H_    0.889591 0.604129 0.576716 0.159533
H16   H     H_    0.894199 0.346642 0.563447 0.160713
H17   H     H_    0.893350 0.716466 0.524348 0.193334
H18   H     H_    0.895016 0.274415 0.501721 0.213030
H19   H     H_    0.104270 0.621705 0.436244 0.213379
H20   H     H_    0.109512 0.440531 0.425177 0.168661
H21   H     H_    0.890577 0.614313 0.434694 0.204430
H22   H     H_    0.896582 0.431834 0.426847 0.186279
C45   C     C_3   0.072269 0.521724 0.450581 -0.418144
C46   C     C_3   0.121475 0.499749 0.503896 0.182405
C47   C     C_3   0.878453 0.498859 0.504175 0.165553
C48   C     C_3   0.928199 0.518121 0.450645 -0.375673
C49   C     C_3   0.395703 0.082396 0.530351 -0.258048
C50   C     C_3   0.386548 0.922200 0.524881 -0.237977
H23   H     H_    0.304361 0.133085 0.523352 0.195624
H24   H     H_    0.297343 0.896198 0.506326 0.217962
H25   H     H_    0.412151 0.108274 0.570244 0.148971
H26   H     H_    0.376636 0.876859 0.562483 0.137958
C51   C     C_3   0.489273 0.081990 0.445966 -0.170467
C52   C     C_3   0.504616 0.915791 0.445805 -0.171141
C53   C     C_3   0.615479 0.078955 0.522428 -0.233179
C54   C     C_3   0.607016 0.919044 0.527992 -0.264830
N3    N     N_3   0.499750 0.138610 0.498940 -0.092264
N4    N     N_3   0.499750 0.861390 0.498940 -0.093725
H27   H     H_    0.702530 0.104068 0.502096 0.229918
H28   H     H_    0.697262 0.867967 0.518841 0.202053
H29   H     H_    0.629316 0.126047 0.559809 0.140099
H30   H     H_    0.595076 0.894914 0.568177 0.147533
H31   H     H_    0.268835 0.551455 0.376789 0.151322
C55   C     C_2   0.572573 0.448339 0.220218 0.967978
O13   O     O_2   0.672958 0.508444 0.217640 -0.577458
O14   O     O_R   0.535680 0.362647 0.181220 -0.781836
H32   H     H_    0.599573 0.359189 0.153022 0.350664
H33   H     H_    0.336282 0.864932 0.132916 0.204026
H34   H     H_    0.354862 0.690902 0.641194 0.146501
H35   H     H_    0.182460 0.547493 0.292892 0.157668
C56   C     C_2   0.360182 0.130155 0.423729 0.937665
O15   O     O_2   0.260282 0.090776 0.441169 -0.672630
O16   O     O_R   0.355280 0.210915 0.381074 -0.744769
H36   H     H_    0.265932 0.232170 0.370235 0.350798
C57   C     C_2   0.398609 0.857508 0.412421 0.958317
O17   O     O_2   0.311090 0.792531 0.429414 -0.631204
O18   O     O_R   0.400269 0.884887 0.361327 -0.710370
H37   H     H_    0.326164 0.843580 0.343091 0.364933
C58   C     C_2   0.591307 0.138697 0.410228 0.983952
O19   O     O_2   0.584730 0.112736 0.365626 -0.517683
O20   O     O_R   0.694425 0.212832 0.427158 -0.783377
H38   H     H_    0.755132 0.237941 0.399527 0.346585
C59   C     C_2   0.631674 0.867544 0.420712 0.948544
O21   O     O_2   0.632051 0.795687 0.383219 -0.517916
O22   O     O_R   0.747919 0.915066 0.437770 -0.849907
H39   H     H_    0.822095 0.878418 0.417650 0.358022
C60   C     C_2   0.674568 0.439302 0.321927 0.938285
O23   O     O_2   0.724453 0.338825 0.302880 -0.563181
O24   O     O_R   0.745939 0.529769 0.350283 -0.788744
H40   H     H_    0.839165 0.506910 0.348785 0.332755

loop_
_geom_bond_atom_site_label_1
_geom_bond_atom_site_label_2
_geom_bond_distance
_ccdc_geom_bond_type
C37   C40   1.386948 A    
C49   C50   1.582680 S    
C51   C52   1.639397 S    
Zn1   N4    2.028067 S    
C49   H25   1.114550 S    
C53   C54   1.582336 S    
C12   C15   1.408143 A    
C55   O14   1.397475 S    
C59   O21   1.224705 D    
C47   C48   1.543101 S    
Zn1   O7    1.956155 S    
N1    C11   1.429637 S    
C44   H16   1.113430 S    
C23   C24   1.407746 A    
C36   H6    1.076565 S    
C54   H30   1.114517 S    
H20   C45   1.113635 S    
C28   H3    1.082770 S    
O4    C2    1.301287 A    
O7    C4    1.298230 A    
C53   H27   1.100772 S    
C29   H2    1.083300 S    
C59   O22   1.399790 S    
O14   H32   1.013752 S    
C52   N4    1.530140 S    
C42   C44   1.526103 S    
C5    O9    1.349366 S    
C5    N1    1.366085 A    
C21   C22   1.389915 A    
C28   C32   1.405376 A    
O5    C3    1.290548 A    
C52   C57   1.551995 S    
C33   C36   1.416463 A    
C2    C16   1.457437 S    
C7    C8    1.418863 A    
C10   H35   1.083064 S    
C54   N4    1.495463 S    
C53   H29   1.112951 S    
C18   C20   1.420691 A    
C41   C43   1.533861 S    
C37   H33   1.083653 S    
H21   C48   1.113658 S    
Zn2   O8    1.949040 S    
C30   H34   1.083706 S    
C21   H5    1.076935 S    
C9    C10   1.382304 A    
C22   H4    1.083535 S    
C43   H15   1.113206 S    
C17   C30   1.403350 A    
C23   C27   1.403653 A    
C4    C17   1.459733 S    
O3    Zn1   1.948835 S    
C55   O13   1.223064 D    
C58   O20   1.394509 S    
C26   O12   1.350402 S    
C40   H10   1.077534 S    
C42   C46   1.556449 S    
C50   H26   1.112891 S    
C12   C13   1.408245 A    
C8    C60   1.481056 S    
O3    C2    1.298360 A    
C26   N2    1.369513 A    
C8    C16   1.410155 A    
C57   O18   1.401744 S    
C13   C14   1.396131 A    
H22   C48   1.111825 S    
O6    C3    1.290097 A    
C20   C24   1.418449 A    
O1    C1    1.292989 A    
C22   C23   1.397039 A    
C7    C11   1.416641 A    
Zn2   N3    2.027596 S    
C60   O24   1.395387 S    
C24   C25   1.406745 A    
C7    C55   1.487987 S    
C6    O11   1.350167 S    
C45   C46   1.544491 S    
C42   H14   1.113558 S    
C43   C47   1.553728 S    
N1    C6    1.365796 A    
C27   O10   1.349623 S    
C18   C21   1.415163 A    
C56   O16   1.401255 S    
C19   C35   1.416076 A    
O20   H38   1.013316 S    
C51   C56   1.569169 S    
C25   C39   1.395581 A    
C42   H12   1.113512 S    
N2    C27   1.369190 A    
C9    C16   1.397700 A    
C50   H24   1.102731 S    
C18   C33   1.420560 A    
C49   H23   1.104231 S    
C31   H9    1.083115 S    
O22   H39   1.014031 S    
C35   C40   1.414571 A    
C17   C29   1.401404 A    
C28   C29   1.396705 A    
N2    C32   1.435231 S    
C60   O23   1.223053 D    
C51   N3    1.528488 S    
C30   C31   1.386479 A    
O16   H36   1.014118 S    
C12   C34   1.417189 A    
Zn1   O5    1.998431 S    
C33   C34   1.420550 A    
C56   O15   1.222847 D    
O1    Zn1   2.004411 S    
O2    Zn2   1.999160 S    
C6    C15   1.398219 A    
O8    C4    1.302451 A    
C15   C37   1.395423 A    
O4    Zn2   1.955953 S    
C58   O19   1.225626 D    
C53   N3    1.501731 S    
C38   H7    1.076874 S    
C39   H8    1.083694 S    
C19   C20   1.420511 A    
O2    C1    1.287801 A    
O24   H40   1.013008 S    
O18   H37   1.013954 S    
C52   C59   1.571554 S    
H19   C45   1.112819 S    
C25   C26   1.399180 A    
C41   C46   1.551267 S    
C54   H28   1.103026 S    
C41   H13   1.113402 S    
C44   C47   1.552855 S    
C5    C13   1.402818 A    
C9    H31   1.080255 S    
C31   C32   1.399488 A    
C38   C39   1.386053 A    
C45   C48   1.528878 S    
C14   H1    1.083637 S    
Zn2   O6    2.003682 S    
C34   C35   1.419280 A    
C44   H18   1.113643 S    
C3    C47   1.449203 S    
C1    C46   1.450002 S    
C43   H17   1.113089 S    
C10   C11   1.391643 A    
C51   C58   1.552447 S    
C19   C38   1.414666 A    
C41   H11   1.113404 S    
C14   C36   1.390222 A    
C50   N4    1.502197 S    
C57   O17   1.219190 D    
C49   N3    1.497214 S    
