data_mof_unit_38381.cif
_audit_creation_date              2012-12-10T18:47:00-0500
_audit_creation_method            fapswitch 2.2
_symmetry_space_group_name_H-M    P1
_symmetry_Int_Tables_number       1
_space_group_crystal_system       triclinic
_cell_length_a                    10.680622
_cell_length_b                    9.845611
_cell_length_c                    14.957551
_cell_angle_alpha                 90.352399
_cell_angle_beta                  90.863116
_cell_angle_gamma                 89.872065
_cell_volume                      1572.68310616

loop_
_atom_site_label
_atom_site_type_symbol
_atom_type_description
_atom_site_fract_x
_atom_site_fract_y
_atom_site_fract_z
_atom_type_partial_charge
C1    C     C_R   0.259955 0.500159 0.500508 0.870479
C2    C     C_R   0.740055 0.499865 0.499710 0.870600
C3    C     C_R   0.288080 0.403446 0.040033 -0.181895
C4    C     C_R   0.716994 0.582109 0.959840 -0.172381
C5    C     C_R   0.064834 0.382334 0.525434 -0.213228
C6    C     C_R   0.935196 0.617945 0.475425 -0.215824
C7    C     C_R   0.936666 0.381726 0.524155 -0.212396
C8    C     C_R   0.063356 0.618519 0.476628 -0.218742
C9    C     C_R   0.872458 0.499622 0.499339 0.009660
C10   C     C_R   0.127566 0.500556 0.501336 0.008629
C11   C     C_R   0.594591 0.072081 0.541118 -0.069022
C12   C     C_R   0.405396 0.927928 0.458907 -0.069313
C13   C     C_R   0.405330 0.071734 0.459076 -0.083612
C14   C     C_R   0.594629 0.928266 0.541017 -0.081831
C15   C     C_R   0.496040 0.499516 0.327149 0.894798
C16   C     C_R   0.503802 0.500414 0.672806 0.894857
C17   C     C_R   0.614426 0.540995 0.815604 -0.060634
C18   C     C_R   0.389452 0.448380 0.184213 -0.061474
C19   C     C_R   0.506781 0.500938 0.768080 -0.077136
C20   C     C_R   0.493675 0.497866 0.231782 -0.077856
C21   C     C_R   0.400073 0.456601 0.810401 -0.273748
C22   C     C_R   0.599571 0.544255 0.189400 -0.277660
C23   C     C_R   0.396640 0.449495 0.903109 0.034670
C24   C     C_R   0.607423 0.539014 0.096740 0.032812
C25   C     C_R   0.503451 0.493603 0.953103 0.051895
C26   C     C_R   0.501182 0.493298 0.046743 0.055271
C27   C     C_R   0.612310 0.539286 0.909353 0.038739
C28   C     C_R   0.392113 0.448223 0.090491 0.040430
C29   C     C_R   0.288652 0.402738 0.947012 -0.012283
C30   C     C_R   0.717203 0.580706 0.052851 -0.025359
H1    H     H_    0.319829 0.430104 0.769048 0.118224
H2    H     H_    0.674983 0.584058 0.230709 0.123498
H3    H     H_    0.205284 0.366698 0.072905 0.206469
H4    H     H_    0.800783 0.615975 0.926964 0.213766
H5    H     H_    0.114460 0.290994 0.545287 0.153277
H6    H     H_    0.885590 0.709301 0.455580 0.155412
H7    H     H_    0.888221 0.290215 0.543632 0.148031
H8    H     H_    0.111779 0.710018 0.457105 0.149787
H9    H     H_    0.670216 0.126561 0.574105 0.119848
H10   H     H_    0.329740 0.873469 0.425941 0.119781
H11   H     H_    0.329450 0.125988 0.426733 0.131545
H12   H     H_    0.670438 0.874052 0.573563 0.125231
N1    N     N_R   0.500000 0.857200 0.500000 -0.077355
N2    N     N_R   0.500000 0.142800 0.500000 -0.077911
O1    O     O_R   0.316770 0.614620 0.499990 -0.635998
O2    O     O_R   0.683230 0.385380 0.500010 -0.635522
O3    O     O_R   0.683230 0.614620 0.500010 -0.628147
O4    O     O_R   0.316770 0.385380 0.499990 -0.627241
O5    O     O_R   0.499980 0.614680 0.367850 -0.617576
O6    O     O_R   0.500020 0.385320 0.632150 -0.618142
O7    O     O_R   0.500020 0.614680 0.632150 -0.616350
O8    O     O_R   0.499980 0.385320 0.367850 -0.613154
Zn1   Zn    Zn3+2 0.500000 0.653120 0.500000 0.948351
Zn2   Zn    Zn3+2 0.500000 0.346880 0.500000 0.949719
C31   C     C_R   0.729532 0.580418 0.767704 0.063055
C32   C     C_R   0.829874 0.488554 0.761689 -0.152236
C33   C     C_R   0.944165 0.530679 0.727096 -0.090981
C34   C     C_R   0.958380 0.663947 0.697354 -0.080347
C35   C     C_R   0.858013 0.755004 0.701449 -0.149491
C36   C     C_R   0.743950 0.713746 0.736986 -0.112318
H13   H     H_    0.820563 0.385874 0.786246 0.153952
H14   H     H_    0.021949 0.460283 0.723781 0.130009
H15   H     H_    0.047076 0.696512 0.670887 0.134599
H16   H     H_    0.869232 0.858132 0.678311 0.118949
H17   H     H_    0.667960 0.786187 0.742472 0.137576
C37   C     C_R   0.276976 0.401403 0.232154 0.078439
C38   C     C_R   0.265311 0.264255 0.255506 -0.118066
C39   C     C_R   0.154059 0.217082 0.292286 -0.154792
C40   C     C_R   0.053944 0.306256 0.305332 -0.081472
C41   C     C_R   0.065369 0.443048 0.282534 -0.113792
C42   C     C_R   0.176732 0.490934 0.246416 -0.158397
H18   H     H_    0.341422 0.193803 0.243779 0.136925
H19   H     H_    0.145005 0.111117 0.309845 0.121328
H20   H     H_    0.967595 0.269470 0.333266 0.133854
H21   H     H_    0.987829 0.511900 0.292845 0.131575
H22   H     H_    0.183946 0.596661 0.227653 0.149300
C43   C     C_2   0.175797 0.349708 0.898476 0.398272
H23   H     H_    0.181869 0.307884 0.831583 0.042466
O9    O     O_2   0.073443 0.350070 0.933851 -0.563387
C44   C     C_2   0.835031 0.619265 0.101379 0.435713
H24   H     H_    0.853158 0.587551 0.169402 0.034122
O10   O     O_2   0.915791 0.685534 0.064676 -0.558844

loop_
_geom_bond_atom_site_label_1
_geom_bond_atom_site_label_2
_ccdc_geom_bond_type
C31   C32   A    
C16   O7    A    
C6    C9    A    
C13   H11   S    
C33   H14   S    
C43   H23   S    
C2    O2    A    
O4    Zn2   S    
C21   H1    S    
C35   H16   S    
O6    Zn2   S    
C22   H2    S    
C23   C29   A    
C3    C28   A    
C19   C21   A    
C24   C26   A    
C12   N1    A    
C42   H22   S    
C11   C14   A    
C3    H3    S    
C32   C33   A    
C38   H18   S    
C3    C29   A    
N1    Zn1   S    
C39   C40   A    
C41   C42   A    
C17   C31   S    
O3    Zn1   S    
C30   C44   S    
C39   H19   S    
C23   C25   A    
C37   C38   A    
O1    Zn1   S    
C35   C36   A    
C31   C36   A    
C8    H8    S    
O8    Zn2   S    
C43   O9    D    
C15   C20   S    
C4    H4    S    
C38   C39   A    
C17   C27   A    
C11   N2    A    
C18   C28   A    
C44   O10   D    
C5    C7    A    
C6    C8    A    
C25   C26   A    
O7    Zn1   S    
C12   H10   S    
C37   C42   A    
O2    Zn2   S    
C7    H7    S    
C40   H20   S    
C15   O8    A    
C11   H9    S    
C20   C22   A    
C36   H17   S    
C21   C23   A    
C22   C24   A    
C18   C37   S    
C4    C27   A    
C34   H15   S    
C7    C9    A    
C1    C10   S    
C16   O6    A    
C44   H24   S    
C1    O4    A    
C2    O3    A    
C25   C27   A    
C26   C28   A    
C14   H12   S    
C34   C35   A    
C5    C10   A    
C1    O1    A    
C33   C34   A    
C16   C19   S    
O5    Zn1   S    
C5    H5    S    
C17   C19   A    
C6    H6    S    
C18   C20   A    
C15   O5    A    
C40   C41   A    
C24   C30   A    
N2    Zn2   S    
C29   C43   S    
C12   C13   A    
C8    C10   A    
C41   H21   S    
C32   H13   S    
C2    C9    S    
C13   N2    A    
C4    C30   A    
C14   N1    A    
