data_mof_unit_11890.cif
_audit_creation_date              2012-12-10T18:57:10-0500
_audit_creation_method            fapswitch 2.2
_symmetry_space_group_name_H-M    P1
_symmetry_Int_Tables_number       1
_space_group_crystal_system       triclinic
_cell_length_a                    8.727821
_cell_length_b                    10.846847
_cell_length_c                    9.571662
_cell_angle_alpha                 90.855829
_cell_angle_beta                  98.287148
_cell_angle_gamma                 90.649373
_cell_volume                      896.49778449

loop_
_atom_site_label
_atom_site_type_symbol
_atom_type_description
_atom_site_fract_x
_atom_site_fract_y
_atom_site_fract_z
_atom_type_partial_charge
C1    C     C_R   0.495488 0.262524 0.498426 0.815619
C2    C     C_R   0.474486 0.933873 0.368319 -0.213860
C3    C     C_R   0.480307 0.871219 0.496971 -0.097620
C4    C     C_R   0.460041 0.939311 0.617866 0.131471
C5    C     C_3   0.548498 0.939882 0.763574 -0.491016
C6    C     C_3   0.545218 0.079375 0.761346 -0.436846
C7    C     C_R   0.625743 0.542586 0.090851 0.222428
C8    C     C_R   0.388752 0.437325 0.056704 0.320176
C9    C     C_R   0.387331 0.440460 0.908384 -0.114297
C10   C     C_R   0.626883 0.540788 0.944156 0.261186
C11   C     C_3   0.702311 0.664625 0.950099 -0.501920
C12   C     C_R   0.203807 0.499952 0.463609 0.903600
C13   C     C_3   0.699681 0.667057 0.108599 -0.482304
C14   C     C_R   0.496890 0.737856 0.500155 0.788582
C15   C     C_R   0.796185 0.500131 0.536406 0.879414
C16   C     C_2   0.037607 0.499835 0.443838 -0.343638
C17   C     C_2   0.962389 0.500218 0.556171 -0.376663
C18   C     C_R   0.458353 0.066279 0.615976 0.124668
C19   C     C_R   0.477143 0.129650 0.493909 -0.098400
C20   C     C_R   0.473270 0.062507 0.366802 -0.178677
Cu1   Cu    Cu3+1 0.499990 0.499980 0.640670 0.948777
Cu2   Cu    Cu3+1 0.500010 0.500020 0.359330 0.985664
H1    H     H_    0.976985 0.499327 0.336322 0.187426
H2    H     H_    0.296042 0.393061 0.838815 0.171875
H3    H     H_    0.820978 0.661355 0.920954 0.202912
H4    H     H_    0.624990 0.732487 0.893573 0.211708
H5    H     H_    0.817113 0.664870 0.171325 0.201342
H6    H     H_    0.621686 0.738155 0.142656 0.206780
H7    H     H_    0.023036 0.500608 0.663690 0.178680
H8    H     H_    0.478036 0.108641 0.267914 0.190572
H9    H     H_    0.478859 0.884515 0.269933 0.162534
H10   H     H_    0.478674 0.901331 0.841387 0.200723
H11   H     H_    0.667345 0.903220 0.766272 0.201017
H12   H     H_    0.473274 0.120076 0.836675 0.210942
H13   H     H_    0.661667 0.122712 0.763494 0.206865
N1    N     N_R   0.500980 0.500930 0.148050 -0.212698
N2    N     N_R   0.500990 0.500890 0.852140 -0.210867
O1    O     O_R   0.500000 0.319640 0.618810 -0.587837
O2    O     O_R   0.500020 0.319680 0.381230 -0.553376
O3    O     O_R   0.274830 0.499980 0.591380 -0.591656
O4    O     O_R   0.274850 0.500020 0.353800 -0.539447
O5    O     O_R   0.499980 0.680320 0.618770 -0.581236
O6    O     O_R   0.500000 0.680360 0.381190 -0.591467
O7    O     O_R   0.725150 0.499980 0.646200 -0.583592
O8    O     O_R   0.725170 0.500020 0.408620 -0.576508
Br1   Br    Br    0.236055 0.331608 0.119291 -0.551038

loop_
_geom_bond_atom_site_label_1
_geom_bond_atom_site_label_2
_ccdc_geom_bond_type
C12   O3    A    
C7    C10   A    
C13   H6    S    
C12   O4    A    
Cu1   O7    S    
C17   H7    S    
C7    N1    A    
C13   H5    S    
C19   C20   A    
C14   O5    A    
C5    H10   S    
C4    C18   A    
C9    N2    A    
C2    C3    A    
C9    H2    S    
C20   H8    S    
Cu1   Cu2   S    
C4    C5    S    
C11   C13   S    
C16   C17   D    
C3    C14   S    
C1    O1    A    
C10   N2    A    
Cu2   O2    S    
C15   O7    A    
C16   H1    S    
C2    H9    S    
C5    C6    S    
C6    C18   S    
C8    Br1   S    
C1    C19   S    
Cu2   O4    S    
C10   C11   S    
C1    O2    A    
C2    C20   A    
C3    C4    A    
C12   C16   S    
C7    C13   S    
Cu2   O8    S    
Cu1   N2    S    
C6    H13   S    
C18   C19   A    
C8    N1    A    
C15   C17   S    
C11   H3    S    
C8    C9    A    
Cu1   O5    S    
C11   H4    S    
Cu2   O6    S    
Cu2   N1    S    
Cu1   O1    S    
C6    H12   S    
C5    H11   S    
C14   O6    A    
C15   O8    A    
Cu1   O3    S    
