data_mof_unit_30027.cif
_audit_creation_date              2013-03-05T16:02:41-0500
_audit_creation_method            fapswitch 2.2
_symmetry_space_group_name_H-M    P1
_symmetry_Int_Tables_number       1
_space_group_crystal_system       triclinic
_cell_length_a                    14.822694
_cell_length_b                    14.213845
_cell_length_c                    15.755167
_cell_angle_alpha                 90.501115
_cell_angle_beta                  88.407433
_cell_angle_gamma                 90.772856
_cell_volume                      3317.71593346

loop_
_atom_site_label
_atom_site_type_symbol
_atom_site_description
_atom_site_fract_x
_atom_site_fract_y
_atom_site_fract_z
_atom_type_partial_charge
O1    O     O_R   0.367860 0.580280 0.500020 -0.618735
O2    O     O_R   0.367860 0.419720 0.500020 -0.634553
C1    C     C_R   0.327407 0.499266 0.499658 0.899496
O3    O     O_R   0.500020 0.580310 0.377140 -0.603865
O4    O     O_R   0.500020 0.419690 0.377140 -0.622504
C2    C     C_R   0.499781 0.499623 0.338765 0.933668
Zn1   Zn    Zn3+2 0.500020 0.607200 0.499990 0.970409
Zn2   Zn    Zn3+2 0.500020 0.392800 0.499990 0.966045
O5    O     O_R   0.632160 0.580270 0.499980 -0.609754
O6    O     O_R   0.632160 0.419730 0.499980 -0.634008
O7    O     O_R   0.500010 0.580240 0.622850 -0.634699
O8    O     O_R   0.500010 0.419760 0.622850 -0.588857
C3    C     C_R   0.672779 0.500338 0.498651 0.967933
C4    C     C_R   0.499217 0.500312 0.661267 0.883494
C5    C     C_3   0.437305 0.591059 0.054923 0.230422
C6    C     C_3   0.442755 0.398671 0.051983 0.240884
C7    C     C_3   0.450404 0.393056 0.948030 0.276380
C8    C     C_3   0.419196 0.579026 0.952314 0.239044
C9    C     C_1   0.494880 0.500530 0.749680 -0.148041
C10   C     C_3   0.493186 0.497173 0.083454 -0.091286
C11   C     C_3   0.488302 0.496540 0.916778 -0.086627
C12   C     C_3   0.593173 0.514923 0.945979 0.309455
C13   C     C_3   0.597490 0.502157 0.047250 0.211888
C14   C     C_1   0.490837 0.498934 0.824810 0.122483
C15   C     C_1   0.495783 0.497765 0.175358 0.122857
C16   C     C_1   0.497869 0.498694 0.250437 -0.074203
C17   C     C_R   0.813742 0.503353 0.415956 0.263255
C18   C     C_R   0.768829 0.499368 0.495178 -0.196127
C19   C     C_R   0.813975 0.479086 0.569477 0.114867
C20   C     C_R   0.904184 0.450751 0.561519 0.104609
C21   C     C_R   0.953256 0.476060 0.486463 -0.066484
C22   C     C_R   0.908176 0.505292 0.413413 -0.116679
C23   C     C_R   0.947015 0.396688 0.623673 0.158762
C24   C     C_R   0.042233 0.395094 0.623001 0.145801
C25   C     C_R   0.090843 0.448389 0.560831 0.094631
C26   C     C_R   0.047213 0.475368 0.486171 -0.051058
C27   C     C_R   0.097661 0.505715 0.413331 -0.026769
C28   C     C_R   0.052505 0.542238 0.342904 0.204278
C29   C     C_R   0.958007 0.539345 0.341956 0.247193
C30   C     C_R   0.181438 0.475368 0.569059 0.022540
C31   C     C_R   0.231736 0.495664 0.494966 -0.080021
C32   C     C_R   0.192215 0.500648 0.415260 0.141253
C33   C     C_R   0.574792 0.801214 0.472412 0.192181
C34   C     C_R   0.578564 0.201459 0.482100 0.233758
N1    N     N_R   0.500070 0.750030 0.500040 -0.111702
N2    N     N_R   0.500070 0.249970 0.500040 -0.115820
C35   C     C_R   0.426171 0.798221 0.532676 0.263637
C36   C     C_R   0.420467 0.198846 0.506520 0.240979
C37   C     C_R   0.420606 0.898417 0.524056 0.002780
C38   C     C_R   0.420790 0.099895 0.522545 0.008398
C39   C     C_R   0.501237 0.949893 0.508245 -0.036059
C40   C     C_R   0.501694 0.050487 0.509405 -0.038390
C41   C     C_R   0.581001 0.900547 0.488231 -0.108670
C42   C     C_R   0.582421 0.101572 0.493460 -0.112701
C43   C     C_R   0.338617 0.949018 0.535435 0.160102
C44   C     C_R   0.340926 0.048191 0.544617 0.177024
C45   C     C_R   0.664713 0.051261 0.488791 0.226439
C46   C     C_R   0.663967 0.951819 0.484560 0.218590
N3    N     N_R   0.323436 0.552000 0.933823 0.208211
O9    O     O_R   0.256819 0.593246 0.973767 -0.367746
O10   O     O_R   0.305012 0.529132 0.855977 -0.345849
N4    N     N_R   0.362749 0.365997 0.908598 0.257364
O11   O     O_R   0.310957 0.302555 0.944821 -0.344127
O12   O     O_R   0.358802 0.366444 0.826026 -0.356347
C47   C     C_3   0.090123 0.327957 0.680750 -0.814724
H1    H     H_    0.064010 0.255171 0.672386 0.246470
H2    H     H_    0.163082 0.322214 0.665160 0.251275
H3    H     H_    0.080353 0.350016 0.748106 0.267883
C48   C     C_3   0.223169 0.492566 0.654910 -0.764113
H4    H     H_    0.172144 0.491906 0.707705 0.279878
H5    H     H_    0.275741 0.439622 0.666518 0.258221
H6    H     H_    0.255299 0.563578 0.656188 0.233166
C49   C     C_3   0.251232 0.493757 0.335036 -0.822981
H7    H     H_    0.212457 0.471249 0.279137 0.263440
H8    H     H_    0.286573 0.561801 0.322710 0.259898
H9    H     H_    0.302422 0.438275 0.341755 0.207698
N5    N     N_R   0.100339 0.597897 0.280145 0.222728
O13   O     O_R   0.144360 0.673321 0.303090 -0.351651
O14   O     O_R   0.096451 0.576276 0.199907 -0.314828
N6    N     N_R   0.913673 0.586215 0.274784 0.263564
O15   O     O_R   0.912175 0.548933 0.199122 -0.283253
O16   O     O_R   0.877189 0.667849 0.288730 -0.301216
C50   C     C_3   0.644452 0.755064 0.415413 -0.566641
H10   H     H_    0.613701 0.697423 0.378929 0.275879
H11   H     H_    0.670762 0.805164 0.366753 0.231422
H12   H     H_    0.701325 0.728756 0.452285 0.267721
C51   C     C_3   0.650315 0.247425 0.426009 -0.624161
H13   H     H_    0.621746 0.304532 0.388411 0.262959
H14   H     H_    0.707426 0.274018 0.463773 0.262330
H15   H     H_    0.676468 0.196931 0.377416 0.227648
C52   C     C_3   0.359396 0.749044 0.591865 -0.802560
H16   H     H_    0.336497 0.797474 0.643496 0.217785
H17   H     H_    0.300055 0.721871 0.557723 0.248768
H18   H     H_    0.390379 0.691342 0.625632 0.267720
C53   C     C_3   0.338906 0.236879 0.463765 -0.764516
H19   H     H_    0.301144 0.180132 0.430633 0.223716
H20   H     H_    0.292267 0.271269 0.510305 0.243064
H21   H     H_    0.360373 0.285180 0.411888 0.262707
C54   C     C_3   0.247461 0.901484 0.524091 -0.815059
H22   H     H_    0.199354 0.950053 0.494999 0.264792
H23   H     H_    0.252912 0.841612 0.478688 0.258211
H24   H     H_    0.217953 0.878355 0.586051 0.245368
C55   C     C_3   0.260545 0.096218 0.587084 -0.865127
H25   H     H_    0.229937 0.050566 0.637286 0.263316
H26   H     H_    0.281257 0.162127 0.619906 0.250184
H27   H     H_    0.208358 0.111451 0.540151 0.249524
N7    N     N_R   0.749060 0.099723 0.501012 0.219737
O17   O     O_R   0.761455 0.148032 0.570349 -0.394323
O18   O     O_R   0.812954 0.097109 0.442783 -0.311238
N8    N     N_R   0.747894 0.903547 0.490692 0.220766
O19   O     O_R   0.807871 0.906996 0.428892 -0.291058
O20   O     O_R   0.763997 0.855090 0.558167 -0.364335
C56   C     C_3   0.349536 0.609459 0.111608 -0.607331
H28   H     H_    0.292798 0.559862 0.110773 0.238517
H29   H     H_    0.365226 0.616285 0.179832 0.220152
H30   H     H_    0.320968 0.678592 0.094825 0.289726
C57   C     C_3   0.343238 0.396186 0.087522 -0.688982
H31   H     H_    0.338258 0.422784 0.153804 0.195602
H32   H     H_    0.295704 0.432053 0.046660 0.258057
H33   H     H_    0.316085 0.323300 0.093794 0.298625
N9    N     N_R   0.479766 0.311786 0.090154 0.213096
O21   O     O_R   0.508369 0.312471 0.167490 -0.394370
O22   O     O_R   0.453407 0.229971 0.061391 -0.335594
N10   N     N_R   0.489761 0.678195 0.077002 0.198969
O23   O     O_R   0.516561 0.687800 0.154833 -0.389202
O24   O     O_R   0.474542 0.757451 0.039802 -0.378914
C58   C     C_3   0.511435 0.311077 0.912214 -0.680631
H34   H     H_    0.471361 0.245194 0.903069 0.287328
H35   H     H_    0.539246 0.326316 0.847685 0.217285
H36   H     H_    0.564753 0.286490 0.952246 0.211818
C59   C     C_3   0.426597 0.673059 0.899596 -0.637399
H37   H     H_    0.410376 0.660553 0.832037 0.218005
H38   H     H_    0.374409 0.722979 0.923350 0.276658
H39   H     H_    0.489705 0.713097 0.895403 0.224792
C60   C     C_3   0.659399 0.579977 0.090358 -0.616716
H40   H     H_    0.731119 0.572459 0.068946 0.235109
H41   H     H_    0.647614 0.654165 0.077002 0.259069
H42   H     H_    0.658247 0.573344 0.160490 0.285725
C61   C     C_3   0.651949 0.413385 0.074508 -0.698622
H43   H     H_    0.652107 0.406889 0.144728 0.289355
H44   H     H_    0.630116 0.345884 0.049873 0.235621
H45   H     H_    0.724199 0.418062 0.053868 0.238672
C62   C     C_3   0.627662 0.615014 0.917419 -0.833401
H46   H     H_    0.600101 0.672571 0.955673 0.257150
H47   H     H_    0.701658 0.624656 0.924427 0.250633
H48   H     H_    0.614959 0.627975 0.849414 0.239425
C63   C     C_3   0.665511 0.452494 0.896850 -0.843035
H49   H     H_    0.659780 0.457215 0.826975 0.235565
H50   H     H_    0.735308 0.476281 0.911011 0.246738
H51   H     H_    0.667735 0.378016 0.912803 0.232382
N11   N     N_R   0.763815 0.497688 0.339173 0.207454
O25   O     O_R   0.777310 0.428207 0.286238 -0.368889
O26   O     O_R   0.703895 0.560296 0.322633 -0.427379
C64   C     C_3   0.767523 0.497552 0.655009 -0.890753
H52   H     H_    0.737480 0.568736 0.655456 0.255240
H53   H     H_    0.712570 0.445072 0.666953 0.230912
H54   H     H_    0.815303 0.497220 0.707909 0.259625
C65   C     C_3   0.893066 0.332014 0.682970 -0.791836
H55   H     H_    0.820747 0.327324 0.667807 0.266234
H56   H     H_    0.916259 0.258529 0.676071 0.267019
H57   H     H_    0.900278 0.355566 0.749833 0.237013

loop_
_geom_bond_atom_site_label_1
_geom_bond_atom_site_label_2
_geom_bond_distance
_ccdc_geom_bond_type
C5    C8    1.653122 S    
C43   C44   1.415826 A    
C36   C53   1.508909 S    
C60   H42   1.109417 S    
C8    C11   1.651178 S    
C33   C50   1.503112 S    
C49   H7    1.107513 S    
C63   H49   1.109199 S    
C51   H13   1.104857 S    
C59   H39   1.089082 S    
C53   H21   1.109108 S    
C60   H40   1.112598 S    
C35   C37   1.435517 A    
N5    O13   1.301243 A    
Zn1   O7    1.976527 S    
C27   C28   1.417544 A    
C9    C14   1.183936 T    
O4    C2    1.291768 A    
Zn1   N1    2.030147 S    
C13   C61   1.576193 S    
C18   C19   1.398512 A    
C63   H50   1.111994 S    
C57   H32   1.100657 S    
C20   C21   1.417543 A    
O7    C4    1.291679 A    
C10   C15   1.449497 S    
C62   H46   1.089108 S    
C62   H47   1.111940 S    
Zn1   O5    2.000781 S    
C24   C25   1.418265 A    
C31   C32   1.403110 A    
C22   C29   1.414556 A    
C27   C32   1.405556 A    
C48   H5    1.110470 S    
O5    C3    1.292702 A    
N8    O19   1.300896 A    
N4    O12   1.303950 A    
C65   H57   1.110114 S    
C33   C41   1.433763 A    
C1    C31   1.422276 S    
C53   H19   1.110435 S    
C40   C42   1.408993 A    
C6    C7    1.639899 S    
C37   C39   1.410272 A    
C12   C62   1.570548 S    
C38   C40   1.407321 A    
N11   O25   1.300981 A    
C5    C56   1.580829 S    
C3    C18   1.423508 S    
C34   C51   1.509322 S    
C21   C26   1.392737 A    
C64   H53   1.110352 S    
C6    C10   1.656839 S    
C56   H30   1.112134 S    
C36   C38   1.431222 A    
N3    O9    1.299772 A    
C46   N8    1.434767 S    
C11   C12   1.650141 S    
C65   H56   1.107527 S    
N7    O18   1.300788 A    
C8    C59   1.580746 S    
O3    Zn1   1.969617 S    
C24   C47   1.520438 S    
C34   N2    1.381669 A    
Zn2   N2    2.030182 S    
N1    C35   1.384277 A    
C5    C10   1.652272 S    
N2    C36   1.379194 A    
N3    O10   1.301426 A    
C30   C48   1.519392 S    
C39   C40   1.429699 A    
C63   H51   1.091319 S    
C28   C29   1.401253 A    
C64   H54   1.108700 S    
N6    O16   1.301140 A    
C5    N10   1.497014 S    
C57   H33   1.110572 S    
C52   H16   1.109935 S    
C7    C58   1.575798 S    
C47   H2    1.106255 S    
C15   C16   1.184098 T    
C37   C43   1.426746 A    
C38   C44   1.421458 A    
O1    C1    1.291137 A    
C25   C26   1.416260 A    
C48   H6    1.110512 S    
C6    N9    1.495790 S    
C58   H35   1.108426 S    
C19   C20   1.403640 A    
C7    N4    1.499732 S    
C52   H17   1.107124 S    
C50   H10   1.098040 S    
C10   C13   1.633846 S    
Zn2   O8    1.969952 S    
C47   H3    1.110094 S    
C50   H12   1.107917 S    
N4    O11   1.301609 A    
C23   C24   1.411620 A    
N9    O21   1.301087 A    
N5    O14   1.301016 A    
C55   H26   1.109909 S    
C33   N1    1.379310 A    
C64   H52   1.110832 S    
C41   C46   1.421073 A    
O3    C2    1.291802 A    
C30   C31   1.397677 A    
C54   H23   1.109254 S    
O8    C4    1.290451 A    
C51   H14   1.108575 S    
C65   H55   1.105743 S    
C49   H9    1.109462 S    
C11   C14   1.449107 S    
C62   H48   1.110371 S    
C49   H8    1.109727 S    
N7    O17   1.301244 A    
C58   H34   1.112633 S    
C17   C18   1.399404 A    
C23   C65   1.520187 S    
N10   O24   1.299701 A    
C56   H28   1.090374 S    
C60   H41   1.094372 S    
C26   C27   1.419320 A    
C32   C49   1.520225 S    
C17   N11   1.436691 S    
C20   C23   1.418922 A    
C50   H11   1.110123 S    
C17   C22   1.399139 A    
O1    Zn1   1.990901 S    
C35   C52   1.509728 S    
C4    C9    1.392633 S    
C21   C22   1.415042 A    
O2    Zn2   2.001031 S    
C44   C55   1.517530 S    
N6    O15   1.300938 A    
C59   H38   1.111762 S    
O6    C3    1.287165 A    
O4    Zn2   1.976176 S    
C61   H43   1.111047 S    
C53   H20   1.108679 S    
C28   N5    1.437311 S    
C54   H22   1.109999 S    
C13   C60   1.587763 S    
C29   N6    1.434741 S    
C25   C30   1.400729 A    
C58   H36   1.087907 S    
C6    C57   1.563253 S    
C52   H18   1.094526 S    
C61   H44   1.080748 S    
C45   C46   1.414348 A    
C2    C16   1.392629 S    
C61   H45   1.111839 S    
O2    C1    1.287075 A    
C55   H27   1.109570 S    
N11   O26   1.298822 A    
C48   H4    1.108586 S    
N8    O20   1.301095 A    
N9    O22   1.303354 A    
C34   C42   1.434671 A    
C8    N3    1.501172 S    
C54   H24   1.109209 S    
C12   C63   1.582333 S    
Zn2   O6    1.990647 S    
C47   H1    1.107783 S    
C51   H15   1.110372 S    
C43   C54   1.516839 S    
C55   H25   1.110666 S    
C45   N7    1.436143 S    
C12   C13   1.610534 S    
C19   C64   1.518569 S    
C39   C41   1.409621 A    
C57   H31   1.108364 S    
C59   H37   1.110006 S    
N10   O23   1.304901 A    
C56   H29   1.109200 S    
C42   C45   1.422076 A    
C7    C11   1.642123 S    
