data_mof_unit_18991.cif
_audit_creation_date              2012-12-10T17:05:18-0500
_audit_creation_method            fapswitch 2.2
_symmetry_space_group_name_H-M    P1
_symmetry_Int_Tables_number       1
_space_group_crystal_system       triclinic
_cell_length_a                    10.106805
_cell_length_b                    10.698281
_cell_length_c                    15.398762
_cell_angle_alpha                 90.785855
_cell_angle_beta                  68.580851
_cell_angle_gamma                 89.312868
_cell_volume                      1549.59855129

loop_
_atom_site_label
_atom_site_type_symbol
_atom_type_description
_atom_site_fract_x
_atom_site_fract_y
_atom_site_fract_z
_atom_type_partial_charge
C1    C     C_R   0.501670 0.736529 0.494270 0.939824
C2    C     C_R   0.390096 0.441097 0.922005 -0.107472
C3    C     C_R   0.248499 0.479843 0.974634 -0.000249
C4    C     C_R   0.478244 0.396137 0.968174 0.091568
C5    C     C_R   0.444868 0.430497 0.061970 0.115977
C6    C     C_R   0.302984 0.465502 0.115272 -0.147742
C7    C     C_R   0.204825 0.485878 0.072328 -0.053733
C8    C     C_R   0.599668 0.320519 0.922952 -0.133784
C9    C     C_R   0.696505 0.295579 0.965543 -0.140939
C10   C     C_R   0.678893 0.351708 0.051998 -0.076782
C11   C     C_R   0.554101 0.424976 0.098983 -0.078922
C12   C     C_R   0.411006 0.500027 0.676341 0.925918
C13   C     C_R   0.785306 0.340409 0.090679 0.334402
C14   C     C_R   0.763580 0.395456 0.178468 0.398804
C15   C     C_R   0.547654 0.497055 0.177312 0.264862
C16   C     C_2   0.594497 0.067499 0.436670 -0.312159
C17   C     C_2   0.503287 0.132173 0.509625 0.245550
C18   C     C_2   0.615181 0.934144 0.439276 0.441495
C19   C     C_2   0.499811 0.867229 0.480331 -0.302407
C20   C     C_2   0.075131 0.400891 0.493469 0.471290
C21   C     C_2   0.945080 0.408927 0.467807 0.113418
C22   C     C_R   0.500300 0.263269 0.501757 0.871782
C23   C     C_R   0.589157 0.497580 0.323880 0.948439
C24   C     C_R   0.354826 0.493368 0.778991 -0.207063
C25   C     C_R   0.641025 0.470589 0.223085 -0.269928
C26   C     C_R   0.155395 0.515950 0.929292 0.610577
C27   C     C_R   0.209775 0.516031 0.830258 -0.372976
C28   C     C_R   0.446583 0.464308 0.825981 0.462953
H1    H     H_    0.097440 0.513857 0.115588 0.245253
H2    H     H_    0.654253 0.113607 0.372380 0.125418
H3    H     H_    0.394664 0.910850 0.501039 0.194384
H4    H     H_    0.923255 0.332535 0.428494 0.073415
H5    H     H_    0.788141 0.237077 0.927902 0.216944
H6    H     H_    0.142432 0.539247 0.791925 0.186987
H7    H     H_    0.266144 0.474146 0.190495 0.208934
H8    H     H_    0.619369 0.278830 0.854827 0.212457
N1    N     N_2   0.148330 0.498670 0.499030 0.031079
N2    N     N_2   0.852680 0.498640 0.499000 0.082589
O1    O     O_R   0.386950 0.680940 0.500010 -0.561970
O2    O     O_R   0.613110 0.680900 0.499990 -0.622615
O3    O     O_R   0.322330 0.500030 0.632270 -0.608404
O4    O     O_R   0.548480 0.499990 0.632240 -0.540087
O5    O     O_R   0.386890 0.319100 0.500010 -0.564245
O6    O     O_R   0.613050 0.319060 0.499990 -0.642695
O7    O     O_R   0.451520 0.500010 0.367760 -0.563512
O8    O     O_R   0.677670 0.499970 0.367730 -0.582230
Zn1   Zn    Zn3+2 0.349000 0.500030 0.500020 1.098936
Zn2   Zn    Zn3+2 0.651000 0.499970 0.499980 1.049854
Cl1   Cl    Cl    0.946894 0.258031 0.030788 -0.575945
Cl2   Cl    Cl    0.422126 0.075074 0.624125 -0.574834
Cl3   Cl    Cl    0.785210 0.868934 0.376584 -0.549949
Cl4   Cl    Cl    0.108803 0.253819 0.530757 -0.548266
Cl5   Cl    Cl    0.138764 0.625047 0.431616 -0.459182
O9    O     O_3   0.861638 0.555340 0.575813 -0.548629
C29   C     C_3   0.824367 0.682409 0.576900 0.027866
H9    H     H_    0.710387 0.697700 0.619251 0.148511
H10   H     H_    0.853124 0.721054 0.505901 0.224513
H11   H     H_    0.884466 0.735960 0.612062 0.134467
Cl6   Cl    Cl    0.446794 0.639077 0.207839 -0.522855
O10   O     O_3   0.870491 0.389628 0.214447 -0.573756
C30   C     C_3   0.868767 0.273224 0.256638 -0.197033
H12   H     H_    0.839928 0.193246 0.220348 0.183970
H13   H     H_    0.794805 0.279123 0.330006 0.151699
H14   H     H_    0.976587 0.253085 0.256814 0.203626
O11   O     O_3   0.015950 0.550842 0.985691 -0.590848
C31   C     C_3   0.927958 0.584802 0.936505 -0.249665
H15   H     H_    0.914597 0.504937 0.893625 0.176214
H16   H     H_    0.968508 0.668853 0.893861 0.166136
H17   H     H_    0.820879 0.609748 0.987930 0.205515
O12   O     O_3   0.592640 0.467151 0.779130 -0.574030
C32   C     C_3   0.643290 0.581232 0.801363 -0.235125
H18   H     H_    0.627115 0.589285 0.876590 0.148816
H19   H     H_    0.592191 0.662862 0.781290 0.146244
H20   H     H_    0.759482 0.584644 0.762354 0.209344

loop_
_geom_bond_atom_site_label_1
_geom_bond_atom_site_label_2
_ccdc_geom_bond_type
C17   Cl2   S    
C8    C9    A    
C32   H20   S    
C31   H16   S    
C29   H9    S    
C12   O3    A    
C23   O7    A    
N1    Zn1   S    
C3    C26   A    
C14   O10   S    
C9    C10   A    
C12   C24   S    
C2    C4    A    
C17   C22   S    
N2    O9    S    
C24   C27   A    
C4    C8    A    
N1    Cl5   S    
C30   H12   S    
O7    Zn1   S    
C2    C3    A    
O3    Zn1   S    
C19   H3    S    
C32   H18   S    
C14   C25   A    
C23   O8    A    
O4    Zn2   S    
C13   C14   A    
C6    H7    S    
C30   H14   S    
C9    H5    S    
C20   N1    D    
C26   C27   A    
C6    C7    A    
C11   C15   A    
C23   C25   S    
C13   Cl1   S    
O1    Zn1   S    
N2    Zn2   S    
C18   Cl3   S    
C5    C11   A    
O5    Zn1   S    
C3    C7    A    
C29   H10   S    
C27   H6    S    
C5    C6    A    
C21   H4    S    
O8    Zn2   S    
C15   C25   A    
C31   H17   S    
C1    C19   S    
C10   C11   A    
C1    O1    A    
C16   H2    S    
C12   O4    A    
C7    H1    S    
O6    Zn2   S    
O12   C32   S    
C31   H15   S    
C20   C21   S    
C28   O12   S    
C24   C28   A    
C16   C18   S    
O11   C31   S    
C8    H8    S    
C29   H11   S    
C32   H19   S    
C18   C19   D    
O2    Zn2   S    
C20   Cl4   S    
C4    C5    A    
C2    C28   A    
C1    O2    A    
O9    C29   S    
C26   O11   S    
C15   Cl6   S    
C30   H13   S    
C22   O6    A    
C21   N2    D    
C22   O5    A    
C16   C17   D    
O10   C30   S    
C10   C13   A    
