data_mof_unit_43947.cif
_audit_creation_date              2013-03-05T16:18:33-0500
_audit_creation_method            fapswitch 2.2
_symmetry_space_group_name_H-M    P1
_symmetry_Int_Tables_number       1
_space_group_crystal_system       triclinic
_cell_length_a                    8.357642
_cell_length_b                    18.840055
_cell_length_c                    22.932796
_cell_angle_alpha                 99.929226
_cell_angle_beta                  90.044971
_cell_angle_gamma                 92.056161
_cell_volume                      3554.49608655

loop_
_atom_site_label
_atom_site_type_symbol
_atom_site_description
_atom_site_fract_x
_atom_site_fract_y
_atom_site_fract_z
_atom_type_partial_charge
P1    P     P_3+3 0.935930 0.665430 0.555670 0.461868
O1    O     O_2   0.110690 0.676100 0.539200 -0.377534
O2    O     O_3   0.863220 0.586720 0.534720 -0.386775
O3    O     O_3   0.368310 0.629070 0.432760 -0.339759
O4    O     O_2   0.257075 0.758199 0.481790 -0.424669
O5    O     O_3   0.938070 0.685297 0.632962 -0.574707
O6    O     O_3   0.372043 0.759587 0.375330 -0.605171
H1    H     H_    0.245240 0.667250 0.334873 0.100607
C1    C     C_3   0.280776 0.742810 0.274390 -0.873425
H2    H     H_    0.246154 0.701461 0.235301 0.254036
H3    H     H_    0.176064 0.775889 0.286725 0.234402
P2    P     P_3+3 0.382700 0.439650 0.365620 0.488514
P3    P     P_3+3 0.947055 0.583257 0.324087 0.455167
O7    O     O_2   0.210480 0.460990 0.358130 -0.379026
O8    O     O_3   0.959520 0.592090 0.401630 -0.393807
O9    O     O_2   0.102688 0.548927 0.298207 -0.421790
O10   O     O_3   0.374967 0.345875 0.344797 -0.575433
O11   O     O_3   0.954185 0.668939 0.302162 -0.521651
C2    C     C_3   0.882861 0.722028 0.344661 0.649094
H4    H     H_    0.786129 0.699158 0.369193 0.134206
C3    C     C_3   0.814529 0.781097 0.314188 -0.800491
H5    H     H_    0.792239 0.830618 0.347179 0.231222
H6    H     H_    0.899401 0.795784 0.280540 0.249386
C4    C     C_3   0.873559 0.362262 0.334036 0.300811
H7    H     H_    0.750190 0.372107 0.320714 0.083642
H8    H     H_    0.930425 0.412941 0.358014 0.128981
C5    C     C_3   0.969273 0.333824 0.278299 -0.353647
H9    H     H_    0.931455 0.276703 0.261606 0.225937
H10   H     H_    0.098293 0.335313 0.289673 0.234186
Ba1   Ba    Ba6+2 0.157800 0.534120 0.474430 1.571911
C6    C     C_3   0.008851 0.630866 0.656785 0.411836
H11   H     H_    0.119805 0.613776 0.633142 0.108132
H12   H     H_    0.922835 0.584212 0.654319 0.102637
C7    C     C_3   0.049740 0.661113 0.721222 -0.926836
H13   H     H_    0.126930 0.710836 0.723873 0.277662
H14   H     H_    0.115253 0.621971 0.741931 0.230011
H15   H     H_    0.938247 0.674438 0.746441 0.255639
C8    C     C_3   0.327536 0.312532 0.391950 0.285808
H16   H     H_    0.198901 0.321497 0.400044 0.074336
H17   H     H_    0.398783 0.333580 0.432529 0.117277
C9    C     C_3   0.357332 0.232011 0.375045 -0.347762
H18   H     H_    0.363869 0.207585 0.415502 0.184400
H19   H     H_    0.475164 0.224832 0.352676 0.245412
P4    P     P_3+3 0.874370 0.334570 0.444280 0.472499
O12   O     O_2   0.699610 0.323860 0.460780 -0.354526
O13   O     O_3   0.947090 0.413280 0.465240 -0.401308
O14   O     O_3   0.442000 0.370930 0.567190 -0.390145
O15   O     O_3   0.862264 0.306750 0.367273 -0.605488
P5    P     P_3+3 0.864428 0.421356 0.677179 0.485255
O16   O     O_3   0.359410 0.538600 0.570730 -0.402818
O17   O     O_3   0.850780 0.407910 0.598320 -0.309229
O18   O     O_2   0.713935 0.461480 0.700097 -0.413060
O19   O     O_3   0.824374 0.341873 0.706026 -0.579756
Ba2   Ba    Ba6+2 0.652390 0.465870 0.525520 1.595908
P6    P     P_3+3 0.392770 0.724368 0.441813 0.443647
C10   C     C_3   0.339152 0.706091 0.325061 0.804487
H20   H     H_    0.377236 0.779142 0.261478 0.258855
O20   O     O_3   0.450900 0.461390 0.429220 -0.388488
C11   C     C_3   0.483843 0.687604 0.622814 0.436275
H21   H     H_    0.608389 0.671505 0.612251 0.101068
H22   H     H_    0.407344 0.673897 0.582516 0.116752
C12   C     C_3   0.484683 0.768906 0.642627 -0.995337
H23   H     H_    0.561875 0.784760 0.682513 0.276042
H24   H     H_    0.531817 0.796424 0.606811 0.218435
H25   H     H_    0.360964 0.786428 0.653205 0.257908
P7    P     P_3+3 0.419887 0.560502 0.645210 0.445698
O21   O     O_2   0.599830 0.538970 0.641850 -0.349909
O22   O     O_3   0.423598 0.654011 0.668763 -0.554388
H26   H     H_    0.699157 0.763300 0.291729 0.274894
C13   C     C_3   0.963352 0.303590 0.709869 0.856520
H27   H     H_    0.064671 0.339539 0.730169 0.001344
C14   C     C_3   0.932279 0.247386 0.749683 -0.990574
H28   H     H_    0.827716 0.211386 0.732923 0.266930
H29   H     H_    0.039061 0.213858 0.750721 0.223853
H30   H     H_    0.907250 0.274737 0.795581 0.262365
P8    P     P_3+3 0.423433 0.276373 0.557995 0.490891
C15   C     C_3   0.450471 0.305673 0.672953 0.454836
H31   H     H_    0.347674 0.341212 0.673105 0.073607
O23   O     O_2   0.569773 0.243996 0.523494 -0.375168
O24   O     O_3   0.440845 0.247083 0.626146 -0.547951
H32   H     H_    0.560597 0.338205 0.668805 0.178904
H33   H     H_    0.330529 0.249484 0.736138 0.201193
C16   C     C_3   0.450501 0.275443 0.730806 -0.391981
H34   H     H_    0.541320 0.233186 0.728693 0.231265
C17   C     C_R   0.995315 0.953229 0.532037 0.044037
C18   C     C_R   0.076572 0.905845 0.562577 -0.198748
C19   C     C_R   0.216344 0.046872 0.545305 -0.216406
C20   C     C_R   0.059451 0.023273 0.526485 0.090658
C21   C     C_R   0.275622 0.115852 0.541420 -0.107326
C22   C     C_R   0.180536 0.165555 0.519873 0.035972
C23   C     C_R   0.026271 0.142408 0.496952 0.063290
C24   C     C_R   0.967004 0.070537 0.498971 0.040284
C25   C     C_R   0.234382 0.237972 0.521159 0.225065
C26   C     C_R   0.131975 0.286702 0.502403 -0.413513
C27   C     C_R   0.982570 0.265130 0.477161 0.304364
C28   C     C_R   0.931639 0.190941 0.471769 -0.055695
C29   C     C_R   0.841958 0.930268 0.508093 0.052004
C30   C     C_R   0.780520 0.858805 0.510359 -0.022205
C31   C     C_R   0.873248 0.809794 0.535432 -0.060137
C32   C     C_R   0.016233 0.836203 0.564605 -0.038084
H35   H     H_    0.170847 0.342824 0.507000 0.156221
H36   H     H_    0.397644 0.129422 0.555808 0.180303
H37   H     H_    0.086103 0.802924 0.588067 0.162915
C33   C     C_R   0.795248 0.162344 0.439093 -0.195176
C34   C     C_R   0.744388 0.089983 0.435964 0.306193
C35   C     C_R   0.817256 0.046074 0.472470 -0.108346
C36   C     C_R   0.749891 0.977684 0.481013 0.072861
C37   C     C_R   0.588911 0.956575 0.466710 -0.136307
C38   C     C_R   0.629265 0.835201 0.484935 -0.040604
C39   C     C_R   0.531244 0.886450 0.467045 -0.128475
C40   C     C_R   0.581175 0.761267 0.478333 0.250194
C41   C     C_R   0.681639 0.712422 0.497082 -0.523602
C42   C     C_R   0.825006 0.735164 0.526377 0.249295
H38   H     H_    0.732511 0.194356 0.412292 0.186091
H39   H     H_    0.408645 0.873396 0.453174 0.192835
H40   H     H_    0.644539 0.655954 0.490620 0.190939
H41   H     H_    0.298774 0.012576 0.562246 0.128952
H42   H     H_    0.187972 0.921007 0.585818 0.126128
H43   H     H_    0.503891 0.994045 0.455700 0.171443
H44   H     H_    0.222698 0.342774 0.054612 0.168293
H45   H     H_    0.134035 0.344122 0.954295 0.168514
C43   C     C_R   0.664370 0.503453 0.331709 -0.402062
C44   C     C_R   0.434447 0.552666 0.942017 -0.096962
C45   C     C_R   0.374111 0.552837 0.883964 0.536596
O25   O     O_2   0.407753 0.603546 0.858842 -0.584099
N1    N     N_R   0.273776 0.497063 0.855609 -0.164688
C46   C     C_R   0.223060 0.441916 0.885098 0.502556
O26   O     O_2   0.138035 0.391870 0.859601 -0.615386
C47   C     C_R   0.271330 0.441933 0.944048 -0.019645
C48   C     C_R   0.377943 0.497154 0.972532 -0.057689
C49   C     C_R   0.549576 0.605403 0.970853 0.265842
C50   C     C_R   0.593656 0.604561 0.029814 -0.125023
C51   C     C_R   0.532934 0.551255 0.060835 -0.124686
C52   C     C_R   0.428585 0.496358 0.031734 -0.013214
C53   C     C_R   0.216831 0.386992 0.974839 -0.128636
C54   C     C_R   0.268100 0.386145 0.032608 -0.123705
C55   C     C_R   0.374887 0.440479 0.061754 -0.025408
C56   C     C_R   0.429857 0.439781 0.120031 0.498039
N2    N     N_R   0.526281 0.496342 0.150098 -0.167379
C57   C     C_R   0.575941 0.552070 0.120543 0.579560
C58   C     C_2   0.075068 0.481205 0.774155 -0.220992
C59   C     C_3   0.034641 0.481944 0.709577 0.134872
C60   C     C_1   0.312114 0.508622 0.693546 0.263831
C61   C     C_2   0.354413 0.508407 0.749134 -0.217418
C62   C     C_2   0.228883 0.495330 0.793673 0.123550
C63   C     C_R   0.729409 0.522568 0.232760 -0.161647
C64   C     C_R   0.770383 0.529012 0.292774 0.268962
C65   C     C_R   0.510305 0.478960 0.313185 0.329205
C66   C     C_R   0.464023 0.476643 0.253833 -0.183721
C67   C     C_R   0.573912 0.497544 0.212030 0.154932
O27   O     O_2   0.393491 0.387821 0.143558 -0.599119
O28   O     O_2   0.656099 0.603508 0.146320 -0.538375
C68   C     C_2   0.180837 0.474075 0.671258 -0.442381
H46   H     H_    0.678897 0.645681 0.051464 0.176603
H47   H     H_    0.818291 0.538934 0.203021 0.173041
H48   H     H_    0.479364 0.516239 0.762352 0.185692
H49   H     H_    0.979049 0.474268 0.804776 0.169072
H50   H     H_    0.342583 0.458664 0.240762 0.181819
H51   H     H_    0.698849 0.506632 0.377622 0.164200
H52   H     H_    0.173518 0.448449 0.624960 0.191349
C69   C     C_3   0.946291 0.376007 0.228197 -0.963473
H53   H     H_    0.817446 0.376505 0.216577 0.261381
H54   H     H_    0.996018 0.431634 0.240921 0.283348
H55   H     H_    0.011510 0.350011 0.188480 0.286949
C70   C     C_3   0.226177 0.191882 0.334514 -0.767011
H56   H     H_    0.265972 0.137034 0.315443 0.287161
H57   H     H_    0.199792 0.220861 0.297544 0.252862
H58   H     H_    0.114975 0.186206 0.360227 0.228214
N3    N     N_R   0.482541 0.666810 0.306524 0.193488
O29   O     O_R   0.532929 0.658209 0.252074 -0.402348
O30   O     O_R   0.553194 0.634366 0.343863 -0.489724
N4    N     N_R   0.004839 0.268520 0.651069 0.213997
O31   O     O_R   0.102584 0.304483 0.622416 -0.508176
O32   O     O_R   0.905995 0.219996 0.621072 -0.385281
C71   C     C_3   0.486036 0.333600 0.784748 -0.906319
H59   H     H_    0.463223 0.310904 0.825725 0.274633
H60   H     H_    0.613234 0.353362 0.785346 0.294332
H61   H     H_    0.407155 0.379473 0.784533 0.260030
C72   C     C_3   0.006028 0.756877 0.390210 -0.873957
H62   H     H_    0.943927 0.785140 0.429506 0.208196
H63   H     H_    0.076396 0.713865 0.404024 0.296615
H64   H     H_    0.082776 0.798966 0.374412 0.256636
N5    N     N_R   0.637158 0.059250 0.388791 0.225946
O33   O     O_R   0.500195 0.088254 0.382476 -0.448535
O34   O     O_R   0.676527 0.002409 0.351525 -0.381903
C73   C     C_3   0.633928 0.661379 0.940157 -0.823408
H65   H     H_    0.730921 0.692449 0.967967 0.212950
H66   H     H_    0.691822 0.634278 0.898872 0.255170
H67   H     H_    0.547192 0.701180 0.929954 0.274570

loop_
_geom_bond_atom_site_label_1
_geom_bond_atom_site_label_2
_geom_bond_distance
_ccdc_geom_bond_type
P7    O22   1.750486 S    
C19   C20   1.412250 A    
C70   H56   1.112967 S    
C16   C71   1.525650 S    
C21   H36   1.079776 S    
C5    H10   1.107441 S    
C7    H15   1.110566 S    
C9    H19   1.112507 S    
C9    H18   1.106591 S    
C40   C41   1.388541 A    
C4    C5    1.535232 S    
O6    P6    1.775252 S    
H1    C10   1.103634 S    
C52   C55   1.414282 A    
C69   H53   1.109874 S    
C53   C54   1.394948 A    
C71   H60   1.112999 S    
C17   C18   1.416701 A    
N4    O31   1.293397 A    
Ba1   Ba2   4.583246 S    
C25   C26   1.397275 A    
P3    O11   1.770655 S    
C22   C25   1.416639 A    
C16   H34   1.114633 S    
C2    C3    1.538232 S    
C4    H8    1.107175 S    
O14   P8    1.758613 S    
O11   C2    1.418864 S    
N5    O34   1.302122 A    
Ba2   O20   2.764011 S    
C8    H16   1.105134 S    
C10   N3    1.456184 S    
O2    Ba2   2.806971 S    
C60   C68   1.312175 D    
C35   C36   1.432031 A    
C15   C16   1.531379 S    
C60   C61   1.323348 D    
P1    O1    1.523926 D    
N3    O29   1.303369 A    
C13   N4    1.443948 S    
C41   C42   1.390414 A    
C12   H24   1.109632 S    
C38   C40   1.418330 A    
C23   C28   1.424234 A    
C63   C67   1.419490 A    
C63   H47   1.081153 S    
C20   C24   1.424912 A    
C26   H35   1.082355 S    
N4    O32   1.311286 A    
C50   C51   1.408039 A    
P5    O17   1.785307 S    
C9    C70   1.527632 S    
P2    O10   1.747661 S    
C50   H46   1.086915 S    
C43   H51   1.082487 S    
P8    O23   1.543550 D    
C13   H27   1.114441 S    
C43   C65   1.392926 A    
C18   C32   1.396996 A    
C66   H50   1.083772 S    
C57   O28   1.221724 D    
C7    H14   1.103859 S    
C58   C62   1.362803 D    
C72   H64   1.111039 S    
C44   C49   1.433235 A    
P7    O21   1.570159 D    
Ba1   O16   2.764620 S    
C55   C56   1.415236 A    
C11   H21   1.109899 S    
C70   H57   1.110636 S    
C30   C38   1.415919 A    
C47   C53   1.412884 A    
C3    H5    1.116614 S    
C72   H63   1.106958 S    
N3    O30   1.288853 A    
C37   H43   1.078984 S    
C48   C52   1.424511 A    
P1    C42   1.851364 S    
O6    C10   1.413951 S    
O7    Ba1   2.825523 S    
C14   H30   1.112747 S    
O19   C13   1.399644 S    
C33   C34   1.403204 A    
C69   H54   1.104215 S    
N1    C62   1.463421 S    
P4    O13   1.577490 S    
C29   C30   1.433054 A    
C71   H61   1.106308 S    
C11   H22   1.111034 S    
P1    O5    1.747259 S    
C4    O15   1.397004 S    
C44   C45   1.423823 A    
C4    H7    1.106172 S    
C8    C9    1.529070 S    
C14   H29   1.114285 S    
C23   C24   1.433347 A    
C11   O22   1.404430 S    
C54   C55   1.410212 A    
Ba2   O21   2.825750 S    
C15   H31   1.107664 S    
P2    Ba1   3.412215 S    
C32   H37   1.079688 S    
C34   N5    1.433167 S    
C3    H26   1.106311 S    
H44   C54   1.089263 S    
C61   H48   1.085010 S    
O2    Ba1   2.943299 S    
N5    O33   1.304537 A    
C46   C47   1.410442 A    
C12   H23   1.110476 S    
P8    C25   1.854341 S    
C1    H3    1.101368 S    
C31   C32   1.401596 A    
C15   H32   1.100726 S    
C7    H13   1.111024 S    
P5    O18   1.536849 D    
P5    C59   1.862275 S    
O13   Ba2   2.944000 S    
C6    H12   1.109063 S    
C6    C7    1.523153 S    
C18   H42   1.077085 S    
C1    C10   1.538664 S    
O16   Ba2   2.950094 S    
C43   C64   1.390352 A    
C65   C66   1.407694 A    
O16   P7    1.756060 S    
O14   Ba2   2.751508 S    
C33   H38   1.080019 S    
C58   H49   1.085909 S    
P2    O7    1.525725 D    
O12   Ba2   2.867922 S    
C30   C31   1.420410 A    
C70   H58   1.112824 S    
P3    O8    1.759881 S    
C44   C48   1.422653 A    
C51   C52   1.404280 A    
O1    Ba1   2.867534 S    
P3    C64   1.837751 S    
C36   C37   1.411322 A    
C73   H66   1.114892 S    
C49   C50   1.404026 A    
C21   C22   1.401758 A    
C2    C72   1.514962 S    
C41   H40   1.082492 S    
C69   H55   1.110259 S    
P4    O12   1.524220 D    
O8    Ba1   2.735063 S    
C45   N1    1.389399 Am   
C63   C64   1.401733 A    
C1    H2    1.112087 S    
C17   C20   1.432559 A    
C24   C35   1.417368 A    
C28   C33   1.402340 A    
C11   C12   1.520509 S    
C12   H25   1.110965 S    
P6    C40   1.839224 S    
O4    P6    1.544315 D    
C6    H11   1.104353 S    
P8    O24   1.752471 S    
C14   H28   1.112874 S    
C31   C42   1.428682 A    
N2    C57   1.395904 Am   
C19   H41   1.077548 S    
C46   O26   1.223520 D    
P7    C60   1.818622 S    
C56   O27   1.225900 D    
C34   C35   1.424886 A    
N2    C67   1.470882 S    
Ba1   O13   2.806239 S    
C61   C62   1.508167 S    
O17   Ba2   2.735532 S    
P2    C65   1.839641 S    
C2    H4    1.102303 S    
C3    H6    1.111557 S    
C47   C48   1.414633 A    
P2    O20   1.547862 S    
O3    P6    1.775795 S    
C71   H59   1.111418 S    
C58   C59   1.521256 S    
C5    C69   1.521242 S    
C8    H17   1.110292 S    
C15   O24   1.400718 S    
C22   C23   1.417143 A    
C73   H67   1.114349 S    
N1    C46   1.388382 Am   
P5    O19   1.760144 S    
Ba1   O20   2.950943 S    
P1    Ba1   3.431430 S    
C19   C21   1.391451 A    
C37   C39   1.391269 A    
O5    C6    1.391504 S    
C1    H20   1.112108 S    
O10   C8    1.392178 S    
C59   C68   1.502289 S    
C26   C27   1.393118 A    
C17   C29   1.417259 A    
C56   N2    1.394458 Am   
C72   H62   1.104581 S    
C29   C36   1.419730 A    
C49   C73   1.519253 S    
P4    Ba2   3.431828 S    
H45   C53   1.086867 S    
C51   C57   1.412783 A    
H33   C16   1.115868 S    
P3    O9    1.546501 D    
C38   C39   1.401622 A    
C27   C28   1.430973 A    
P4    C27   1.876678 S    
C68   H52   1.088640 S    
C13   C14   1.528511 S    
P1    O2    1.577430 S    
C73   H65   1.114855 S    
C66   C67   1.422398 A    
C39   H39   1.079807 S    
O3    Ba1   2.752258 S    
P4    O15   1.755102 S    
C45   O25   1.222479 D    
C5    H9    1.112600 S    
