data_mof_unit_44243.cif
_audit_creation_date              2012-12-10T19:09:38-0500
_audit_creation_method            fapswitch 2.2
_symmetry_space_group_name_H-M    P1
_symmetry_Int_Tables_number       1
_space_group_crystal_system       triclinic
_cell_length_a                    9.543949
_cell_length_b                    10.829663
_cell_length_c                    17.092457
_cell_angle_alpha                 89.205796
_cell_angle_beta                  93.957627
_cell_angle_gamma                 89.697323
_cell_volume                      1762.22134845

loop_
_atom_site_label
_atom_site_type_symbol
_atom_type_description
_atom_site_fract_x
_atom_site_fract_y
_atom_site_fract_z
_atom_type_partial_charge
C1    C     C_R   0.500711 0.262422 0.502487 0.853619
C2    C     C_R   0.652945 0.527511 0.780034 0.528335
C3    C     C_R   0.570681 0.424385 0.144714 0.204146
C4    C     C_R   0.575770 0.429973 0.226254 -0.245208
C5    C     C_R   0.455665 0.479004 0.099676 0.261079
C6    C     C_R   0.471798 0.492211 0.263736 -0.114540
C7    C     C_R   0.356334 0.543318 0.219727 -0.256109
C8    C     C_R   0.345489 0.535845 0.137420 0.223131
C9    C     C_R   0.622807 0.062697 0.495531 0.031969
C10   C     C_R   0.503476 0.129448 0.511904 -0.333310
C11   C     C_R   0.389841 0.065830 0.541454 0.580191
C12   C     C_R   0.517670 0.498528 0.650939 0.903558
C13   C     C_R   0.386312 0.936293 0.540099 0.097837
C14   C     C_R   0.500402 0.870805 0.510957 -0.198825
C15   C     C_R   0.621289 0.935871 0.495135 0.009206
C16   C     C_3   0.709935 0.929622 0.426523 -0.511011
C17   C     C_3   0.711095 0.069955 0.426854 0.521577
C18   C     C_R   0.067907 0.583930 0.455260 0.053944
C19   C     C_R   0.080747 0.426194 0.550257 0.731735
C20   C     C_R   0.931903 0.425988 0.550039 -0.030474
C21   C     C_R   0.920507 0.583415 0.454816 0.117052
C22   C     C_3   0.907071 0.596827 0.367430 0.449997
C23   C     C_R   0.499691 0.737672 0.502258 0.847931
C24   C     C_3   0.065631 0.599963 0.368597 -0.508086
C25   C     C_R   0.482362 0.499696 0.349267 0.801676
C26   C     C_R   0.528045 0.495055 0.737012 -0.285050
C27   C     C_R   0.411941 0.457095 0.776714 -0.345368
C28   C     C_R   0.418753 0.451586 0.858097 0.580081
C29   C     C_R   0.543768 0.485478 0.902005 0.151523
C30   C     C_R   0.661298 0.521629 0.862168 0.058181
Cu1   Cu    Cu3+1 0.640670 0.499980 0.500000 1.034647
Cu2   Cu    Cu3+1 0.359330 0.500020 0.500000 1.037262
H1    H     H_    0.660242 0.383176 0.260437 0.228650
H2    H     H_    0.814401 0.886906 0.442492 0.214897
H3    H     H_    0.652584 0.890955 0.373632 0.141016
H4    H     H_    0.657456 0.114814 0.373958 0.051284
H5    H     H_    0.881002 0.364290 0.589364 0.177718
H6    H     H_    0.853980 0.683752 0.346170 0.059143
H7    H     H_    0.110281 0.519206 0.339351 0.244675
H8    H     H_    0.106865 0.691174 0.350909 0.135354
H9    H     H_    0.276989 0.590615 0.250183 0.164887
H10   H     H_    0.315252 0.430279 0.744641 0.259140
N1    N     N_2   0.555761 0.487780 0.985390 -0.159232
N2    N     N_2   0.443001 0.472957 0.016739 -0.150300
N3    N     N_R   0.147870 0.500930 0.499500 -0.227354
N4    N     N_R   0.851960 0.500890 0.499500 -0.198982
O1    O     O_R   0.618810 0.319640 0.500000 -0.568533
O2    O     O_R   0.381230 0.319680 0.499990 -0.487555
O3    O     O_R   0.631790 0.498830 0.613930 -0.539660
O4    O     O_R   0.394210 0.498870 0.613920 -0.550777
O5    O     O_R   0.618770 0.680320 0.500010 -0.587821
O6    O     O_R   0.381190 0.680360 0.500000 -0.562269
O7    O     O_R   0.605790 0.501130 0.386080 -0.525842
O8    O     O_R   0.368210 0.501170 0.386070 -0.603974
N5    N     N_2   0.268086 0.873456 0.567352 -0.390644
H11   H     H_    0.245725 0.899025 0.623070 0.287212
C31   C     C_3   0.144406 0.877924 0.513339 -0.540870
H12   H     H_    0.102386 0.973656 0.507062 0.286640
H13   H     H_    0.061814 0.818138 0.536060 0.206004
H14   H     H_    0.169645 0.844301 0.454843 0.207030
F1    F     F_    0.842910 0.116721 0.447743 -0.623721
F2    F     F_    0.156396 0.349892 0.600585 -0.595840
F3    F     F_    0.855628 0.491467 0.331287 -0.656911
N6    N     N_2   0.676587 0.356993 0.108729 -0.401308
H15   H     H_    0.683051 0.266195 0.127741 0.252324
C32   C     C_3   0.812810 0.415666 0.113520 -0.612942
H16   H     H_    0.854384 0.423266 0.175574 0.252139
H17   H     H_    0.805360 0.509187 0.085941 0.252850
H18   H     H_    0.887990 0.359321 0.082216 0.226164
N7    N     N_2   0.787918 0.554590 0.905385 -0.409842
H19   H     H_    0.832251 0.634375 0.884894 0.291547
C33   C     C_3   0.889177 0.454848 0.915334 -0.537705
H20   H     H_    0.978522 0.483689 0.955936 0.238324
H21   H     H_    0.929950 0.431160 0.858017 0.266571
H22   H     H_    0.840329 0.371725 0.940516 0.229891
F4    F     F_    0.766696 0.565754 0.742839 -0.649456
F5    F     F_    0.302935 0.412274 0.892862 -0.636286
N8    N     N_2   0.225844 0.584080 0.091117 -0.403974
H23   H     H_    0.245210 0.619737 0.036684 0.281956
C34   C     C_3   0.112977 0.644979 0.128276 -0.694068
H24   H     H_    0.027658 0.669963 0.083267 0.233246
H25   H     H_    0.151761 0.730777 0.157084 0.226010
H26   H     H_    0.068054 0.581920 0.171680 0.243611
F6    F     F_    0.280092 0.128405 0.568762 -0.593113

loop_
_geom_bond_atom_site_label_1
_geom_bond_atom_site_label_2
_ccdc_geom_bond_type
C32   H17   S    
N5    H11   S    
C18   C21   A    
Cu2   N3    S    
C19   C20   A    
C12   O3    A    
C31   H12   S    
C7    C8    A    
C3    N6    S    
C26   C27   A    
C18   C24   S    
C28   C29   A    
C25   O7    A    
C33   H22   S    
C16   H3    S    
C34   H24   S    
N8    C34   S    
C31   H13   S    
C32   H18   S    
C19   F2    S    
C15   C16   S    
C22   H6    S    
C24   H7    S    
Cu2   O6    S    
C17   F1    S    
C22   F3    S    
C16   C17   S    
Cu1   N4    S    
N7    H19   S    
C17   H4    S    
C9    C10   A    
C16   H2    S    
C32   H16   S    
Cu1   O1    S    
C21   C22   S    
C29   N1    S    
C8    N8    S    
Cu2   O2    S    
Cu1   O3    S    
C34   H26   S    
Cu2   O8    S    
C30   N7    S    
C25   O8    A    
C34   H25   S    
N8    H23   S    
C1    O1    A    
C31   H14   S    
C12   C26   S    
N6    C32   S    
C14   C23   S    
N1    N2    D    
C29   C30   A    
C23   O5    A    
Cu1   Cu2   S    
C2    C26   A    
Cu1   O7    S    
C28   F5    S    
Cu2   O4    S    
C33   H21   S    
C5    N2    S    
N5    C31   S    
C22   C24   S    
C4    C6    A    
C3    C4    A    
C18   N3    A    
C2    F4    S    
C21   N4    A    
C9    C17   S    
C4    H1    S    
C1    C10   S    
Cu1   O5    S    
C33   H20   S    
C3    C5    A    
C5    C8    A    
C12   O4    A    
C19   N3    A    
C1    O2    A    
C6    C7    A    
C11   F6    S    
C2    C30   A    
N6    H15   S    
C9    C15   A    
C20   H5    S    
C11   C13   A    
C27   H10   S    
C23   O6    A    
C24   H8    S    
C7    H9    S    
C10   C11   A    
C6    C25   S    
C27   C28   A    
C14   C15   A    
N7    C33   S    
C13   C14   A    
C20   N4    A    
C13   N5    S    
