data_mof_unit_25504.cif
_audit_creation_date              2012-12-11T15:34:06-0500
_audit_creation_method            fapswitch 2.2
_symmetry_space_group_name_H-M    P1
_symmetry_Int_Tables_number       1
_space_group_crystal_system       triclinic
_cell_length_a                    15.060513
_cell_length_b                    15.078097
_cell_length_c                    34.941402
_cell_angle_alpha                 90.445426
_cell_angle_beta                  89.83237
_cell_angle_gamma                 60.070782
_cell_volume                      6876.06641224

loop_
_atom_site_label
_atom_site_type_symbol
_atom_type_description
_atom_site_fract_x
_atom_site_fract_y
_atom_site_fract_z
_atom_type_partial_charge
C1    C     C_R   0.302472 0.608207 0.555747 0.543184
C2    C     C_R   0.657112 0.661184 0.668766 0.033676
C3    C     C_R   0.257580 0.659305 0.266829 -0.116836
C4    C     C_R   0.193749 0.637698 0.289510 0.027907
C5    C     C_R   0.125181 0.613046 0.272025 -0.117868
C6    C     C_R   0.117307 0.614455 0.232311 -0.114956
C7    C     C_R   0.178530 0.639750 0.209606 0.028757
C8    C     C_R   0.210965 0.557603 0.353057 -0.121543
C9    C     C_R   0.234603 0.552073 0.391788 -0.126363
C10   C     C_R   0.226991 0.716338 0.388184 -0.125264
C11   C     C_R   0.203928 0.721492 0.349475 -0.122315
C12   C     C_R   0.200204 0.640139 0.331367 0.031295
C13   C     C_R   0.565203 0.725898 0.649835 -0.123490
C14   C     C_R   0.247614 0.629164 0.409199 0.022764
C15   C     C_R   0.735555 0.026821 0.943592 0.531781
C16   C     C_R   0.746055 0.722906 0.945047 0.546349
C17   C     C_R   0.038235 0.734095 0.948315 0.538911
C18   C     C_R   0.722257 0.040228 0.052452 0.574703
C19   C     C_R   0.733365 0.734501 0.054712 0.543042
C20   C     C_R   0.027590 0.744686 0.057805 0.540076
C21   C     C_R   0.552516 0.707096 0.611660 -0.133024
C22   C     C_R   0.673654 0.674663 0.788068 0.345753
C23   C     C_R   0.664787 0.669017 0.710583 0.344873
C24   C     C_R   0.763178 0.599438 0.849416 -0.120600
C25   C     C_R   0.779558 0.610143 0.887971 -0.127517
C26   C     C_R   0.628230 0.778618 0.889174 -0.126851
C27   C     C_R   0.611703 0.767779 0.850601 -0.119927
C28   C     C_R   0.681430 0.679791 0.829991 0.032067
C29   C     C_R   0.610642 0.588428 0.555222 0.545854
C30   C     C_R   0.714691 0.701576 0.907782 0.020999
C31   C     C_R   0.724136 0.074501 0.905690 -0.013954
C32   C     C_R   0.628011 0.129514 0.887217 0.011352
C33   C     C_R   0.626191 0.145704 0.847610 -0.082149
C34   C     C_R   0.717269 0.112670 0.826862 -0.001627
C35   C     C_R   0.810755 0.068397 0.845941 -0.126695
C36   C     C_R   0.814268 0.049051 0.884914 -0.130013
C37   C     C_R   0.757308 0.172518 0.766392 -0.110676
C38   C     C_R   0.749694 0.183896 0.726744 -0.110641
C39   C     C_R   0.700953 0.141603 0.705065 0.028047
C40   C     C_R   0.590150 0.300379 0.553519 0.544099
C41   C     C_R   0.663153 0.084857 0.723786 -0.112321
C42   C     C_R   0.669100 0.075230 0.763446 -0.110365
C43   C     C_R   0.714756 0.120328 0.784977 0.021855
C44   C     C_R   0.585903 0.187060 0.648488 -0.117813
C45   C     C_R   0.559573 0.224245 0.611481 -0.124041
C46   C     C_R   0.724174 0.214225 0.603565 -0.125647
C47   C     C_R   0.751074 0.175756 0.640541 -0.118467
C48   C     C_R   0.680713 0.165252 0.663867 0.033449
C49   C     C_R   0.626857 0.241824 0.589179 0.021938
C50   C     C_R   0.091584 0.697730 0.911171 0.020673
C51   C     C_R   0.300257 0.610253 0.446108 0.543818
C52   C     C_R   0.120730 0.759307 0.890830 -0.126199
C53   C     C_R   0.144034 0.741880 0.851958 -0.120457
C54   C     C_R   0.139756 0.662001 0.832857 0.029902
C55   C     C_R   0.120391 0.594382 0.853796 -0.108095
C56   C     C_R   0.096230 0.612221 0.892735 -0.115746
C57   C     C_R   0.210217 0.562011 0.772097 -0.107615
C58   C     C_R   0.218516 0.557887 0.732247 -0.106241
C59   C     C_R   0.162249 0.646908 0.710520 0.032434
C60   C     C_R   0.095328 0.739335 0.729329 -0.109136
C61   C     C_R   0.087829 0.743576 0.769103 -0.107198
C62   C     C_R   0.608007 0.589665 0.445272 0.542480
C63   C     C_R   0.146472 0.655365 0.790792 0.029913
C64   C     C_R   0.189831 0.724089 0.651947 -0.116972
C65   C     C_R   0.222439 0.715548 0.614068 -0.125000
C66   C     C_R   0.230246 0.551542 0.608410 -0.127497
C67   C     C_R   0.197237 0.560305 0.646309 -0.119956
C68   C     C_R   0.180275 0.644958 0.668825 0.033481
C69   C     C_R   0.246763 0.627390 0.592395 0.021332
C70   C     C_R   0.691353 0.718608 0.090510 0.022099
C71   C     C_R   0.605733 0.800657 0.108409 -0.128688
C72   C     C_R   0.578910 0.791452 0.145837 -0.123049
C73   C     C_R   0.588155 0.302704 0.443817 0.543103
C74   C     C_R   0.637082 0.700056 0.165912 0.031994
C75   C     C_R   0.717886 0.615799 0.146957 -0.118058
C76   C     C_R   0.744646 0.624930 0.109613 -0.121820
C77   C     C_R   0.633327 0.605030 0.223698 -0.119864
C78   C     C_R   0.633616 0.595182 0.263313 -0.118462
C79   C     C_R   0.621353 0.675521 0.287416 0.026641
C80   C     C_R   0.604536 0.767479 0.271350 -0.117400
C81   C     C_R   0.605115 0.777089 0.231673 -0.114667
C82   C     C_R   0.621540 0.695161 0.207480 0.028341
C83   C     C_R   0.550844 0.735767 0.353256 -0.121846
C84   C     C_R   0.631575 0.623308 0.591833 0.022443
C85   C     C_R   0.549110 0.715960 0.392127 -0.126359
C86   C     C_R   0.705156 0.552710 0.383899 -0.125750
C87   C     C_R   0.706258 0.572165 0.345052 -0.122353
C88   C     C_R   0.627183 0.662110 0.329221 0.030674
C89   C     C_R   0.624159 0.622458 0.407498 0.022430
C90   C     C_R   0.696543 0.103405 0.087719 0.038938
C91   C     C_R   0.757272 0.144472 0.101715 0.009253
C92   C     C_R   0.746231 0.176495 0.140106 -0.146122
C93   C     C_R   0.672186 0.174083 0.163763 0.021339
C94   C     C_R   0.605128 0.144527 0.148459 -0.128041
C95   C     C_R   0.726358 0.564184 0.609810 -0.129988
C96   C     C_R   0.617302 0.109360 0.110977 -0.147078
C97   C     C_R   0.575308 0.252835 0.224053 -0.118722
C98   C     C_R   0.571085 0.258585 0.263821 -0.118101
C99   C     C_R   0.660896 0.204963 0.285334 0.028466
C100  C     C_R   0.755623 0.149201 0.266396 -0.118088
C101  C     C_R   0.759857 0.143614 0.226525 -0.114686
C102  C     C_R   0.669440 0.193683 0.205153 0.032226
C103  C     C_R   0.723152 0.227488 0.348691 -0.122366
C104  C     C_R   0.706905 0.248587 0.387776 -0.127082
C105  C     C_R   0.558967 0.225226 0.385432 -0.126340
C106  C     C_R   0.738988 0.582913 0.647925 -0.122367
C107  C     C_R   0.575433 0.203902 0.346380 -0.122034
C108  C     C_R   0.654825 0.209457 0.327433 0.032554
C109  C     C_R   0.621707 0.252506 0.406091 0.022401
C110  C     C_R   0.085141 0.707434 0.093553 0.022580
C111  C     C_R   0.101124 0.615433 0.109545 -0.125259
C112  C     C_R   0.138046 0.589632 0.146657 -0.122121
C113  C     C_R   0.159518 0.655385 0.168257 0.032200
C114  C     C_R   0.151101 0.743228 0.151204 -0.119536
C115  C     C_R   0.114384 0.768970 0.114101 -0.125382
C116  C     C_R   0.250169 0.660146 0.227149 -0.118998
Cr1   Cr    Cr6+3 0.421670 0.426920 0.499620 1.009901
Cr2   Cr    Cr6+3 0.427030 0.651190 0.500980 1.010620
Cr3   Cr    Cr6+3 0.651280 0.421870 0.499380 1.010426
Cr4   Cr    Cr6+3 0.910810 0.908010 0.001130 1.064325
Cr5   Cr    Cr6+3 0.682800 0.909890 0.998370 1.020492
Cr6   Cr    Cr6+3 0.908370 0.682300 0.002180 1.018979
H1    H     H_    0.789089 0.499734 0.595136 0.129698
H2    H     H_    0.888849 0.007721 0.898168 0.140663
H3    H     H_    0.825579 0.157496 0.651307 0.101902
H4    H     H_    0.778125 0.229462 0.713352 0.110897
H5    H     H_    0.793051 0.207496 0.782712 0.115601
H6    H     H_    0.553791 0.183953 0.832655 0.157906
H7    H     H_    0.627246 0.049452 0.707865 0.111551
H8    H     H_    0.637712 0.032887 0.777417 0.123598
H9    H     H_    0.529208 0.181338 0.665752 0.103927
H10   H     H_    0.483863 0.245010 0.601277 0.128137
H11   H     H_    0.881652 0.043276 0.830246 0.110952
H12   H     H_    0.478684 0.754343 0.598497 0.128000
H13   H     H_    0.777916 0.226217 0.586870 0.122565
H14   H     H_    0.118670 0.825323 0.904234 0.131108
H15   H     H_    0.074260 0.563324 0.907648 0.133225
H16   H     H_    0.188501 0.499167 0.658413 0.104893
H17   H     H_    0.271927 0.485876 0.718575 0.107538
H18   H     H_    0.255907 0.493156 0.788370 0.116951
H19   H     H_    0.160892 0.793654 0.836379 0.111278
H20   H     H_    0.049753 0.808662 0.713302 0.106471
H21   H     H_    0.036214 0.815952 0.783001 0.108274
H22   H     H_    0.178198 0.789885 0.668647 0.105734
H23   H     H_    0.846523 0.549126 0.901568 0.135136
H24   H     H_    0.234383 0.775313 0.602563 0.126922
H25   H     H_    0.117120 0.532034 0.839545 0.117071
H26   H     H_    0.247705 0.482967 0.592325 0.123542
H27   H     H_    0.562874 0.873745 0.094346 0.124593
H28   H     H_    0.810715 0.560195 0.096529 0.131315
H29   H     H_    0.766964 0.515227 0.327049 0.103054
H30   H     H_    0.644386 0.541381 0.205742 0.107122
H31   H     H_    0.515167 0.857016 0.159591 0.100207
H32   H     H_    0.594854 0.830333 0.289487 0.104733
H33   H     H_    0.811446 0.532839 0.661508 0.132184
H34   H     H_    0.597372 0.846915 0.220015 0.104367
H35   H     H_    0.489318 0.805831 0.341580 0.101201
H36   H     H_    0.485736 0.771191 0.409605 0.121869
H37   H     H_    0.764742 0.544612 0.161757 0.102573
H38   H     H_    0.764142 0.480017 0.394819 0.125077
H39   H     H_    0.568535 0.080114 0.101175 0.131633
H40   H     H_    0.523339 0.187515 0.330629 0.101341
H41   H     H_    0.497450 0.304604 0.277794 0.108596
H42   H     H_    0.504840 0.292853 0.208029 0.108291
H43   H     H_    0.501058 0.787599 0.665011 0.131770
H44   H     H_    0.795387 0.203413 0.151698 0.087903
H45   H     H_    0.825827 0.107401 0.282425 0.102675
H46   H     H_    0.833122 0.096419 0.212459 0.104624
H47   H     H_    0.785015 0.232019 0.334703 0.099247
H48   H     H_    0.756837 0.269033 0.402959 0.124429
H49   H     H_    0.547502 0.141906 0.166277 0.107325
H50   H     H_    0.493284 0.226732 0.398831 0.125460
H51   H     H_    0.080336 0.565892 0.094163 0.127684
H52   H     H_    0.103382 0.840065 0.102423 0.130594
H53   H     H_    0.193566 0.786887 0.333248 0.103741
H54   H     H_    0.817297 0.529888 0.834479 0.134636
H55   H     H_    0.312888 0.675982 0.279863 0.111556
H56   H     H_    0.299048 0.678527 0.210195 0.107807
H57   H     H_    0.145710 0.520559 0.159059 0.102099
H58   H     H_    0.075497 0.596051 0.289117 0.104895
H59   H     H_    0.060239 0.600110 0.219477 0.106115
H60   H     H_    0.207900 0.494296 0.339543 0.101456
H61   H     H_    0.249557 0.484193 0.407343 0.124391
H62   H     H_    0.166442 0.795639 0.167368 0.103153
H63   H     H_    0.235619 0.777340 0.400881 0.127404
H64   H     H_    0.576551 0.849833 0.903741 0.141475
H65   H     H_    0.547288 0.830568 0.836537 0.139297
N1    N     N_R   0.750625 0.597913 0.767553 -0.235549
N2    N     N_R   0.746132 0.594982 0.729616 -0.236297
N3    N     N_R   0.587767 0.745982 0.731070 -0.237468
N4    N     N_R   0.592390 0.749062 0.769057 -0.235899
O1    O     O_R   0.502070 0.323090 0.541280 -0.521289
O2    O     O_R   0.520720 0.641670 0.461580 -0.501682
O3    O     O_R   0.674120 0.502090 0.457500 -0.521865
O4    O     O_R   0.640110 0.338380 0.459630 -0.504565
O5    O     O_3   0.499990 0.499990 0.499990 -0.234986
O6    O     O_R   0.017640 0.822070 0.960410 -0.520981
O7    O     O_R   0.822000 0.989470 0.960340 -0.484469
O8    O     O_R   0.666920 0.007430 0.955290 -0.525184
O9    O     O_R   0.694410 0.812480 0.959650 -0.499383
O10   O     O_R   0.831550 0.656950 0.958960 -0.517711
O11   O     O_R   0.998590 0.685540 0.963930 -0.502176
O12   O     O_R   0.338340 0.520690 0.539540 -0.502840
O13   O     O_R   0.008220 0.831200 0.045060 -0.516082
O14   O     O_R   0.813270 0.997930 0.038810 -0.451049
O15   O     O_R   0.657500 0.016560 0.039940 -0.534347
O16   O     O_R   0.685680 0.820940 0.038120 -0.504242
O17   O     O_R   0.822130 0.666070 0.043610 -0.517066
O18   O     O_R   0.989860 0.694000 0.042400 -0.504126
O19   O     O_3   0.833990 0.833400 0.000560 -0.248187
O20   O     O_R   0.324760 0.674070 0.543580 -0.520875
O21   O     O_R   0.522400 0.640310 0.540110 -0.503001
O22   O     O_R   0.675940 0.500630 0.542210 -0.518739
O23   O     O_R   0.641790 0.337020 0.538150 -0.500822
O24   O     O_R   0.500260 0.324550 0.456580 -0.519840
O25   O     O_R   0.336660 0.522040 0.461020 -0.503037
O26   O     O_R   0.322940 0.675540 0.458880 -0.520717
H66   H     H_    0.644256 0.524388 0.275188 0.111578
C117  C     C_2   0.831534 0.157030 0.077742 0.230526
H67   H     H_    0.894973 0.159973 0.091142 0.085149
O27   O     O_2   0.819697 0.170166 0.043283 -0.492797
C118  C     C_2   0.529533 0.171961 0.908596 0.237052
H68   H     H_    0.527676 0.178754 0.939536 0.133949
O28   O     O_2   0.448623 0.201927 0.891813 -0.519899

loop_
_geom_bond_atom_site_label_1
_geom_bond_atom_site_label_2
_ccdc_geom_bond_type
C51   O25   A    
C58   H17   S    
C44   C48   A    
C55   C56   A    
C106  H33   S    
N3    N4    A    
C105  H50   S    
C116  H56   S    
C1    O20   A    
C41   C42   A    
C35   C36   A    
C100  C101  A    
C9    C14   A    
C35   H11   S    
C98   H41   S    
C57   C58   A    
C39   C41   A    
C77   C78   A    
C51   O26   A    
C44   H9    S    
C99   C108  S    
C105  C107  A    
C46   C49   A    
C26   C27   A    
C93   C94   A    
C81   H34   S    
C18   O14   A    
Cr4   O14   S    
C64   C68   A    
Cr6   O10   S    
C95   C106  A    
Cr3   O5    S    
C115  H52   S    
C3    C116  A    
C31   C36   A    
C5    C6    A    
C59   C68   S    
C114  H62   S    
C66   C69   A    
C54   C63   S    
C16   C30   S    
C40   C49   S    
C62   C89   S    
C10   H63   S    
C96   H39   S    
Cr2   O21   S    
C34   C35   A    
Cr1   O24   S    
Cr2   O2    S    
C110  C111  A    
Cr5   O8    S    
C103  C104  A    
C60   H20   S    
C46   H13   S    
C46   C47   A    
C13   H43   S    
C61   H21   S    
C47   C48   A    
C8    C9    A    
C67   H16   S    
C40   O1    A    
C50   C52   A    
C107  C108  A    
Cr6   O19   S    
C17   O6    A    
C103  C108  A    
C45   C49   A    
Cr1   O25   S    
C4    C12   S    
C53   H19   S    
Cr2   O5    S    
C66   H26   S    
C97   C102  A    
C16   O9    A    
C94   C96   A    
C66   C67   A    
C59   C60   A    
C22   N1    A    
C87   H29   S    
C19   O16   A    
C118  H68   S    
Cr5   O15   S    
C74   C82   S    
C77   H30   S    
C112  C113  A    
C38   H4    S    
C97   C98   A    
Cr4   O7    S    
Cr4   O19   S    
C38   C39   A    
C47   H3    S    
Cr6   O18   S    
C74   C75   A    
C34   C43   S    
C6    H59   S    
C67   C68   A    
C18   C90   S    
C101  C102  A    
Cr6   O17   S    
C24   C25   A    
C20   O13   A    
C29   C84   S    
C72   C74   A    
C10   C14   A    
C91   C92   A    
C15   O7    A    
C85   C89   A    
C78   C79   A    
C4    C5    A    
C64   H22   S    
C58   C59   A    
C53   C54   A    
C15   C31   S    
C2    C106  A    
C33   H6    S    
C81   C82   A    
C57   H18   S    
C60   C61   A    
C84   C95   A    
C7    C116  A    
C37   C43   A    
C101  H46   S    
C118  O28   D    
C75   C76   A    
C5    H58   S    
C37   C38   A    
C9    H61   S    
Cr1   O1    S    
C94   H49   S    
C117  O27   D    
C15   O8    A    
C29   O22   A    
C14   C51   S    
C83   H35   S    
C21   C84   A    
C76   H28   S    
C8    C12   A    
C97   H42   S    
Cr2   O26   S    
C61   C63   A    
Cr4   O6    S    
Cr5   O9    S    
C13   C21   A    
C42   H8    S    
C27   H65   S    
Cr5   O19   S    
C90   C96   A    
C2    C13   A    
C70   C71   A    
C79   C88   S    
Cr3   O23   S    
C112  H57   S    
C20   C110  S    
C55   H25   S    
C83   C85   A    
C111  H51   S    
Cr3   O22   S    
C73   O4    A    
C70   C76   A    
C19   O17   A    
C52   H14   S    
C25   H23   S    
C42   C43   A    
Cr5   O16   S    
C3    C4    A    
C24   H54   S    
C21   H12   S    
C23   N2    A    
C65   H24   S    
C75   H37   S    
C52   C53   A    
C29   O21   A    
C104  H48   S    
C113  C114  A    
C87   C88   A    
C8    H60   S    
C25   C30   A    
C117  H67   S    
C105  C109  A    
C54   C55   A    
C72   H31   S    
C111  C112  A    
C36   H2    S    
C86   C87   A    
C31   C32   A    
C73   O24   A    
C44   C45   A    
C24   C28   A    
C57   C63   A    
C80   C81   A    
C86   C89   A    
C93   C102  S    
C32   C118  S    
C11   C12   A    
C114  C115  A    
C6    C7    A    
C17   C50   S    
C11   H53   S    
C99   C100  A    
C18   O15   A    
Cr3   O3    S    
C32   C33   A    
Cr6   O11   S    
C3    H55   S    
C71   C72   A    
Cr2   O20   S    
Cr1   O5    S    
C50   C56   A    
C64   C65   A    
C41   H7    S    
C56   H15   S    
C26   H64   S    
Cr4   O13   S    
C7    C113  S    
C90   C91   A    
C71   H27   S    
C77   C82   A    
C65   C69   A    
C80   H32   S    
C100  H45   S    
C92   C93   A    
C33   C34   A    
C83   C88   A    
Cr3   O4    S    
C73   C109  S    
C91   C117  S    
C17   O11   A    
C1    C69   S    
C10   C11   A    
C79   C80   A    
C92   H44   S    
C45   H10   S    
C20   O18   A    
C98   C99   A    
C85   H36   S    
C107  H40   S    
C40   O23   A    
C2    C23   S    
C103  H47   S    
C62   O3    A    
C104  C109  A    
N1    N2    A    
C19   C70   S    
C22   C28   S    
C62   O2    A    
C37   H5    S    
C22   N4    A    
Cr1   O12   S    
C86   H38   S    
C110  C115  A    
C23   N3    A    
C78   H66   S    
C16   O10   A    
C95   H1    S    
C39   C48   S    
C27   C28   A    
C26   C30   A    
C1    O12   A    
