data_mof_unit_33066.cif
_audit_creation_date              2012-12-10T18:05:47-0500
_audit_creation_method            fapswitch 2.2
_symmetry_space_group_name_H-M    P1
_symmetry_Int_Tables_number       1
_space_group_crystal_system       triclinic
_cell_length_a                    10.829701
_cell_length_b                    10.818518
_cell_length_c                    9.523771
_cell_angle_alpha                 90.390814
_cell_angle_beta                  90.511568
_cell_angle_gamma                 90.873436
_cell_volume                      1115.61640832

loop_
_atom_site_label
_atom_site_type_symbol
_atom_type_description
_atom_site_fract_x
_atom_site_fract_y
_atom_site_fract_z
_atom_type_partial_charge
C1    C     C_R   0.499301 0.262098 0.499669 0.832683
C2    C     C_R   0.500699 0.737902 0.500331 0.832682
C3    C     C_R   0.871605 0.495798 0.501798 -0.041632
C4    C     C_R   0.128395 0.504202 0.498202 -0.041633
C5    C     C_R   0.938964 0.445403 0.614920 0.063154
C6    C     C_R   0.061036 0.554597 0.385080 0.063154
C7    C     C_R   0.509046 0.063195 0.372704 -0.117401
C8    C     C_R   0.490954 0.936805 0.627296 -0.117403
C9    C     C_R   0.510170 0.935421 0.373158 -0.159320
C10   C     C_R   0.489830 0.064579 0.626842 -0.159322
C11   C     C_R   0.500997 0.871768 0.500438 0.024367
C12   C     C_R   0.499003 0.128232 0.499562 0.024368
C13   C     C_R   0.424266 0.420671 0.071842 0.091365
C14   C     C_R   0.575734 0.579329 0.928158 0.091364
C15   C     C_R   0.424638 0.421040 0.923238 -0.085985
C16   C     C_R   0.575362 0.578960 0.076762 -0.085984
C17   C     C_R   0.262298 0.502412 0.499292 0.838790
C18   C     C_R   0.737702 0.497587 0.500708 0.838790
C19   C     C_R   0.239015 0.787720 0.165510 -0.153793
C20   C     C_R   0.760982 0.212278 0.834488 -0.153792
C21   C     C_R   0.180160 0.733332 0.280519 0.403218
C22   C     C_R   0.819838 0.266667 0.719479 0.403216
C23   C     C_R   0.120614 0.617089 0.264691 0.049443
C24   C     C_R   0.879385 0.382910 0.735309 0.049442
C25   C     C_R   0.118212 0.558961 0.132356 -0.216312
C26   C     C_R   0.881789 0.441036 0.867645 -0.216311
C27   C     C_R   0.176704 0.614258 0.018088 -0.133772
C28   C     C_R   0.823296 0.385738 0.981913 -0.133769
C29   C     C_R   0.237847 0.728028 0.034891 -0.148016
C30   C     C_R   0.762150 0.271969 0.965108 -0.148015
C31   C     C_R   0.933085 0.548705 0.387816 -0.209315
C32   C     C_R   0.066915 0.451294 0.612184 -0.209315
Cu1   Cu    Cu3+1 0.500000 0.500020 0.640660 0.971702
Cu2   Cu    Cu3+1 0.500000 0.499980 0.359340 0.971702
H1    H     H_    0.283819 0.770272 0.946454 0.153883
H2    H     H_    0.716178 0.229724 0.053545 0.153881
H3    H     H_    0.364317 0.358350 0.864652 0.127346
H4    H     H_    0.635683 0.641650 0.135348 0.127346
H5    H     H_    0.285240 0.876675 0.177095 0.158508
H6    H     H_    0.714756 0.123324 0.822901 0.158506
H7    H     H_    0.072703 0.469841 0.118394 0.159810
H8    H     H_    0.927298 0.530156 0.881609 0.159809
H9    H     H_    0.175518 0.568360 0.916722 0.150058
H10   H     H_    0.824483 0.431634 0.083281 0.150058
H11   H     H_    0.881266 0.588934 0.301939 0.146018
H12   H     H_    0.118734 0.411065 0.698061 0.146018
H13   H     H_    0.516639 0.110751 0.273347 0.142246
H14   H     H_    0.483361 0.889249 0.726653 0.142246
H15   H     H_    0.518326 0.886755 0.273967 0.138112
H16   H     H_    0.481674 0.113245 0.726033 0.138111
N1    N     N_R   0.500030 0.500030 0.852070 -0.180697
N2    N     N_R   0.499970 0.499970 0.147930 -0.180697
O1    O     O_R   0.499990 0.319660 0.618740 -0.595007
O2    O     O_R   0.500010 0.680340 0.381260 -0.595007
O3    O     O_R   0.499990 0.319630 0.381170 -0.584657
O4    O     O_R   0.500010 0.680370 0.618830 -0.584658
O5    O     O_R   0.319650 0.500020 0.618780 -0.593709
O6    O     O_R   0.680350 0.499980 0.381220 -0.593709
O7    O     O_R   0.319640 0.500000 0.381210 -0.574366
O8    O     O_R   0.680360 0.500000 0.618790 -0.574366
Cl1   Cl    Cl    0.180063 0.813900 0.441755 -0.634313
Cl2   Cl    Cl    0.819935 0.186101 0.558241 -0.634314
C33   C     C_1   0.341871 0.335773 0.141079 0.256804
N3    N     N_1   0.275142 0.267256 0.195903 -0.279207
C34   C     C_1   0.658129 0.664226 0.858920 0.256804
N4    N     N_1   0.724858 0.732743 0.804097 -0.279206

loop_
_geom_bond_atom_site_label_1
_geom_bond_atom_site_label_2
_ccdc_geom_bond_type
C17   O5    A    
Cu1   O5    S    
C8    H14   S    
C28   C30   A    
C15   N1    A    
Cu1   N1    S    
C13   N2    A    
C29   H1    S    
Cu2   N2    S    
C14   N1    A    
C13   C33   S    
C30   H2    S    
C5    C32   A    
C32   H12   S    
C7    C9    A    
Cu1   O4    S    
C13   C15   A    
Cu1   Cu2   S    
C1    O3    A    
Cu2   O3    S    
C19   C29   A    
C20   C30   A    
C3    C31   A    
C9    C11   A    
C24   C26   A    
C10   H16   S    
Cu2   O7    S    
C1    C12   S    
C19   H5    S    
C17   O7    A    
C8    C11   A    
C2    C11   S    
C10   C12   A    
C18   O8    A    
C19   C21   A    
C14   C34   S    
C20   C22   A    
Cu2   O2    S    
Cu1   O8    S    
C22   C24   A    
C23   C25   A    
C21   C23   A    
Cu1   O1    S    
C7    C12   A    
C20   H6    S    
C14   C16   A    
C2    O2    A    
C22   Cl2   S    
C4    C17   S    
C4    C32   A    
C6    C31   A    
C27   H9    S    
C9    H15   S    
C27   C29   A    
C26   H8    S    
C3    C18   S    
C4    C6    A    
C34   N4    T    
C31   H11   S    
C25   H7    S    
C21   Cl1   S    
Cu2   O6    S    
C1    O1    A    
C5    C24   S    
C2    O4    A    
C6    C23   S    
C26   C28   A    
C28   H10   S    
C8    C10   A    
C15   H3    S    
C18   O6    A    
C16   N2    A    
C16   H4    S    
C33   N3    T    
C3    C5    A    
C25   C27   A    
C7    H13   S    
