data_mof_unit_44872.cif
_audit_creation_date              2012-12-10T16:46:42-0500
_audit_creation_method            fapswitch 2.2
_symmetry_space_group_name_H-M    P1
_symmetry_Int_Tables_number       1
_space_group_crystal_system       triclinic
_cell_length_a                    15.869133
_cell_length_b                    8.719493
_cell_length_c                    7.441915
_cell_angle_alpha                 103.150069
_cell_angle_beta                  93.9999
_cell_angle_gamma                 92.182537
_cell_volume                      998.754721101

loop_
_atom_site_label
_atom_site_type_symbol
_atom_type_description
_atom_site_fract_x
_atom_site_fract_y
_atom_site_fract_z
_atom_type_partial_charge
C1    C     C_R   0.498446 0.199826 0.453697 0.906172
C2    C     C_3   0.952153 0.430743 0.645361 -0.386786
C3    C     C_3   0.916600 0.508254 0.489519 -0.111232
C4    C     C_3   0.955365 0.682315 0.534050 0.107936
C5    C     C_3   0.055614 0.683123 0.551464 0.633623
C6    C     C_1   0.824339 0.504503 0.489680 0.058382
C7    C     C_1   0.175679 0.504616 0.505399 0.064468
C8    C     C_1   0.251172 0.502807 0.507540 -0.106882
C9    C     C_2   0.496052 0.032206 0.431164 -0.381839
C10   C     C_2   0.518129 0.968602 0.573891 0.242265
C11   C     C_R   0.340402 0.500332 0.502702 0.815705
C12   C     C_R   0.506795 0.800168 0.546847 0.760937
C13   C     C_R   0.659609 0.499975 0.497270 0.819178
C14   C     C_3   0.048364 0.411979 0.635504 0.193035
C15   C     C_3   0.041958 0.431133 0.297465 0.177807
C16   C     C_3   0.943746 0.412216 0.300613 0.182953
C17   C     C_1   0.748901 0.501583 0.491864 -0.098330
C18   C     C_3   0.083204 0.506965 0.498804 -0.128808
Cu1   Cu    Cu3+1 0.509300 0.517380 0.684380 1.009217
Cu2   Cu    Cu3+1 0.490700 0.482620 0.315620 1.006287
H1    H     H_    0.919671 0.313061 0.633559 0.222622
H2    H     H_    0.938983 0.503806 0.782942 0.210126
H3    H     H_    0.473100 0.960156 0.296016 0.145156
H4    H     H_    0.434953 0.377041 0.948419 0.245903
H5    H     H_    0.565056 0.622945 0.051578 0.232998
H6    H     H_    0.057435 0.284407 0.583071 0.208331
H7    H     H_    0.054136 0.515915 0.209791 0.174673
H8    H     H_    0.913985 0.458423 0.184863 0.139549
H9    H     H_    0.933689 0.742200 0.670161 0.112465
N1    N     N_2   0.476670 0.456430 0.038530 -0.192458
N2    N     N_2   0.523330 0.543570 0.961470 -0.205416
O1    O     O_R   0.506050 0.286130 0.619770 -0.519395
O2    O     O_R   0.490330 0.256780 0.308370 -0.586302
O3    O     O_R   0.387300 0.514690 0.655770 -0.587474
O4    O     O_R   0.371580 0.485340 0.344370 -0.552150
O5    O     O_R   0.509670 0.743220 0.691630 -0.589624
O6    O     O_R   0.493950 0.713870 0.380230 -0.603630
O7    O     O_R   0.628420 0.514660 0.655630 -0.569758
O8    O     O_R   0.612700 0.485310 0.344230 -0.578391
O9    O     O_3   0.089727 0.460549 0.814199 -0.677122
H10   H     H_    0.143230 0.405136 0.813644 0.367888
S1    S     S_3+6 0.913946 0.800441 0.379277 0.077213
O10   O     O_2   0.941787 0.743592 0.187581 -0.235462
O11   O     O_2   0.818964 0.796500 0.369022 -0.308280
O12   O     O_3   0.951153 0.988112 0.462298 -0.382690
H11   H     H_    0.934396 0.016460 0.590878 0.342661
O13   O     O_3   0.552227 0.061410 0.742408 -0.691623
H12   H     H_    0.572131 0.993813 0.825304 0.339924
S2    S     S_3+6 0.087956 0.253573 0.174287 0.085839
O14   O     O_2   0.035120 0.187621 0.995721 -0.194101
O15   O     O_2   0.175642 0.293743 0.128176 -0.318639
O16   O     O_3   0.092483 0.113775 0.296892 -0.399013
H13   H     H_    0.149452 0.129672 0.363893 0.337139
O17   O     O_3   0.917021 0.252186 0.274552 -0.592867
H14   H     H_    0.857007 0.240705 0.223665 0.340375
O18   O     O_3   0.088646 0.759416 0.732990 -0.660374
H15   H     H_    0.053181 0.728620 0.824791 0.372455
O19   O     O_3   0.088724 0.767410 0.428660 -0.628047
H16   H     H_    0.149580 0.795152 0.467327 0.353413

loop_
_geom_bond_atom_site_label_1
_geom_bond_atom_site_label_2
_ccdc_geom_bond_type
C15   C16   S    
C2    H2    S    
C15   C18   S    
H5    N2    S    
Cu1   O7    S    
C12   O5    A    
C9    C10   D    
C14   C18   S    
C5    O18   S    
C15   H7    S    
C16   H8    S    
C11   O3    A    
C13   C17   S    
C3    C6    S    
Cu1   N2    S    
S2    O16   S    
C2    H1    S    
C11   O4    A    
C2    C3    S    
C1    O2    A    
C7    C8    T    
Cu2   N1    S    
O12   H11   S    
C14   H6    S    
Cu2   O6    S    
C13   O7    A    
S1    O11   D    
C5    O19   S    
C8    C11   S    
Cu1   O1    S    
C10   C12   S    
O9    H10   S    
H4    N1    S    
Cu1   O5    S    
C15   S2    S    
N1    N2    D    
C2    C14   S    
C4    S1    S    
C16   O17   S    
C13   O8    A    
S1    O10   D    
Cu2   O2    S    
C14   O9    S    
C3    C4    S    
O13   H12   S    
C10   O13   S    
C7    C18   S    
C1    C9    S    
O18   H15   S    
S2    O14   D    
C12   O6    A    
Cu2   O8    S    
C6    C17   T    
O17   H14   S    
C9    H3    S    
C5    C18   S    
Cu1   Cu2   S    
O19   H16   S    
Cu2   O4    S    
S1    O12   S    
C1    O1    A    
C3    C16   S    
C4    H9    S    
O16   H13   S    
C4    C5    S    
S2    O15   D    
Cu1   O3    S    
