data_mof_unit_28271.cif
_audit_creation_date              2013-03-05T15:56:42-0500
_audit_creation_method            fapswitch 2.2
_symmetry_space_group_name_H-M    P1
_symmetry_Int_Tables_number       1
_space_group_crystal_system       triclinic
_cell_length_a                    21.326332
_cell_length_b                    21.320552
_cell_length_c                    13.667736
_cell_angle_alpha                 89.925097
_cell_angle_beta                  89.899306
_cell_angle_gamma                 89.993246
_cell_volume                      6214.55659359

loop_
_atom_site_label
_atom_site_type_symbol
_atom_site_description
_atom_site_fract_x
_atom_site_fract_y
_atom_site_fract_z
_atom_type_partial_charge
O1    O     O_R   0.064880 0.435140 0.582280 -0.589204
O2    O     O_R   0.935120 0.564860 0.417720 -0.590721
O3    O     O_R   0.935120 0.564860 0.582280 -0.587307
O4    O     O_R   0.064880 0.435140 0.417720 -0.590430
O5    O     O_R   0.935120 0.435140 0.417720 -0.589364
O6    O     O_R   0.064880 0.564860 0.582280 -0.588056
O7    O     O_R   0.064880 0.564860 0.417720 -0.587441
O8    O     O_R   0.935120 0.435140 0.582280 -0.589048
O9    O     O_R   0.564880 0.935140 0.582280 -0.588994
O10   O     O_R   0.435120 0.064860 0.417720 -0.587624
O11   O     O_R   0.435120 0.064860 0.582280 -0.587637
O12   O     O_R   0.564880 0.935140 0.417720 -0.586638
O13   O     O_R   0.435120 0.935140 0.417720 -0.589758
O14   O     O_R   0.564880 0.064860 0.582280 -0.590856
O15   O     O_R   0.564880 0.064860 0.417720 -0.590304
O16   O     O_R   0.435120 0.935140 0.582280 -0.591896
C1    C     C_R   0.086071 0.414539 0.499979 0.816576
C2    C     C_R   0.914171 0.585723 0.500019 0.815852
C3    C     C_R   0.914178 0.414271 0.500089 0.813451
C4    C     C_R   0.085650 0.585914 0.499910 0.817849
C5    C     C_R   0.585709 0.914190 0.499989 0.817050
C6    C     C_R   0.414400 0.085954 0.500024 0.816315
C7    C     C_R   0.413940 0.914532 0.500086 0.816259
C8    C     C_R   0.585954 0.085589 0.499892 0.815952
Cu1   Cu    Cu3+1 1.000000 0.500000 0.597420 0.940491
Cu2   Cu    Cu3+1 0.000000 0.500000 0.402580 0.944533
Cu3   Cu    Cu3+1 0.500000 0.000000 0.597420 0.942071
Cu4   Cu    Cu3+1 0.500000 0.000000 0.402580 0.939071
C9    C     C_R   0.153574 0.660941 0.588325 -0.208359
C10   C     C_R   0.844430 0.340664 0.588807 -0.210742
C11   C     C_R   0.835056 0.649750 0.587339 -0.208703
C12   C     C_R   0.155416 0.340822 0.588503 -0.210524
C13   C     C_R   0.654891 0.159959 0.411140 -0.209747
C14   C     C_R   0.344594 0.840996 0.411606 -0.210864
C15   C     C_R   0.346758 0.161400 0.411605 -0.210066
C16   C     C_R   0.664113 0.849519 0.412582 -0.207160
C17   C     C_R   0.133650 0.634732 0.499734 -0.092454
C18   C     C_R   0.865536 0.366120 0.500157 -0.086631
C19   C     C_R   0.865595 0.633947 0.499988 -0.093239
C20   C     C_R   0.135115 0.366823 0.499917 -0.093554
C21   C     C_R   0.634483 0.133840 0.499743 -0.088815
C22   C     C_R   0.364950 0.866772 0.500213 -0.093108
C23   C     C_R   0.366515 0.134871 0.500145 -0.092754
C24   C     C_R   0.633795 0.865540 0.499992 -0.092980
C25   C     C_R   0.159377 0.655437 0.410959 -0.213146
C26   C     C_R   0.840185 0.345509 0.411330 -0.225237
C27   C     C_R   0.849482 0.663999 0.412361 -0.220244
C28   C     C_R   0.161879 0.347392 0.411278 -0.214132
C29   C     C_R   0.660402 0.153921 0.588444 -0.219297
C30   C     C_R   0.338301 0.847058 0.588851 -0.214621
C31   C     C_R   0.340748 0.155363 0.588920 -0.217009
C32   C     C_R   0.649357 0.834986 0.587449 -0.216935
C33   C     C_R   0.205674 0.701752 0.409911 0.027941
C34   C     C_R   0.793145 0.299980 0.410099 0.012033
C35   C     C_R   0.802773 0.709911 0.410931 0.026932
C36   C     C_R   0.208361 0.301256 0.410128 0.033867
C37   C     C_R   0.706053 0.200821 0.589737 0.027357
C38   C     C_R   0.291891 0.800846 0.589954 0.033952
C39   C     C_R   0.294496 0.201710 0.590020 0.027811
C40   C     C_R   0.695363 0.788380 0.588524 0.030079
C41   C     C_R   0.226085 0.727519 0.499739 -0.001173
C42   C     C_R   0.772134 0.274332 0.499854 0.001917
C43   C     C_R   0.772462 0.726051 0.499558 -0.005034
C44   C     C_R   0.227834 0.274348 0.499729 -0.002565
C45   C     C_R   0.725972 0.227544 0.500166 -0.000675
C46   C     C_R   0.272377 0.774160 0.500322 -0.002183
C47   C     C_R   0.274169 0.227746 0.500251 -0.000923
C48   C     C_R   0.725918 0.772460 0.500027 -0.002236
C49   C     C_R   0.199470 0.707358 0.588953 0.070824
C50   C     C_R   0.798140 0.294627 0.589277 0.067948
C51   C     C_R   0.788577 0.695627 0.587777 0.072155
C52   C     C_R   0.201612 0.294734 0.589051 0.068448
C53   C     C_R   0.700567 0.206620 0.410700 0.060679
C54   C     C_R   0.298473 0.794855 0.411024 0.068350
C55   C     C_R   0.300896 0.207866 0.411042 0.071306
C56   C     C_R   0.710038 0.803123 0.411958 0.070690
C57   C     C_R   0.231843 0.722845 0.320978 0.427007
C58   C     C_R   0.767150 0.279097 0.320991 0.444617
C59   C     C_R   0.785440 0.739458 0.322649 0.451721
C60   C     C_R   0.235573 0.281594 0.321269 0.423282
C61   C     C_R   0.732218 0.221363 0.678738 0.423204
C62   C     C_R   0.264773 0.780904 0.678794 0.423751
C63   C     C_R   0.268261 0.222519 0.678970 0.424592
C64   C     C_R   0.711616 0.757773 0.676336 0.424286
C65   C     C_R   0.778336 0.267942 0.677771 -0.296233
C66   C     C_R   0.218284 0.734500 0.677418 -0.302852
C67   C     C_R   0.222329 0.269342 0.677776 -0.300133
C68   C     C_R   0.757723 0.711048 0.675033 -0.303241
C69   C     C_R   0.277695 0.769737 0.322272 -0.300454
C70   C     C_R   0.721556 0.232096 0.322024 -0.283603
C71   C     C_R   0.740256 0.787153 0.324497 -0.310137
C72   C     C_R   0.282181 0.235284 0.322641 -0.304665
C73   C     C_R   0.055707 0.498592 0.793083 0.002360
C74   C     C_R   0.944272 0.500578 0.206954 0.008530
C75   C     C_R   0.944282 0.500748 0.793376 0.004790
C76   C     C_R   0.055712 0.498509 0.206655 0.010000
C77   C     C_R   0.555601 0.003729 0.793052 0.001525
C78   C     C_R   0.444427 0.995966 0.206914 0.001047
C79   C     C_R   0.444427 0.995852 0.793367 0.005979
C80   C     C_R   0.555598 0.003713 0.206603 0.000357
N1    N     N_R   1.000000 0.500000 0.743810 -0.182589
N2    N     N_R   0.000000 0.500000 0.256190 -0.180775
N3    N     N_R   0.500000 1.000000 0.743810 -0.181798
N4    N     N_R   0.500000 1.000000 0.256190 -0.182588
C81   C     C_R   0.942927 0.500375 0.896517 -0.003336
C82   C     C_R   0.057042 0.497959 0.103546 -0.007324
C83   C     C_R   0.057048 0.498098 0.896214 -0.003793
C84   C     C_R   0.942934 0.500177 0.103852 -0.000188
C85   C     C_R   0.443119 0.995387 0.896474 -0.008105
C86   C     C_R   0.556945 0.003755 0.103465 -0.005854
C87   C     C_R   0.556947 0.003731 0.896149 -0.010339
C88   C     C_R   0.443110 0.995504 0.103788 -0.004694
C89   C     C_R   0.999990 0.499225 0.948183 0.090334
C90   C     C_R   0.999991 0.499171 0.051880 0.094850
C91   C     C_R   0.500032 0.999592 0.948125 0.095453
C92   C     C_R   0.500029 0.999619 0.051811 0.090475
C93   C     C_R   0.886156 0.500918 0.948971 -0.201519
C94   C     C_R   0.113773 0.496148 0.051141 -0.221834
C95   C     C_R   0.113794 0.496363 0.948357 -0.202211
C96   C     C_R   0.886182 0.500618 0.051748 -0.209640
C97   C     C_R   0.386540 0.990813 0.948888 -0.224257
C98   C     C_R   0.613571 0.007772 0.051016 -0.208385
C99   C     C_R   0.613571 0.007731 0.948237 -0.212928
C100  C     C_R   0.386518 0.990974 0.051665 -0.203189
H1    H     H_    0.133249 0.645404 0.656990 0.154479
H2    H     H_    0.864311 0.356298 0.657560 0.153425
H3    H     H_    0.847241 0.626179 0.655058 0.148745
H4    H     H_    0.135118 0.356217 0.657210 0.152691
H5    H     H_    0.635167 0.144135 0.342380 0.151233
H6    H     H_    0.364786 0.856614 0.342884 0.151867
H7    H     H_    0.367160 0.146052 0.342952 0.154239
H8    H     H_    0.652143 0.873278 0.344924 0.150123
H9    H     H_    0.143564 0.635074 0.342717 0.189886
H10   H     H_    0.857097 0.365212 0.343135 0.182155
H11   H     H_    0.873554 0.651557 0.345283 0.195027
H12   H     H_    0.146215 0.368118 0.343125 0.188984
H13   H     H_    0.644722 0.133079 0.656575 0.186067
H14   H     H_    0.354006 0.867612 0.657022 0.187823
H15   H     H_    0.356467 0.134775 0.657136 0.189904
H16   H     H_    0.625539 0.847646 0.654690 0.191822
O17   O     O_3   0.208262 0.702313 0.232403 -0.607073
C101  C     C_3   0.250490 0.658746 0.191106 0.031564
H17   H     H_    0.254810 0.616750 0.239346 0.140042
H18   H     H_    0.297697 0.680097 0.180030 0.141508
C102  C     C_3   0.225278 0.638125 0.091609 -0.308246
H19   H     H_    0.177694 0.617690 0.101081 0.230129
H20   H     H_    0.221484 0.679658 0.042663 0.223921
C103  C     C_3   0.267999 0.589589 0.043764 -0.952568
H21   H     H_    0.315668 0.609348 0.032391 0.258123
H22   H     H_    0.248454 0.576021 0.971565 0.255363
H23   H     H_    0.271318 0.546982 0.090371 0.259659
O18   O     O_3   0.789988 0.300186 0.231990 -0.609642
C104  C     C_3   0.758606 0.355897 0.203918 0.040584
H24   H     H_    0.794271 0.388130 0.172323 0.163349
H25   H     H_    0.736191 0.381716 0.265951 0.119551
C105  C     C_3   0.709712 0.341277 0.125336 -0.337846
H26   H     H_    0.731977 0.314101 0.065212 0.233450
H27   H     H_    0.671565 0.312385 0.157623 0.210118
C106  C     C_3   0.681563 0.401257 0.083053 -0.935063
H28   H     H_    0.658766 0.429165 0.141760 0.260140
H29   H     H_    0.645761 0.389128 0.027326 0.256524
H30   H     H_    0.718640 0.429970 0.047470 0.253817
O19   O     O_3   0.816680 0.725382 0.236326 -0.614126
C107  C     C_3   0.775928 0.694445 0.170357 0.058081
H31   H     H_    0.795038 0.701380 0.095442 0.173008
H32   H     H_    0.727618 0.714412 0.169563 0.129118
C108  C     C_3   0.773707 0.623837 0.191784 -0.371837
H33   H     H_    0.822084 0.604452 0.190584 0.221733
H34   H     H_    0.753401 0.615735 0.265645 0.213028
C109  C     C_3   0.733894 0.589221 0.116564 -0.927148
H35   H     H_    0.685332 0.608059 0.116158 0.262216
H36   H     H_    0.731964 0.538628 0.135606 0.249895
H37   H     H_    0.754678 0.594230 0.042374 0.257904
O20   O     O_3   0.221421 0.312617 0.234977 -0.617274
C110  C     C_3   0.187612 0.272229 0.172580 0.034115
H38   H     H_    0.145688 0.252604 0.210784 0.142339
H39   H     H_    0.218012 0.233137 0.146703 0.147246
C111  C     C_3   0.165459 0.309725 0.083682 -0.303753
H40   H     H_    0.133969 0.348212 0.108242 0.223711
H41   H     H_    0.206652 0.330998 0.046321 0.227581
C112  C     C_3   0.130433 0.268300 0.011061 -0.926229
H42   H     H_    0.161508 0.230219 0.984157 0.253290
H43   H     H_    0.115148 0.296995 0.947561 0.257333
H44   H     H_    0.088347 0.247363 0.046221 0.262021
O21   O     O_3   0.717297 0.191750 0.765799 -0.612498
C113  C     C_3   0.671704 0.227596 0.815579 0.027277
H45   H     H_    0.630453 0.237146 0.767675 0.141788
H46   H     H_    0.692243 0.272879 0.840517 0.147012
C114  C     C_3   0.649323 0.190594 0.904942 -0.307891
H47   H     H_    0.629998 0.144733 0.880786 0.226261
H48   H     H_    0.689721 0.181488 0.954262 0.225150
C115  C     C_3   0.598792 0.226064 0.961401 -0.924499
H49   H     H_    0.617124 0.271928 0.986953 0.254746
H50   H     H_    0.584174 0.198082 0.026125 0.259714
H51   H     H_    0.557152 0.234038 0.914284 0.263449
O22   O     O_3   0.278846 0.811768 0.765109 -0.616268
C116  C     C_3   0.313451 0.771578 0.826919 0.032686
H52   H     H_    0.355131 0.752097 0.787921 0.140674
H53   H     H_    0.283439 0.732377 0.853658 0.148001
C117  C     C_3   0.336271 0.809286 0.915033 -0.301323
H54   H     H_    0.367209 0.847975 0.889401 0.222596
H55   H     H_    0.295328 0.830303 0.953358 0.228056
C118  C     C_3   0.372419 0.768202 0.986954 -0.932724
H56   H     H_    0.341896 0.730011 0.015133 0.254274
H57   H     H_    0.388301 0.797125 0.049725 0.257429
H58   H     H_    0.414208 0.747432 0.950745 0.260016
O23   O     O_3   0.291765 0.201629 0.767473 -0.610536
C119  C     C_3   0.249743 0.157517 0.807980 0.032657
H59   H     H_    0.244133 0.116663 0.757874 0.141147
H60   H     H_    0.203032 0.179228 0.821852 0.144181
C120  C     C_3   0.276277 0.134259 0.905282 -0.313229
H61   H     H_    0.323212 0.113035 0.892695 0.228618
H62   H     H_    0.281836 0.174614 0.955978 0.223797
C121  C     C_3   0.233410 0.085613 0.952687 -0.944049
H63   H     H_    0.186486 0.106185 0.967438 0.258836
H64   H     H_    0.254049 0.069927 0.023118 0.255774
H65   H     H_    0.228184 0.044209 0.904129 0.260350
O24   O     O_3   0.678607 0.769737 0.761586 -0.614167
C122  C     C_3   0.716065 0.806381 0.824553 0.034015
H66   H     H_    0.733106 0.849518 0.786576 0.139712
H67   H     H_    0.756940 0.778655 0.851033 0.146253
C123  C     C_3   0.676530 0.826202 0.912696 -0.310970
H68   H     H_    0.636172 0.854910 0.887235 0.225854
H69   H     H_    0.657930 0.783746 0.950089 0.222936
C124  C     C_3   0.714852 0.864335 0.985673 -0.931518
H70   H     H_    0.754690 0.836034 0.013820 0.257310
H71   H     H_    0.684637 0.877988 0.048385 0.258128
H72   H     H_    0.733158 0.907601 0.950411 0.258324
H73   H     H_    0.799264 0.282497 0.746311 0.157689
H74   H     H_    0.196055 0.720534 0.745411 0.151673
H75   H     H_    0.203404 0.286260 0.746537 0.155173
H76   H     H_    0.768999 0.686527 0.742269 0.149962
H77   H     H_    0.296504 0.786941 0.253538 0.155170
H78   H     H_    0.702974 0.215158 0.253177 0.154361
H79   H     H_    0.728872 0.811717 0.257319 0.150565
H80   H     H_    0.304561 0.221566 0.254703 0.150585
H81   H     H_    0.099111 0.497784 0.751900 0.126081
H82   H     H_    0.900855 0.501331 0.248129 0.117505
H83   H     H_    0.900880 0.501554 0.752418 0.122873
H84   H     H_    0.099119 0.497721 0.247607 0.126202
H85   H     H_    0.598920 0.006687 0.751888 0.129830
H86   H     H_    0.401104 0.993063 0.248075 0.127106
H87   H     H_    0.401106 0.992903 0.752450 0.127613
H88   H     H_    0.598915 0.006626 0.247530 0.125907
H89   H     H_    0.841759 0.501490 0.910573 0.133856
H90   H     H_    0.158093 0.494618 0.089647 0.150270
H91   H     H_    0.158161 0.495157 0.909688 0.137717
H92   H     H_    0.841866 0.500601 0.090465 0.138953
H93   H     H_    0.342334 0.987138 0.910409 0.151428
H94   H     H_    0.657843 0.010908 0.089438 0.141391
H95   H     H_    0.657828 0.010894 0.909518 0.145534
H96   H     H_    0.342271 0.987528 0.090347 0.138217

loop_
_geom_bond_atom_site_label_1
_geom_bond_atom_site_label_2
_geom_bond_distance
_ccdc_geom_bond_type
C79   N3    1.366843 A    
C118  H56   1.110633 S    
C10   H2    1.084511 S    
C80   C86   1.409902 A    
C8    C21   1.459343 S    
C9    H1    1.084516 S    
O2    C2    1.289270 A    
C84   C96   1.405380 A    
C63   C67   1.398623 A    
O19   C107  1.416956 S    
C14   C22   1.400280 A    
C103  H23   1.111132 S    
C11   H3    1.084599 S    
C110  C111  1.529052 S    
O9    C5    1.288944 A    
C102  C103  1.525786 S    
C82   C90   1.408061 A    
C111  H40   1.112132 S    
O24   C122  1.411906 S    
C45   C53   1.411245 A    
C12   C52   1.391397 A    
C112  H42   1.110599 S    
O10   C6    1.289374 A    
C116  C117  1.529139 S    
C118  H57   1.110619 S    
C74   C84   1.409547 A    
C7    C22   1.458996 S    
C32   C40   1.396413 A    
O12   Cu4   1.967078 S    
C54   C69   1.399378 A    
C81   C89   1.408248 A    
C107  H31   1.111085 S    
C78   H86   1.082602 S    
C103  H22   1.110599 S    
C53   C70   1.400273 A    
C88   C100  1.405942 A    
C29   H13   1.083629 S    
C38   C62   1.409203 A    
C79   C85   1.409483 A    
C77   C87   1.409441 A    
C121  H64   1.110335 S    
C111  H41   1.111806 S    
O6    Cu1   1.966795 S    
C26   H10   1.083099 S    
C109  H35   1.110787 S    
O14   C8    1.289300 A    
C91   C92   1.417163 A    
C46   C54   1.410780 A    
C71   H79   1.084317 S    
C80   N4    1.366943 A    
C124  H72   1.110800 S    
C29   C37   1.395838 A    
C42   C50   1.411546 A    
C70   H78   1.084033 S    
C114  H48   1.111760 S    
C69   H77   1.084345 S    
C43   C51   1.411398 A    
C116  H53   1.113669 S    
C95   H91   1.083280 S    
C94   C95   1.404831 A    
C83   C89   1.408126 A    
C97   C100  1.404742 A    
C63   O23   1.383306 S    
C16   C56   1.391962 A    
C39   C47   1.414729 A    
O20   C110  1.411701 S    
C33   C41   1.415041 A    
C41   C46   1.401367 A    
C74   H82   1.082823 S    
O21   C113  1.411127 S    
C106  H28   1.110872 S    
C73   H81   1.082654 S    
C117  H54   1.112214 S    
C59   O19   1.387107 S    
C35   C43   1.414880 A    
C36   C44   1.414658 A    
O13   Cu4   1.966798 S    
O14   Cu3   1.966795 S    
C104  H25   1.118084 S    
C15   C23   1.400665 A    
C62   O22   1.384982 S    
C28   C36   1.396496 A    
C61   C65   1.397828 A    
C24   C32   1.400956 A    
O16   Cu3   1.967689 S    
C12   C20   1.400260 A    
C113  H45   1.116108 S    
C25   C33   1.396513 A    
C82   C94   1.405442 A    
O1    Cu1   1.966947 S    
O8    Cu1   1.967689 S    
C76   H84   1.082740 S    
C101  C102  1.528366 S    
C81   C93   1.406043 A    
C123  H68   1.112148 S    
Cu1   N1    2.000820 S    
C21   C29   1.400841 A    
O3    C2    1.289174 A    
C10   C50   1.392179 A    
O13   C7    1.288947 A    
C38   C46   1.414701 A    
C102  H19   1.111699 S    
C108  C109  1.525699 S    
C9    C49   1.392033 A    
C112  H43   1.110572 S    
C124  H71   1.110535 S    
C118  H58   1.110940 S    
O8    C3    1.289369 A    
C78   C88   1.409870 A    
C16   H8    1.084657 S    
C102  H20   1.112136 S    
C87   C99   1.405538 A    
O23   C119  1.411137 S    
C30   C38   1.396695 A    
C44   C47   1.401242 A    
O3    Cu1   1.967078 S    
C65   H73   1.084126 S    
C103  H21   1.111076 S    
C117  H55   1.111959 S    
C110  H39   1.113504 S    
C93   C96   1.404738 A    
C73   N1    1.366966 A    
C108  H33   1.111473 S    
C61   O21   1.382949 S    
C121  H63   1.110817 S    
C119  H59   1.115291 S    
C34   C42   1.414599 A    
C123  C124  1.526093 S    
Cu1   Cu2   2.663020 S    
C62   C66   1.400880 A    
C19   C27   1.400853 A    
C77   H85   1.082627 S    
O12   C5    1.289017 A    
C72   H80   1.083826 S    
C58   C70   1.396421 A    
O5    Cu2   1.966798 S    
C108  H34   1.111092 S    
C1    C20   1.458990 S    
C66   H74   1.083865 S    
C60   C72   1.401066 A    
C114  C115  1.525479 S    
C33   C57   1.409761 A    
C2    C19   1.459469 S    
C115  H51   1.110812 S    
C99   H95   1.083343 S    
C39   C63   1.409557 A    
C3    C18   1.459563 S    
C98   H94   1.083314 S    
C5    C24   1.458516 S    
C35   C59   1.410287 A    
Cu4   N4    2.000820 S    
C97   H93   1.083241 S    
C120  H61   1.111657 S    
O11   Cu3   1.967078 S    
C36   C60   1.409377 A    
C15   C55   1.392083 A    
C26   C34   1.396162 A    
C94   H90   1.083105 S    
C124  H70   1.111009 S    
C106  H30   1.111070 S    
O2    Cu2   1.966947 S    
C75   H83   1.082680 S    
C76   N2    1.366834 A    
C104  C105  1.530661 S    
C123  H69   1.111776 S    
O7    Cu2   1.967686 S    
C74   N2    1.366844 A    
C77   N3    1.366857 A    
C64   O24   1.384231 S    
C55   C72   1.400228 A    
C22   C30   1.401300 A    
O4    C1    1.289047 A    
C13   C53   1.392404 A    
O15   C8    1.289102 A    
C120  H62   1.111910 S    
C14   C54   1.391251 A    
O16   C7    1.289273 A    
C93   H89   1.083404 S    
O10   Cu4   1.966947 S    
C16   C24   1.400117 A    
C47   C55   1.410694 A    
C17   C25   1.401580 A    
C73   C83   1.409934 A    
C86   C92   1.408091 A    
C122  H66   1.116035 S    
C52   C67   1.399632 A    
O9    Cu3   1.966947 S    
C27   C35   1.396673 A    
C89   C90   1.417301 A    
C112  H44   1.110764 S    
C41   C49   1.410671 A    
C114  H47   1.111911 S    
C20   C28   1.401424 A    
C76   C82   1.409576 A    
C13   H5    1.084542 S    
C105  H26   1.111884 S    
C42   C45   1.401603 A    
C27   H11   1.083222 S    
C57   C69   1.398705 A    
C59   C71   1.401065 A    
C28   H12   1.083757 S    
C107  C108  1.533953 S    
C64   C68   1.399775 A    
C37   C45   1.414286 A    
O22   C116  1.411642 S    
C121  H65   1.110832 S    
C80   H88   1.082630 S    
O4    Cu2   1.967078 S    
C30   H14   1.083767 S    
O5    C3    1.289120 A    
C58   O18   1.384072 S    
C48   C56   1.410788 A    
O6    C4    1.289236 A    
C43   C48   1.401479 A    
O11   C6    1.289125 A    
C25   H9    1.083679 S    
C83   C95   1.405982 A    
C117  C118  1.525821 S    
C40   C48   1.414592 A    
C84   C90   1.408074 A    
C115  H49   1.110167 S    
C12   H4    1.084586 S    
C113  C114  1.528880 S    
C107  H32   1.114790 S    
C106  H29   1.110226 S    
C98   C99   1.404758 A    
C15   H7    1.084518 S    
C13   C21   1.400891 A    
C100  H96   1.083281 S    
C110  H38   1.115794 S    
O17   C101  1.411311 S    
C86   C98   1.405839 A    
C122  C123  1.529212 S    
C4    C17   1.459961 S    
C40   C64   1.409181 A    
C23   C31   1.401448 A    
O15   Cu4   1.967686 S    
C109  H36   1.110044 S    
C119  C120  1.528244 S    
C67   H75   1.084328 S    
C105  H27   1.110935 S    
C32   H16   1.083733 S    
C75   C81   1.409956 A    
C85   C97   1.405503 A    
C101  H18   1.114923 S    
C122  H67   1.113893 S    
C44   C52   1.411035 A    
C79   H87   1.082687 S    
C116  H52   1.116029 S    
C37   C61   1.409524 A    
C57   O17   1.383377 S    
C68   H76   1.084041 S    
C18   C26   1.401105 A    
C111  C112  1.525852 S    
C85   C91   1.408106 A    
C56   C71   1.399470 A    
C60   O20   1.385206 S    
C51   C68   1.400554 A    
C120  C121  1.525660 S    
C31   C39   1.396206 A    
O1    C1    1.289165 A    
C14   H6    1.084600 S    
C119  H60   1.114475 S    
O7    C4    1.289466 A    
C9    C17   1.400916 A    
Cu3   Cu4   2.663020 S    
C11   C19   1.400471 A    
C105  C106  1.526046 S    
C101  H17   1.115151 S    
C88   C92   1.408088 A    
C87   C91   1.408045 A    
O18   C104  1.416143 S    
C96   H92   1.082353 S    
C10   C18   1.400593 A    
C104  H24   1.111519 S    
C50   C65   1.400511 A    
C113  H46   1.114299 S    
Cu3   N3    2.000820 S    
C78   N4    1.366975 A    
C6    C23   1.459558 S    
Cu2   N2    2.000820 S    
C49   C66   1.400516 A    
C75   N1    1.366887 A    
C115  H50   1.110573 S    
C11   C51   1.392509 A    
C34   C58   1.411633 A    
C109  H37   1.110966 S    
C31   H15   1.083673 S    
