data_mof_unit_8171.cif
_audit_creation_date              2012-12-10T17:14:44-0500
_audit_creation_method            fapswitch 2.2
_symmetry_space_group_name_H-M    P1
_symmetry_Int_Tables_number       1
_space_group_crystal_system       triclinic
_cell_length_a                    10.644745
_cell_length_b                    12.999106
_cell_length_c                    11.682994
_cell_angle_alpha                 99.819437
_cell_angle_beta                  93.624593
_cell_angle_gamma                 90.28434
_cell_volume                      1589.52806924

loop_
_atom_site_label
_atom_site_type_symbol
_atom_type_description
_atom_site_fract_x
_atom_site_fract_y
_atom_site_fract_z
_atom_type_partial_charge
C1    C     C_R   0.497989 0.299096 0.478665 0.848765
C2    C     C_R   0.502011 0.700904 0.521335 0.848765
C3    C     C_R   0.504095 0.139327 0.566233 -0.238648
C4    C     C_R   0.495904 0.860673 0.433767 -0.238648
C5    C     C_R   0.503821 0.031290 0.555894 0.163606
C6    C     C_R   0.496179 0.968710 0.444105 0.163606
C7    C     C_R   0.371947 0.408349 0.023752 -0.119089
C8    C     C_R   0.628053 0.591651 0.976248 -0.119091
C9    C     C_R   0.388350 0.415403 0.145646 0.044825
C10   C     C_R   0.611650 0.584596 0.854354 0.044824
C11   C     C_R   0.553441 0.539744 0.156931 0.060210
C12   C     C_R   0.446559 0.460256 0.843069 0.060209
C13   C     C_R   0.546670 0.533049 0.033831 -0.026398
C14   C     C_R   0.453330 0.466951 0.966169 -0.026398
C15   C     C_R   0.259405 0.500790 0.500559 0.864528
C16   C     C_R   0.740595 0.499210 0.499441 0.864529
C17   C     C_3   0.048559 0.500863 0.609769 -0.190675
C18   C     C_3   0.951441 0.499137 0.390231 -0.190675
C19   C     C_3   0.962543 0.414736 0.537566 0.031322
C20   C     C_3   0.037456 0.585264 0.462434 0.031322
C21   C     C_3   0.877055 0.498334 0.498752 -0.058841
C22   C     C_3   0.122945 0.501666 0.501248 -0.058841
C23   C     C_3   0.961434 0.585524 0.570420 -0.233553
C24   C     C_3   0.038566 0.414476 0.429580 -0.233554
C25   C     C_R   0.502995 0.814316 0.533653 -0.044865
C26   C     C_R   0.497004 0.185684 0.466347 -0.044865
C27   C     C_R   0.488896 0.015117 0.344400 -0.178428
C28   C     C_R   0.511104 0.984882 0.655600 -0.178428
C29   C     C_R   0.489298 0.123243 0.355454 -0.171404
C30   C     C_R   0.510702 0.876757 0.644546 -0.171404
Cu1   Cu    Cu3+1 0.509400 0.507730 0.615930 0.979803
Cu2   Cu    Cu3+1 0.490600 0.492270 0.384070 0.979803
H1    H     H_    0.927476 0.655708 0.627430 0.164443
H2    H     H_    0.072524 0.344292 0.372570 0.164443
H3    H     H_    0.489978 0.812923 0.347825 0.160473
H4    H     H_    0.510022 0.187077 0.652175 0.160473
H5    H     H_    0.482970 0.967939 0.258219 0.152816
H6    H     H_    0.517030 0.032061 0.741781 0.152816
H7    H     H_    0.381312 0.406988 0.787925 0.167078
H8    H     H_    0.618688 0.593013 0.212075 0.167079
N1    N     N_R   0.523540 0.519360 0.790140 -0.200317
N2    N     N_R   0.476460 0.480640 0.209860 -0.200317
O1    O     O_R   0.506670 0.354460 0.582000 -0.575817
O2    O     O_R   0.493330 0.645540 0.418000 -0.575818
O3    O     O_R   0.490800 0.341410 0.386200 -0.599328
O4    O     O_R   0.509200 0.658590 0.613800 -0.599328
O5    O     O_R   0.324790 0.506500 0.597880 -0.588307
O6    O     O_R   0.675210 0.493500 0.402120 -0.588307
O7    O     O_R   0.308910 0.493440 0.402080 -0.570646
O8    O     O_R   0.691090 0.506560 0.597920 -0.570646
C31   C     C_2   0.923791 0.317230 0.579351 0.836966
O9    O     O_2   0.004503 0.258319 0.607893 -0.586126
O10   O     O_R   0.796442 0.293667 0.584995 -0.765896
H9    H     H_    0.782700 0.225688 0.614303 0.336939
C32   C     C_2   0.076209 0.682770 0.420649 0.836966
O11   O     O_2   0.995497 0.741681 0.392107 -0.586126
O12   O     O_R   0.203558 0.706333 0.415005 -0.765896
H10   H     H_    0.217300 0.774312 0.385697 0.336939
H11   H     H_    0.089959 0.501177 0.699474 0.195725
H12   H     H_    0.910041 0.498823 0.300526 0.195725
H13   H     H_    0.516317 0.842171 0.722716 0.171231
H14   H     H_    0.483683 0.157829 0.277284 0.171231
H15   H     H_    0.672655 0.629190 0.809687 0.150174
H16   H     H_    0.327345 0.370809 0.190312 0.150173
C33   C     C_2   0.266511 0.342072 0.961686 0.813475
O13   O     O_2   0.244108 0.257359 0.988825 -0.583308
O14   O     O_R   0.188871 0.378246 0.876442 -0.773482
H17   H     H_    0.119326 0.326473 0.842032 0.362751
C34   C     C_2   0.733490 0.657927 0.038314 0.813477
O15   O     O_2   0.755896 0.742638 0.011173 -0.583309
O16   O     O_R   0.811128 0.621753 0.123560 -0.773484
H18   H     H_    0.880674 0.673526 0.157970 0.362751

loop_
_geom_bond_atom_site_label_1
_geom_bond_atom_site_label_2
_ccdc_geom_bond_type
C32   O11   D    
C16   C21   S    
C27   C29   A    
C9    H16   S    
Cu2   O3    S    
C10   H15   S    
C15   O5    A    
C16   O6    A    
C4    C25   A    
O10   H9    S    
C2    O4    A    
C8    C34   S    
C17   C23   S    
Cu1   O1    S    
C18   C24   S    
C19   C21   S    
C16   O8    A    
C5    C6    A    
C18   C21   S    
C11   N2    A    
C34   O16   S    
C1    O1    A    
C7    C14   A    
Cu1   Cu2   S    
C2    O2    A    
C33   O14   S    
Cu1   O4    S    
C4    H3    S    
Cu1   O5    S    
C13   C14   A    
C10   N1    A    
Cu2   O6    S    
C34   O15   D    
C20   C32   S    
C15   C22   S    
Cu2   O2    S    
C31   O9    D    
C4    C6    A    
C23   H1    S    
C24   H2    S    
O14   H17   S    
C31   O10   S    
C12   N1    A    
C7    C33   S    
C5    C28   A    
C6    C27   A    
C20   C23   S    
C28   H6    S    
C9    N2    A    
C17   H11   S    
C18   H12   S    
C20   C22   S    
C21   C23   S    
C1    C26   S    
C22   C24   S    
Cu1   O8    S    
C25   C30   A    
C7    C9    A    
C29   H14   S    
Cu1   N1    S    
C3    C26   A    
C12   C14   A    
C3    C5    A    
C17   C22   S    
C12   H7    S    
C32   O12   S    
C19   C24   S    
O16   H18   S    
C11   C13   A    
C1    O3    A    
O12   H10   S    
C3    H4    S    
C27   H5    S    
C28   C30   A    
C17   C19   S    
C2    C25   S    
C18   C20   S    
C15   O7    A    
C11   H8    S    
Cu2   O7    S    
C8    C13   A    
C19   C31   S    
C26   C29   A    
C8    C10   A    
C33   O13   D    
C30   H13   S    
Cu2   N2    S    
