data_mof_unit_9302.cif
_audit_creation_date              2012-12-11T15:18:36-0500
_audit_creation_method            fapswitch 2.2
_symmetry_space_group_name_H-M    P1
_symmetry_Int_Tables_number       1
_space_group_crystal_system       triclinic
_cell_length_a                    6.936276
_cell_length_b                    19.886073
_cell_length_c                    23.89222
_cell_angle_alpha                 93.590479
_cell_angle_beta                  91.100601
_cell_angle_gamma                 88.004265
_cell_volume                      3286.6374879

loop_
_atom_site_label
_atom_site_type_symbol
_atom_type_description
_atom_site_fract_x
_atom_site_fract_y
_atom_site_fract_z
_atom_type_partial_charge
O1    O     O_R   0.620100 0.812200 0.810870 -0.528626
O2    O     O_R   0.379900 0.187800 0.189130 -0.527504
O3    O     O_R   0.296960 0.671650 0.794750 -0.548535
O4    O     O_R   0.703040 0.328350 0.205250 -0.548216
O5    O     O_R   0.120160 0.687800 0.689130 -0.545514
O6    O     O_R   0.879840 0.312200 0.310870 -0.543452
C1    C     C_R   0.469395 0.647186 0.804902 0.658134
C2    C     C_R   0.530605 0.352814 0.195097 0.657956
O7    O     O_R   0.290810 0.810670 0.817290 -0.512005
O8    O     O_R   0.709190 0.189330 0.182710 -0.514865
O9    O     O_R   0.113980 0.827820 0.711840 -0.512967
O10   O     O_R   0.886020 0.172180 0.288160 -0.508999
C3    C     C_R   0.458105 0.832820 0.833639 0.793386
C4    C     C_R   0.542192 0.166694 0.166808 0.798448
O11   O     O_R   0.626290 0.672180 0.788160 -0.549521
O12   O     O_R   0.373710 0.327820 0.211840 -0.549509
O13   O     O_3   0.451520 0.755460 0.715370 -0.369195
O14   O     O_3   0.548480 0.244540 0.284630 -0.361629
V1    V     V_3+5 0.179200 0.748980 0.756420 1.567773
V2    V     V_3+5 0.820800 0.251020 0.243580 1.572550
O15   O     O_R   0.783880 0.828350 0.705250 -0.532175
O16   O     O_R   0.216120 0.171650 0.294750 -0.531234
C5    C     C_R   0.948777 0.852843 0.694905 0.906803
C6    C     C_R   0.051425 0.146961 0.305052 0.891944
O17   O     O_R   0.790030 0.689320 0.682700 -0.549315
O18   O     O_R   0.209970 0.310680 0.317300 -0.548956
C7    C     C_R   0.959652 0.668060 0.665761 0.733296
C8    C     C_R   0.040327 0.331773 0.334347 0.710562
V3    V     V_3+5 0.678400 0.751010 0.743570 1.537086
V4    V     V_3+5 0.321600 0.248990 0.256430 1.543665
O19   O     O_3   0.955950 0.744540 0.784620 -0.370975
O20   O     O_3   0.044050 0.255460 0.215380 -0.371298
C9    C     C_R   0.178722 0.425189 0.396245 -0.190388
C10   C     C_R   0.821125 0.574677 0.603843 -0.200123
C11   C     C_R   0.029417 0.380496 0.384117 -0.096492
C12   C     C_R   0.970534 0.619320 0.615998 -0.091622
C13   C     C_R   0.868389 0.383147 0.419137 -0.155527
C14   C     C_R   0.131621 0.616615 0.581001 -0.138667
C15   C     C_R   0.857191 0.428333 0.467261 0.064716
C16   C     C_R   0.142700 0.571486 0.532847 0.060687
C17   C     C_R   0.005522 0.475411 0.477238 0.027577
C18   C     C_R   0.994325 0.524432 0.522856 0.025865
C19   C     C_R   0.165694 0.473479 0.441575 0.092516
C20   C     C_R   0.834136 0.526382 0.558513 0.094076
C21   C     C_R   0.700797 0.429348 0.505071 -0.022975
C22   C     C_R   0.299044 0.570502 0.495026 -0.020029
C23   C     C_R   0.689665 0.479357 0.549127 -0.279130
C24   C     C_R   0.310141 0.520516 0.450954 -0.276176
H1    H     H_    0.302709 0.423861 0.369173 0.118518
H2    H     H_    0.697094 0.576040 0.630900 0.117591
H3    H     H_    0.752445 0.349851 0.407881 0.191529
H4    H     H_    0.247714 0.649835 0.592284 0.189469
H5    H     H_    0.568769 0.480603 0.577388 0.122227
H6    H     H_    0.431003 0.519290 0.422682 0.123494
C25   C     C_R   0.944280 0.914081 0.662123 -0.158145
C26   C     C_R   0.062607 0.084565 0.336581 -0.154453
C27   C     C_R   0.852517 0.033477 0.657974 -0.077847
C28   C     C_R   0.220050 0.973784 0.346095 -0.093828
C29   C     C_R   0.871615 0.975003 0.687976 0.291503
C30   C     C_R   0.180242 0.030253 0.314795 0.289655
C31   C     C_R   0.982762 0.910215 0.603700 -0.123303
C32   C     C_R   0.980367 0.081335 0.390386 -0.144510
C33   C     C_R   0.982767 0.970758 0.573737 -0.003454
C34   C     C_R   0.046568 0.029630 0.426414 -0.007200
C35   C     C_R   0.913970 0.032109 0.601596 0.057190
C36   C     C_R   0.162550 0.974897 0.402799 0.055688
C37   C     C_R   0.047670 0.972926 0.516805 0.072811
C38   C     C_R   0.007299 0.031007 0.485657 0.066609
C39   C     C_R   0.955484 0.091071 0.516550 -0.198990
C40   C     C_R   0.172894 0.922888 0.492488 -0.204871
C41   C     C_R   0.912780 0.091763 0.572972 -0.092261
C42   C     C_R   0.229771 0.924082 0.437347 -0.115465
H7    H     H_    0.880727 0.140474 0.593977 0.171961
H8    H     H_    0.332496 0.885079 0.422748 0.171082
H9    H     H_    0.961140 0.139558 0.498909 0.164603
H10   H     H_    0.241321 0.884560 0.516839 0.162753
C43   C     C_R   0.492063 0.585783 0.836333 -0.038638
C44   C     C_R   0.507940 0.414219 0.163667 -0.039235
C45   C     C_R   0.611223 0.470306 0.839020 -0.149388
C46   C     C_R   0.388793 0.529698 0.160982 -0.145392
C47   C     C_R   0.570646 0.527177 0.809275 -0.166783
C48   C     C_R   0.429358 0.472824 0.190726 -0.165011
C49   C     C_R   0.454964 0.587242 0.894104 -0.205836
C50   C     C_R   0.545052 0.412763 0.105898 -0.206037
C51   C     C_R   0.500072 0.530215 0.925955 0.085638
C52   C     C_R   0.499954 0.469791 0.074048 0.085650
C53   C     C_R   0.578614 0.471427 0.896856 0.127774
C54   C     C_R   0.421412 0.528579 0.103146 0.125200
C55   C     C_R   0.473731 0.529668 0.985484 0.051714
C56   C     C_R   0.526302 0.470339 0.014518 0.052590
C57   C     C_R   0.602545 0.413503 0.983017 -0.169293
C58   C     C_R   0.397495 0.586506 0.016986 -0.168707
C59   C     C_R   0.627427 0.414194 0.925571 -0.178575
C60   C     C_R   0.372609 0.585813 0.074432 -0.174486
H11   H     H_    0.687447 0.369287 0.903349 0.144961
H12   H     H_    0.312593 0.630721 0.096655 0.149272
H13   H     H_    0.602368 0.365833 0.087066 0.107971
H14   H     H_    0.397648 0.634172 0.912935 0.108528
H15   H     H_    0.397632 0.474294 0.235035 0.107574
H16   H     H_    0.602364 0.525706 0.764965 0.105586
H17   H     H_    0.672140 0.425537 0.816850 0.126867
H18   H     H_    0.327876 0.574466 0.183152 0.132335
H19   H     H_    0.645657 0.367239 0.001525 0.142665
H20   H     H_    0.354392 0.632771 0.998479 0.143765
C61   C     C_R   0.683981 0.066731 0.107863 0.411417
C62   C     C_R   0.315601 0.931430 0.894015 0.411765
C63   C     C_R   0.534956 0.116241 0.118190 -0.151623
C64   C     C_R   0.465792 0.882672 0.882827 -0.157429
C65   C     C_R   0.373354 0.117464 0.082088 -0.152564
C66   C     C_R   0.628261 0.881618 0.918714 -0.149291
C67   C     C_R   0.357514 0.071482 0.035311 0.049165
C68   C     C_R   0.643607 0.927194 0.965904 0.048062
C69   C     C_R   0.507414 0.022593 0.024354 -0.014951
C70   C     C_R   0.493486 0.975932 0.977063 -0.016117
C71   C     C_R   0.671003 0.020170 0.060641 0.015235
C72   C     C_R   0.329304 0.978134 0.941037 0.016047
C73   C     C_R   0.195238 0.073437 0.998989 0.363315
C74   C     C_R   0.805464 0.925058 0.002431 0.366061
C75   C     C_R   0.182087 0.027215 0.952860 -0.134562
C76   C     C_R   0.818032 0.971009 0.048856 -0.131654
H21   H     H_    0.260319 0.155395 0.090635 0.198156
H22   H     H_    0.742081 0.844109 0.909747 0.199821
H23   H     H_    0.054026 0.030461 0.926518 0.219261
H24   H     H_    0.945655 0.967673 0.075378 0.219662
Cl1   Cl    Cl    0.881489 0.060539 0.155634 -0.573004
Cl2   Cl    Cl    0.113968 0.936148 0.847899 -0.573905
Cl3   Cl    Cl    0.003453 0.133427 0.008963 -0.662626
Cl4   Cl    Cl    0.996915 0.864957 0.992483 -0.655153
C77   C     C_2   0.547689 0.378761 0.502412 0.390013
H25   H     H_    0.406043 0.392831 0.518798 0.061568
O21   O     O_2   0.579961 0.320255 0.485777 -0.509337
C78   C     C_2   0.452091 0.621114 0.497684 0.390907
H26   H     H_    0.593724 0.607075 0.481274 0.063325
O22   O     O_2   0.419770 0.679608 0.514349 -0.513196
C79   C     C_2   0.811268 0.126222 0.405896 0.376875
H27   H     H_    0.691851 0.105957 0.427418 0.074571
O23   O     O_2   0.807191 0.186203 0.397607 -0.519378
C80   C     C_2   0.984353 0.842831 0.572666 0.335730
H28   H     H_    0.916034 0.837352 0.531455 0.092469
O24   O     O_2   0.065501 0.793603 0.591697 -0.529784
Cl5   Cl    Cl    0.270165 0.031197 0.245695 -0.593584
Cl6   Cl    Cl    0.779285 0.976078 0.756779 -0.585278
C81   C     C_2   0.761851 0.095017 0.686439 0.441795
H29   H     H_    0.801347 0.109702 0.729533 0.117293
O25   O     O_2   0.635403 0.127720 0.663060 -0.519966
C82   C     C_2   0.325650 0.914585 0.318629 0.451451
H30   H     H_    0.447102 0.921781 0.291945 0.115416
O26   O     O_2   0.272329 0.857411 0.323555 -0.510462

loop_
_geom_bond_atom_site_label_1
_geom_bond_atom_site_label_2
_ccdc_geom_bond_type
C14   C16   A    
C33   C35   A    
C21   C77   S    
C25   C29   A    
C63   C65   A    
C17   C18   A    
C6    C26   S    
O4    C2    A    
V1    O19   S    
C74   C76   A    
C68   C70   A    
C56   C57   A    
C79   H27   S    
C15   C17   A    
C24   H6    S    
C61   C63   A    
O9    V1    S    
C74   Cl4   S    
C50   H13   S    
C34   C38   A    
C11   C13   A    
C50   C52   A    
C82   H30   S    
O3    C1    A    
C73   C75   A    
C22   C78   S    
C13   H3    S    
C52   C54   A    
C31   C80   S    
C27   C29   A    
C14   H4    S    
C67   C73   A    
C43   C49   A    
C28   C30   A    
C81   H29   S    
C53   C59   A    
O13   V3    S    
C79   O23   D    
C48   H15   S    
C21   C23   A    
C39   C41   A    
O7    C3    A    
C32   C34   A    
C9    C11   A    
O5    C7    A    
O7    V1    S    
C36   C42   A    
C68   C74   A    
C29   Cl6   S    
O8    V2    S    
C38   C39   A    
C49   H14   S    
O3    V1    S    
O14   V4    S    
C19   C24   A    
C10   C12   A    
C20   C23   A    
C15   C21   A    
C26   C32   A    
C16   C18   A    
C2    O12   A    
C46   C54   A    
C2    C44   S    
C17   C19   A    
C18   C20   A    
C3    C64   S    
C45   C53   A    
C28   C36   A    
O11   V3    S    
C82   O26   D    
C51   C53   A    
O17   V3    S    
C33   C37   A    
C10   H2    S    
C27   C81   S    
C37   C38   A    
C9    C19   A    
C10   C20   A    
C8    C11   S    
C46   C48   A    
C52   C56   A    
C57   H19   S    
C41   H7    S    
C51   C55   A    
C78   H26   S    
C1    O11   A    
C35   C41   A    
O15   V3    S    
C26   C30   A    
C62   C72   A    
C34   C36   A    
C32   C79   S    
C16   C22   A    
C30   Cl5   S    
C57   C59   A    
C44   C48   A    
C43   C47   A    
V3    O19   S    
O10   V2    S    
C58   C60   A    
C67   C69   A    
C55   C58   A    
C60   H12   S    
C73   Cl3   S    
C80   O24   D    
C42   H8    S    
C4    C63   S    
C49   C51   A    
O18   V4    S    
C75   H23   S    
O15   C5    A    
C40   H10   S    
O16   C6    A    
O1    C3    A    
O12   V4    S    
C12   C14   A    
C45   C47   A    
C69   C70   A    
V2    O20   S    
C81   O25   D    
O10   C6    A    
O16   V4    S    
C61   C71   A    
C31   C33   A    
C27   C35   A    
C70   C72   A    
C28   C82   S    
C5    C25   S    
O5    V1    S    
C47   H16   S    
C61   Cl1   S    
C7    C12   S    
O17   C7    A    
O6    V2    S    
C62   Cl2   S    
O18   C8    A    
C72   C75   A    
C1    C43   S    
O2    V4    S    
C37   C40   A    
C65   C67   A    
C77   H25   S    
C13   C15   A    
C66   H22   S    
V4    O20   S    
C65   H21   S    
O1    V3    S    
C59   H11   S    
C62   C64   A    
C23   H5    S    
C25   C31   A    
O9    C5    A    
O13   V1    S    
C64   C66   A    
C39   H9    S    
O14   V2    S    
O2    C4    A    
C66   C68   A    
C80   H28   S    
C58   H20   S    
O4    V2    S    
C22   C24   A    
C44   C50   A    
O6    C8    A    
C78   O22   D    
C71   C76   A    
C46   H18   S    
C54   C60   A    
C45   H17   S    
C40   C42   A    
C69   C71   A    
C55   C56   A    
C9    H1    S    
C76   H24   S    
O8    C4    A    
C77   O21   D    
