data_mof_unit_7036.cif
_audit_creation_date              2012-12-10T20:42:43-0500
_audit_creation_method            fapswitch 2.2
_symmetry_space_group_name_H-M    P1
_symmetry_Int_Tables_number       1
_space_group_crystal_system       triclinic
_cell_length_a                    8.921167
_cell_length_b                    10.683786
_cell_length_c                    9.885397
_cell_angle_alpha                 89.694598
_cell_angle_beta                  89.694549
_cell_angle_gamma                 90.319244
_cell_volume                      942.153819336

loop_
_atom_site_label
_atom_site_type_symbol
_atom_type_description
_atom_site_fract_x
_atom_site_fract_y
_atom_site_fract_z
_atom_type_partial_charge
C1    C     C_R   0.504858 0.259938 0.500176 0.863164
C2    C     C_R   0.444941 0.399656 0.930109 0.128644
C3    C     C_3   0.287802 0.349653 0.930017 0.293247
C4    C     C_R   0.218739 0.499784 0.500210 0.935442
C5    C     C_3   0.294796 0.344193 0.083699 -0.556875
C6    C     C_R   0.505465 0.739975 0.499660 0.869300
C7    C     C_R   0.781276 0.499952 0.499782 0.927072
C8    C     C_1   0.065391 0.499706 0.500263 -0.204056
C9    C     C_1   0.934634 0.499756 0.499591 -0.215582
C10   C     C_R   0.532784 0.063043 0.622210 0.136340
C11   C     C_R   0.529823 0.128587 0.500258 -0.098231
C12   C     C_R   0.556960 0.936095 0.377945 -0.228835
C13   C     C_R   0.556483 0.065604 0.378253 -0.230150
C14   C     C_3   0.041986 0.385113 0.871501 0.108447
C15   C     C_3   0.923721 0.486432 0.878605 -0.778070
C16   C     C_R   0.530892 0.871340 0.499649 -0.098588
C17   C     C_R   0.533672 0.935254 0.621954 0.123062
C18   C     C_3   0.429621 0.926169 0.740635 -0.461126
C19   C     C_3   0.427752 0.067821 0.740202 -0.510174
C20   C     C_R   0.447966 0.398517 0.072457 0.137804
C21   C     C_R   0.563910 0.595240 0.070997 -0.110284
C22   C     C_R   0.563874 0.595264 0.927220 -0.122272
H1    H     H_    0.566049 0.115138 0.282648 0.169222
H2    H     H_    0.613636 0.673109 0.124293 0.134936
H3    H     H_    0.614384 0.672748 0.872525 0.141061
H4    H     H_    0.016403 0.315927 0.953574 0.120370
H5    H     H_    0.034372 0.337416 0.772018 0.143262
H6    H     H_    0.943530 0.557554 0.798106 0.265518
H7    H     H_    0.811522 0.443297 0.864968 0.217795
H8    H     H_    0.927228 0.532884 0.978800 0.240735
H9    H     H_    0.278838 0.256966 0.880313 0.045714
H10   H     H_    0.214660 0.407614 0.135442 0.242865
H11   H     H_    0.296561 0.246984 0.124254 0.157911
H12   H     H_    0.566674 0.887815 0.282232 0.164881
H13   H     H_    0.319489 0.883408 0.714933 0.209256
H14   H     H_    0.485054 0.885888 0.831264 0.197253
H15   H     H_    0.316686 0.106906 0.712647 0.195332
H16   H     H_    0.481464 0.109222 0.830919 0.193288
N1    N     N_R   0.499010 0.499140 0.142800 -0.087004
N2    N     N_R   0.499010 0.499180 0.857150 -0.085145
O1    O     O_R   0.500020 0.316790 0.614690 -0.628670
O2    O     O_R   0.500000 0.316760 0.385350 -0.622329
O3    O     O_R   0.285350 0.500020 0.614650 -0.565280
O4    O     O_R   0.285340 0.499980 0.385310 -0.616897
O5    O     O_R   0.500000 0.683240 0.614650 -0.620421
O6    O     O_R   0.499980 0.683210 0.385310 -0.627854
O7    O     O_R   0.714660 0.500020 0.614690 -0.632321
O8    O     O_R   0.714650 0.499980 0.385350 -0.615061
O9    O     O_3   0.185135 0.440578 0.884763 -0.552029
Zn1   Zn    Zn3+2 0.500010 0.500020 0.653130 0.959999
Zn2   Zn    Zn3+2 0.499990 0.499980 0.346870 0.945331

loop_
_geom_bond_atom_site_label_1
_geom_bond_atom_site_label_2
_ccdc_geom_bond_type
O1    Zn1   S    
N1    Zn2   S    
O3    Zn1   S    
C19   H16   S    
C14   H5    S    
C19   H15   S    
C18   H13   S    
C10   C19   S    
C21   N1    A    
O2    Zn2   S    
C4    C8    S    
C5    H10   S    
C22   N2    A    
C7    O8    A    
C2    C3    S    
C3    O9    S    
C5    C20   S    
C21   C22   A    
C14   H4    S    
C3    H9    S    
C11   C13   A    
C18   H14   S    
C15   H6    S    
C4    O4    A    
O5    Zn1   S    
N2    Zn1   S    
O4    Zn2   S    
C1    O1    A    
C4    O3    A    
C15   H7    S    
O7    Zn1   S    
C20   N1    A    
C14   O9    S    
C10   C11   A    
C6    O5    A    
C12   H12   S    
C10   C17   A    
C2    N2    A    
C1    O2    A    
C7    O7    A    
C12   C13   A    
C13   H1    S    
C15   H8    S    
C17   C18   S    
C18   C19   S    
C21   H2    S    
C7    C9    S    
C2    C20   A    
C14   C15   S    
C8    C9    T    
C6    O6    A    
C6    C16   S    
O6    Zn2   S    
O8    Zn2   S    
C12   C16   A    
C5    H11   S    
C16   C17   A    
C3    C5    S    
C22   H3    S    
C1    C11   S    
