data_mof_unit_8845.cif
_audit_creation_date              2012-12-10T18:19:10-0500
_audit_creation_method            fapswitch 2.2
_symmetry_space_group_name_H-M    P1
_symmetry_Int_Tables_number       1
_space_group_crystal_system       triclinic
_cell_length_a                    14.934575
_cell_length_b                    14.036755
_cell_length_c                    11.550001
_cell_angle_alpha                 89.253129
_cell_angle_beta                  89.757477
_cell_angle_gamma                 89.657927
_cell_volume                      2420.99125755

loop_
_atom_site_label
_atom_site_type_symbol
_atom_type_description
_atom_site_fract_x
_atom_site_fract_y
_atom_site_fract_z
_atom_type_partial_charge
C1    C     C_R   0.327219 0.500361 0.503072 0.884594
C2    C     C_R   0.672791 0.499819 0.498059 0.881976
C3    C     C_R   0.908305 0.504770 0.390551 0.072349
C4    C     C_R   0.091682 0.508181 0.610223 0.071865
C5    C     C_R   0.948344 0.507361 0.712096 0.175918
C6    C     C_R   0.051745 0.510140 0.289098 0.176865
C7    C     C_R   0.041412 0.508468 0.713179 -0.277933
C8    C     C_R   0.958759 0.508012 0.287698 -0.279086
C9    C     C_R   0.531247 0.798427 0.405983 -0.057220
C10   C     C_R   0.469303 0.201426 0.594321 -0.054751
C11   C     C_R   0.467091 0.796756 0.592884 -0.058892
C12   C     C_R   0.532030 0.203150 0.406547 -0.060876
C13   C     C_R   0.467003 0.897715 0.597372 -0.024877
C14   C     C_R   0.532576 0.102083 0.402264 -0.026059
C15   C     C_R   0.530620 0.899542 0.401123 -0.026732
C16   C     C_R   0.469718 0.100262 0.598961 -0.024256
C17   C     C_R   0.499861 0.949442 0.499831 0.014858
C18   C     C_R   0.500297 0.050390 0.500126 0.014273
C19   C     C_R   0.435384 0.947083 0.696636 0.072063
C20   C     C_R   0.563768 0.052548 0.302716 0.073996
C21   C     C_R   0.559395 0.950924 0.300483 0.071663
C22   C     C_R   0.440512 0.048645 0.699250 0.070700
C23   C     C_R   0.499566 0.500513 0.281736 0.898514
C24   C     C_R   0.500498 0.499498 0.718259 0.896167
C25   C     C_1   0.499874 0.501376 0.161343 -0.200385
C26   C     C_1   0.501240 0.498759 0.838638 -0.191009
C27   C     C_1   0.500465 0.500863 0.059251 -0.032300
C28   C     C_1   0.501349 0.499467 0.940725 -0.021643
C29   C     C_R   0.813957 0.502989 0.387608 0.044458
C30   C     C_R   0.185968 0.511013 0.612664 0.047672
C31   C     C_R   0.767891 0.500047 0.493686 -0.072852
C32   C     C_R   0.232090 0.502101 0.507285 -0.074201
C33   C     C_R   0.811201 0.500563 0.599238 -0.298188
C34   C     C_R   0.188675 0.499046 0.401978 -0.297109
C35   C     C_R   0.903828 0.504499 0.604395 0.092432
C36   C     C_R   0.096115 0.505232 0.396755 0.095635
C37   C     C_R   0.953008 0.505066 0.499021 -0.004656
C38   C     C_R   0.046895 0.505900 0.502001 -0.006485
N1    N     N_R   0.500000 0.750030 0.500000 -0.105243
N2    N     N_R   0.500000 0.249970 0.500000 -0.105191
O1    O     O_R   0.367850 0.580280 0.500030 -0.620413
O2    O     O_R   0.632150 0.419720 0.499970 -0.614066
O3    O     O_R   0.632150 0.580280 0.499970 -0.617565
O4    O     O_R   0.367850 0.419720 0.500030 -0.614377
O5    O     O_R   0.500010 0.580270 0.334450 -0.626803
O6    O     O_R   0.499990 0.419730 0.665550 -0.625267
O7    O     O_R   0.499990 0.580270 0.665550 -0.627197
O8    O     O_R   0.500010 0.419730 0.334450 -0.621775
Zn1   Zn    Zn3+2 0.500000 0.607200 0.500000 0.931823
Zn2   Zn    Zn3+2 0.500000 0.392800 0.500000 0.934391
C39   C     C_3   0.762693 0.503868 0.273279 -0.418777
C40   C     C_3   0.765089 0.405177 0.216974 -0.332756
C41   C     C_3   0.748910 0.412543 0.086926 -0.929436
H1    H     H_    0.683702 0.447752 0.068989 0.277610
H2    H     H_    0.803222 0.454251 0.045041 0.256442
H3    H     H_    0.748787 0.340216 0.049193 0.255678
H4    H     H_    0.830834 0.369451 0.230935 0.227334
H5    H     H_    0.712796 0.359380 0.257451 0.221884
H6    H     H_    0.691635 0.525116 0.284415 0.185987
H7    H     H_    0.789789 0.560269 0.214820 0.200102
C42   C     C_3   0.236932 0.526752 0.725068 -0.440314
C43   C     C_3   0.248472 0.433739 0.795237 -0.331145
C44   C     C_3   0.259095 0.454436 0.923742 -0.915326
H8    H     H_    0.313483 0.506497 0.937450 0.274474
H9    H     H_    0.195566 0.484236 0.958004 0.250206
H10   H     H_    0.274789 0.387955 0.972452 0.257626
H11   H     H_    0.189775 0.386351 0.784686 0.226355
H12   H     H_    0.308617 0.394814 0.763510 0.227547
H13   H     H_    0.304155 0.557531 0.709146 0.192093
H14   H     H_    0.202284 0.582658 0.776090 0.203126
H15   H     H_    0.770592 0.498266 0.676993 0.140640
H16   H     H_    0.229028 0.493088 0.324351 0.141159
C45   C     C_3   0.899806 0.511271 0.828135 -0.433742
C46   C     C_3   0.859683 0.610327 0.852083 -0.342180
C47   C     C_3   0.931274 0.687528 0.856673 -0.836131
H17   H     H_    0.986218 0.665499 0.915763 0.251674
H18   H     H_    0.959517 0.701153 0.768954 0.266966
H19   H     H_    0.901013 0.754757 0.888561 0.237500
H20   H     H_    0.809567 0.630482 0.785312 0.226057
H21   H     H_    0.824348 0.607642 0.936925 0.205270
H22   H     H_    0.846898 0.456150 0.832637 0.168173
H23   H     H_    0.945995 0.492504 0.900373 0.183686
C48   C     C_3   0.100295 0.522869 0.173836 -0.434864
C49   C     C_3   0.141242 0.622789 0.159222 -0.342927
C50   C     C_3   0.071641 0.702434 0.171373 -0.821750
H24   H     H_    0.013175 0.689420 0.114949 0.251297
H25   H     H_    0.048338 0.707123 0.262572 0.265220
H26   H     H_    0.102081 0.771659 0.146106 0.235077
H27   H     H_    0.195314 0.633840 0.223165 0.225286
H28   H     H_    0.172060 0.628480 0.071705 0.204666
H29   H     H_    0.152814 0.467235 0.164369 0.167912
H30   H     H_    0.053991 0.511721 0.100079 0.182590
H31   H     H_    0.073778 0.509470 0.796543 0.166978
H32   H     H_    0.926698 0.510009 0.204158 0.164127
H33   H     H_    0.556976 0.756340 0.335838 0.150514
H34   H     H_    0.443945 0.243394 0.664753 0.142419
H35   H     H_    0.442272 0.753273 0.663287 0.154521
H36   H     H_    0.555729 0.246572 0.335429 0.154667
C51   C     C_3   0.394249 0.890944 0.797991 -0.436752
C52   C     C_3   0.466677 0.846034 0.876115 -0.343873
C53   C     C_3   0.426103 0.775040 0.962433 -0.882892
H37   H     H_    0.378067 0.811743 0.020717 0.257489
H38   H     H_    0.390997 0.717434 0.916011 0.262255
H39   H     H_    0.480022 0.742043 0.015551 0.254951
H40   H     H_    0.518142 0.808389 0.823965 0.227767
H41   H     H_    0.501295 0.902857 0.924262 0.209394
H42   H     H_    0.348989 0.934987 0.851632 0.206716
H43   H     H_    0.348317 0.835907 0.764555 0.190845
C54   C     C_3   0.602641 0.108785 0.200198 -0.434922
C55   C     C_3   0.528049 0.151740 0.123934 -0.345513
C56   C     C_3   0.564523 0.228584 0.042275 -0.883747
H44   H     H_    0.592259 0.288011 0.093112 0.274842
H45   H     H_    0.617538 0.198643 0.985416 0.259152
H46   H     H_    0.509730 0.257634 0.987485 0.253788
H47   H     H_    0.497127 0.094566 0.072398 0.211043
H48   H     H_    0.474278 0.183921 0.177726 0.229744
H49   H     H_    0.648221 0.164771 0.232125 0.190668
H50   H     H_    0.647903 0.065328 0.145860 0.200244
C57   C     C_3   0.579122 0.897394 0.188825 -0.433171
C58   C     C_3   0.675870 0.859621 0.185212 -0.340249
C59   C     C_3   0.691154 0.795905 0.080735 -0.897284
H51   H     H_    0.647334 0.732313 0.086482 0.262507
H52   H     H_    0.676674 0.835801 0.999177 0.263132
H53   H     H_    0.761999 0.771442 0.078775 0.248660
H54   H     H_    0.723253 0.920222 0.180359 0.217190
H55   H     H_    0.691433 0.817990 0.265110 0.221619
H56   H     H_    0.530790 0.838413 0.178798 0.200073
H57   H     H_    0.565899 0.942136 0.111100 0.198154
C60   C     C_3   0.420288 0.101233 0.811165 -0.431091
C61   C     C_3   0.322824 0.136504 0.815704 -0.341419
C62   C     C_3   0.300997 0.178917 0.933451 -0.902520
H58   H     H_    0.306951 0.123488 0.002572 0.260293
H59   H     H_    0.347608 0.237931 0.952291 0.266476
H60   H     H_    0.231396 0.207180 0.933316 0.253001
H61   H     H_    0.311021 0.191589 0.747534 0.215668
H62   H     H_    0.276241 0.076753 0.799712 0.220516
H63   H     H_    0.435027 0.055694 0.887762 0.203558
H64   H     H_    0.467067 0.161448 0.822111 0.195368

loop_
_geom_bond_atom_site_label_1
_geom_bond_atom_site_label_2
_ccdc_geom_bond_type
C42   H14   S    
C44   H9    S    
C53   H37   S    
C23   O5    A    
C34   H16   S    
C45   C46   S    
C14   C18   A    
C56   H44   S    
C62   H60   S    
C54   H49   S    
O7    Zn1   S    
C41   H1    S    
C58   C59   S    
C48   H30   S    
C52   H40   S    
C37   C38   A    
C43   H11   S    
C35   C37   A    
C24   C26   S    
C58   H55   S    
C41   H3    S    
C42   H13   S    
C9    N1    A    
C10   N2    A    
O1    Zn1   S    
C3    C29   A    
C55   C56   S    
C59   H53   S    
C60   H64   S    
C61   H61   S    
C31   C33   A    
C6    C48   S    
C10   H34   S    
C9    H33   S    
C12   H36   S    
C57   H57   S    
C50   H25   S    
C44   H10   S    
C53   H38   S    
C46   H21   S    
C49   H28   S    
C4    C7    A    
C45   H22   S    
C54   H50   S    
C41   H2    S    
C7    H31   S    
C46   C47   S    
C13   C19   A    
C39   C40   S    
C14   C20   A    
C19   C22   A    
C8    H32   S    
C49   C50   S    
C3    C8    A    
C5    C7    A    
C19   C51   S    
C58   H54   S    
O3    Zn1   S    
C6    C8    A    
C50   H24   S    
C1    C32   S    
C20   C54   S    
C2    C31   S    
C32   C34   A    
C12   N2    A    
C47   H17   S    
C43   C44   S    
C51   H43   S    
C1    O4    A    
C48   C49   S    
O5    Zn1   S    
C2    O3    A    
C17   C18   A    
C56   H45   S    
C16   C18   A    
C11   N1    A    
C47   H18   S    
C59   H51   S    
C40   H5    S    
O2    Zn2   S    
C1    O1    A    
N1    Zn1   S    
C12   C14   A    
C53   H39   S    
C46   H20   S    
C22   C60   S    
C39   H6    S    
C49   H27   S    
C62   H58   S    
C55   H48   S    
C45   H23   S    
C51   H42   S    
C40   C41   S    
C60   C61   S    
C29   C39   S    
C50   H26   S    
O4    Zn2   S    
C15   C17   A    
C16   C22   A    
C23   O8    A    
C24   O7    A    
C26   C28   T    
C61   H62   S    
C4    C38   A    
C62   H59   S    
C57   C58   S    
C13   C17   A    
C25   C27   T    
C48   H29   S    
O6    Zn2   S    
C52   H41   S    
C51   C52   S    
C43   H12   S    
C11   H35   S    
C24   O6    A    
C36   C38   A    
C61   C62   S    
C9    C15   A    
C21   C57   S    
C10   C16   A    
C54   C55   S    
C30   C32   A    
C11   C13   A    
C2    O2    A    
N2    Zn2   S    
C5    C35   A    
O8    Zn2   S    
C52   C53   S    
C33   C35   A    
C6    C36   A    
C56   H46   S    
C34   C36   A    
C23   C25   S    
C5    C45   S    
C42   C43   S    
C47   H19   S    
C59   H52   S    
C40   H4    S    
C33   H15   S    
C44   H8    S    
C15   C21   A    
C60   H63   S    
C20   C21   A    
C3    C37   A    
C29   C31   A    
C30   C42   S    
C27   C28   S    
C39   H7    S    
C55   H47   S    
C4    C30   A    
C57   H56   S    
