data_mof_unit_65086.cif
_audit_creation_date              2012-12-10T17:04:23-0500
_audit_creation_method            fapswitch 2.2
_symmetry_space_group_name_H-M    P1
_symmetry_Int_Tables_number       1
_space_group_crystal_system       triclinic
_cell_length_a                    11.701448
_cell_length_b                    11.043704
_cell_length_c                    9.846521
_cell_angle_alpha                 111.072228
_cell_angle_beta                  97.990678
_cell_angle_gamma                 91.080431
_cell_volume                      1172.55357957

loop_
_atom_site_label
_atom_site_type_symbol
_atom_type_description
_atom_site_fract_x
_atom_site_fract_y
_atom_site_fract_z
_atom_type_partial_charge
C1    C     C_R   0.491784 0.254205 0.440747 0.860714
C2    C     C_2   0.512669 0.885093 0.592534 -0.339335
C3    C     C_2   0.502081 0.069555 0.516554 -0.132189
C4    C     C_2   0.497919 0.930445 0.483446 -0.132188
C5    C     C_2   0.510268 0.510900 0.081133 0.544180
C6    C     C_2   0.489732 0.489100 0.918867 0.544180
C7    C     C_R   0.508216 0.745795 0.559253 0.860714
C8    C     C_R   0.284145 0.500055 0.501169 0.821383
C9    C     C_R   0.715855 0.499945 0.498831 0.821383
C10   C     C_1   0.162688 0.500356 0.502945 -0.147291
C11   C     C_1   0.837312 0.499644 0.497055 -0.147291
C12   C     C_1   0.060050 0.500190 0.501495 0.017815
C13   C     C_1   0.939950 0.499810 0.498505 0.017815
C14   C     C_2   0.487331 0.114907 0.407466 -0.339335
Cu1   Cu    Cu3+1 0.519790 0.521810 0.644910 1.016719
Cu2   Cu    Cu3+1 0.480210 0.478190 0.355090 1.016719
F1    F     F_    0.405760 0.397892 0.828606 -0.670231
F2    F     F_    0.594240 0.602107 0.171393 -0.670231
H1    H     H_    0.482610 0.864767 0.368721 0.204189
H2    H     H_    0.517390 0.135233 0.631278 0.204189
H3    H     H_    0.528015 0.951086 0.707056 0.156342
H4    H     H_    0.471985 0.048914 0.292944 0.156342
H5    H     H_    0.612698 0.623181 0.933316 0.196759
H6    H     H_    0.387302 0.376819 0.066684 0.196759
N1    N     N_2   0.450460 0.445430 0.137370 -0.312391
N2    N     N_2   0.549540 0.554570 0.862630 -0.312391
O1    O     O_R   0.510560 0.332330 0.577400 -0.527840
O2    O     O_R   0.489440 0.667670 0.422600 -0.527841
O3    O     O_R   0.477140 0.295500 0.332650 -0.588824
O4    O     O_R   0.522860 0.704500 0.667350 -0.588824
O5    O     O_R   0.353910 0.518430 0.622380 -0.517378
O6    O     O_R   0.646090 0.481570 0.377620 -0.517378
O7    O     O_R   0.320490 0.481600 0.377630 -0.582623
O8    O     O_R   0.679510 0.518400 0.622370 -0.582623

loop_
_geom_bond_atom_site_label_1
_geom_bond_atom_site_label_2
_ccdc_geom_bond_type
Cu2   O2    S    
C2    C4    D    
Cu1   O5    S    
C1    C14   S    
Cu2   O7    S    
Cu2   O6    S    
C11   C13   T    
Cu1   O8    S    
Cu1   O1    S    
C2    C7    S    
C14   H4    S    
C2    H3    S    
C1    O3    A    
C3    H2    S    
C7    O4    A    
C12   C13   S    
C9    C11   S    
C6    N2    D    
C3    C14   D    
C10   C12   T    
C5    N1    D    
C5    C6    S    
C8    O5    A    
C8    O7    A    
C9    O8    A    
C3    C4    S    
H6    N1    S    
Cu1   O4    S    
C8    C10   S    
H5    N2    S    
Cu2   N1    S    
C1    O1    A    
C6    F1    S    
Cu1   N2    S    
C5    F2    S    
C9    O6    A    
Cu2   O3    S    
C4    H1    S    
C7    O2    A    
Cu1   Cu2   S    
