data_mof_unit_64489.cif
_audit_creation_date              2013-03-05T16:01:13-0500
_audit_creation_method            fapswitch 2.2
_symmetry_space_group_name_H-M    P1
_symmetry_Int_Tables_number       1
_space_group_crystal_system       triclinic
_cell_length_a                    42.329276
_cell_length_b                    29.205226
_cell_length_c                    30.580309
_cell_angle_alpha                 90.049823
_cell_angle_beta                  136.370352
_cell_angle_gamma                 89.963047
_cell_volume                      26084.861974

loop_
_atom_site_label
_atom_site_type_symbol
_atom_site_description
_atom_site_fract_x
_atom_site_fract_y
_atom_site_fract_z
_atom_type_partial_charge
O1    O     O_R   0.563110 0.535630 0.563620 -0.591204
O2    O     O_R   0.563110 0.464370 0.563620 -0.591287
O3    O     O_R   0.063110 0.035630 0.563620 -0.591949
O4    O     O_R   0.063110 0.964370 0.563620 -0.590452
C1    C     C_R   0.586686 0.499999 0.587085 0.924795
C2    C     C_R   0.086686 0.999999 0.587086 0.924513
O5    O     O_R   0.499970 0.535640 0.438200 -0.604264
O6    O     O_R   0.499970 0.464360 0.438200 -0.604885
O7    O     O_R   0.999970 0.035640 0.438200 -0.607345
O8    O     O_R   0.999970 0.964360 0.438200 -0.601641
C3    C     C_R   0.499153 0.499964 0.416791 0.946142
C4    C     C_R   0.999170 0.999959 0.416810 0.946379
Zn1   Zn    Zn3+2 0.499970 0.547590 0.500630 0.996974
Zn2   Zn    Zn3+2 0.499970 0.452410 0.500630 0.993668
Zn3   Zn    Zn3+2 0.999970 0.047590 0.500630 0.993919
Zn4   Zn    Zn3+2 0.999970 0.952410 0.500630 0.996878
O9    O     O_R   0.436830 0.535630 0.437320 -0.598527
O10   O     O_R   0.436830 0.464370 0.437320 -0.599369
O11   O     O_R   0.936830 0.035630 0.437320 -0.598848
O12   O     O_R   0.936830 0.964370 0.437320 -0.599083
O13   O     O_R   0.499970 0.535630 0.562740 -0.593040
O14   O     O_R   0.499970 0.464370 0.562740 -0.593391
O15   O     O_R   0.999970 0.035630 0.562740 -0.593152
O16   O     O_R   0.999970 0.964370 0.562740 -0.593277
C5    C     C_R   0.413254 0.500000 0.413652 0.897208
C6    C     C_R   0.913254 0.000000 0.413651 0.897210
C7    C     C_R   0.499972 0.500018 0.586143 0.886046
C8    C     C_R   0.999972 0.000018 0.586143 0.886053
C9    C     C_3   0.525040 0.545566 0.296633 0.166426
C10   C     C_3   0.534717 0.456799 0.305625 0.187441
C11   C     C_3   0.029656 0.042893 0.301176 0.166564
C12   C     C_3   0.029863 0.953600 0.300857 0.187269
C13   C     C_3   0.535804 0.460138 0.256039 -0.434062
C14   C     C_3   0.523311 0.545696 0.244405 -0.452314
C15   C     C_3   0.031310 0.956668 0.251626 -0.434219
C16   C     C_3   0.027999 0.043071 0.249016 -0.452167
H1    H     H_    0.557636 0.551936 0.264209 0.219735
H2    H     H_    0.570724 0.466899 0.278161 0.234756
H3    H     H_    0.062806 0.045579 0.269321 0.219930
H4    H     H_    0.066751 0.959631 0.274261 0.234645
H5    H     H_    0.515383 0.425103 0.294694 0.096949
H6    H     H_    0.501033 0.572755 0.284106 0.109266
H7    H     H_    0.007278 0.924152 0.286732 0.096903
H8    H     H_    0.008655 0.072500 0.291575 0.109414
C17   C     C_1   0.500561 0.499940 0.121278 -0.195534
C18   C     C_1   0.000549 0.999847 0.121261 -0.195492
C19   C     C_3   0.506893 0.498677 0.295760 0.109188
C20   C     C_3   0.006625 0.998237 0.295488 0.109231
C21   C     C_3   0.503971 0.499374 0.208846 0.243002
C22   C     C_3   0.003846 0.999030 0.208715 0.243003
C23   C     C_3   0.455175 0.492163 0.178105 -0.396762
C24   C     C_3   0.954548 0.997099 0.177453 -0.396731
C25   C     C_3   0.456607 0.493270 0.229626 -0.545689
C26   C     C_3   0.956059 0.998160 0.229053 -0.545646
C27   C     C_1   0.501939 0.499675 0.160802 -0.069130
C28   C     C_1   0.001884 0.999442 0.160742 -0.069166
C29   C     C_1   0.505390 0.499184 0.340363 0.001815
C30   C     C_1   0.005167 0.998960 0.340132 0.001435
C31   C     C_1   0.502547 0.499752 0.375590 -0.117886
C32   C     C_1   0.002433 0.999698 0.375472 -0.117791
H9    H     H_    0.435133 0.522189 0.220168 0.195907
H10   H     H_    0.441237 0.461159 0.227315 0.196341
H11   H     H_    0.937768 0.029220 0.222714 0.196126
H12   H     H_    0.937363 0.967889 0.223461 0.196125
H13   H     H_    0.431740 0.519450 0.142532 0.188131
H14   H     H_    0.441301 0.458625 0.152989 0.186656
H15   H     H_    0.934161 0.026701 0.144865 0.187930
H16   H     H_    0.937185 0.965206 0.148899 0.186871
C33   C     C_1   0.637266 0.499998 0.637535 -0.193389
C34   C     C_1   0.137267 0.999998 0.637536 -0.193499
C35   C     C_1   0.679404 0.499997 0.679569 0.026983
C36   C     C_1   0.179404 0.999998 0.679570 0.026924
C37   C     C_1   0.729138 0.499997 0.729195 0.024431
C38   C     C_1   0.229138 0.999998 0.729196 0.024417
C39   C     C_1   0.771274 0.499998 0.771258 0.020089
C40   C     C_1   0.271274 0.999998 0.771259 0.020083
C41   C     C_1   0.821008 0.499998 0.820934 0.014753
C42   C     C_1   0.321008 0.999998 0.820934 0.014749
C43   C     C_1   0.863146 0.499999 0.863059 -0.205500
C44   C     C_1   0.363146 0.999999 0.863059 -0.205505
C45   C     C_1   0.499956 0.500046 0.636012 -0.215415
C46   C     C_1   0.999956 0.000046 0.636012 -0.215410
C47   C     C_1   0.499942 0.500049 0.677175 0.019778
C48   C     C_1   0.999942 0.000049 0.677175 0.019780
C49   C     C_1   0.499926 0.500042 0.726160 0.008021
C50   C     C_1   0.999926 0.000043 0.726160 0.008021
C51   C     C_1   0.499916 0.500034 0.767327 0.008129
C52   C     C_1   0.999916 0.000034 0.767327 0.008127
C53   C     C_1   0.499911 0.500021 0.816323 0.020010
C54   C     C_1   0.999911 0.000021 0.816323 0.020007
C55   C     C_1   0.499924 0.500011 0.857513 -0.215622
C56   C     C_1   0.999924 0.000011 0.857513 -0.215628
C57   C     C_1   0.362677 0.500001 0.363013 -0.216158
C58   C     C_1   0.862676 0.000001 0.363013 -0.216168
C59   C     C_1   0.320541 0.500001 0.320841 0.007170
C60   C     C_1   0.820541 0.000001 0.320840 0.007147
C61   C     C_1   0.270811 0.500001 0.271076 0.010598
C62   C     C_1   0.770810 0.000001 0.271075 0.010578
C63   C     C_1   0.228676 0.500001 0.228914 0.010703
C64   C     C_1   0.728676 0.000001 0.228913 0.010682
C65   C     C_1   0.178946 0.500000 0.179145 0.008599
C66   C     C_1   0.678946 0.000000 0.179145 0.008579
C67   C     C_1   0.136810 0.500000 0.136964 -0.209458
C68   C     C_1   0.636810 1.000000 0.136964 -0.209477
O17   O     O_R   0.535670 0.563060 0.029670 -0.594801
O18   O     O_R   0.535670 0.436940 0.029670 -0.594560
O19   O     O_R   0.035670 0.063060 0.029670 -0.595012
O20   O     O_R   0.035670 0.936940 0.029670 -0.594336
O21   O     O_R   0.464380 0.563080 0.958370 -0.596764
O22   O     O_R   0.464380 0.436920 0.958370 -0.596611
O23   O     O_R   0.964380 0.063080 0.958370 -0.596871
O24   O     O_R   0.964380 0.936920 0.958370 -0.596529
C69   C     C_R   0.500031 0.586641 0.994573 0.906274
C70   C     C_R   0.500032 0.413359 0.994574 0.906999
C71   C     C_R   0.000031 0.086641 0.994572 0.905878
C72   C     C_R   0.000032 0.913359 0.994575 0.907413
O25   O     O_R   0.535670 0.500000 0.091080 -0.606251
O26   O     O_R   0.035670 0.000000 0.091080 -0.606258
O27   O     O_R   0.464370 0.500000 0.019780 -0.614264
O28   O     O_R   0.964370 0.000000 0.019780 -0.614275
C73   C     C_R   0.500096 0.500199 0.076088 0.949335
C74   C     C_R   0.000095 0.000262 0.076086 0.949328
Zn5   Zn    Zn3+2 0.547630 0.500000 0.040770 0.984348
Zn6   Zn    Zn3+2 0.047630 0.000000 0.040770 0.984329
Zn7   Zn    Zn3+2 0.452420 0.500000 0.945550 0.975317
Zn8   Zn    Zn3+2 0.952420 0.000000 0.945550 0.975269
O29   O     O_R   0.535670 0.500000 0.966540 -0.592774
O30   O     O_R   0.035670 0.000000 0.966540 -0.592770
O31   O     O_R   0.464380 0.500000 0.895240 -0.592125
O32   O     O_R   0.964380 0.000000 0.895240 -0.592132
C75   C     C_R   0.499986 0.500000 0.907460 0.891208
C76   C     C_R   0.999986 0.000000 0.907460 0.891212
O33   O     O_R   0.000010 0.436840 0.964010 -0.591587
O34   O     O_R   0.000010 0.563160 0.964010 -0.591536
O35   O     O_R   0.500010 0.936840 0.964010 -0.591565
O36   O     O_R   0.500010 0.063160 0.964010 -0.591568
O37   O     O_R   0.000000 0.436830 0.034310 -0.593553
O38   O     O_R   0.000000 0.563170 0.034310 -0.593457
O39   O     O_R   0.500000 0.936830 0.034310 -0.593396
O40   O     O_R   0.500000 0.063170 0.034310 -0.593615
C77   C     C_R   0.000015 0.413719 0.999116 0.896519
C78   C     C_R   0.000015 0.586282 0.999150 0.896617
C79   C     C_R   0.500015 0.913719 0.999116 0.896642
C80   C     C_R   0.500015 0.086282 0.999150 0.896502
O41   O     O_R   0.936840 0.500000 0.901700 -0.588826
O42   O     O_R   0.436840 0.000000 0.901700 -0.588843
O43   O     O_R   0.936840 0.500000 0.972000 -0.594902
O44   O     O_R   0.436840 0.000000 0.972000 -0.594890
C81   C     C_R   0.913728 0.499999 0.913700 0.897176
C82   C     C_R   0.413729 1.000000 0.913700 0.897186
Zn9   Zn    Zn3+2 0.999990 0.500000 0.953050 0.984815
Zn10  Zn    Zn3+2 0.499990 0.000000 0.953050 0.984772
Zn11  Zn    Zn3+2 0.999980 0.500000 0.046950 0.976492
Zn12  Zn    Zn3+2 0.499980 0.000000 0.046950 0.976483
O45   O     O_R   0.063130 0.500000 0.028000 -0.593055
O46   O     O_R   0.563130 0.000000 0.028000 -0.593057
O47   O     O_R   0.063120 0.500000 0.098300 -0.592845
O48   O     O_R   0.563120 0.000000 0.098300 -0.592852
C83   C     C_R   0.086232 0.500000 0.086301 0.896221
C84   C     C_R   0.586232 1.000000 0.086301 0.896219
C85   C     C_1   0.500042 0.637228 0.995400 -0.216143
C86   C     C_1   0.500045 0.362773 0.995428 -0.216724
C87   C     C_1   0.000042 0.137228 0.995400 -0.216529
C88   C     C_1   0.000045 0.862773 0.995429 -0.216328
C89   C     C_1   0.500044 0.679367 0.996132 0.009888
C90   C     C_1   0.500047 0.320635 0.996185 0.009512
C91   C     C_1   0.000044 0.179367 0.996131 0.009399
C92   C     C_1   0.000047 0.820635 0.996185 0.010018
C93   C     C_1   0.500042 0.729105 0.997000 0.012672
C94   C     C_1   0.500045 0.270897 0.997080 0.012200
C95   C     C_1   0.000042 0.229105 0.997000 0.012191
C96   C     C_1   0.000045 0.770897 0.997081 0.012700
C97   C     C_1   0.000038 0.271243 0.997700 0.011987
C98   C     C_1   0.000040 0.728760 0.997800 0.012395
C99   C     C_1   0.500038 0.771243 0.997701 0.012425
C100  C     C_1   0.500040 0.228760 0.997799 0.011942
C101  C     C_1   0.000032 0.320983 0.998435 0.009939
C102  C     C_1   0.000033 0.679019 0.998543 0.010296
C103  C     C_1   0.500032 0.820983 0.998435 0.010316
C104  C     C_1   0.500033 0.179019 0.998543 0.009906
C105  C     C_1   0.000025 0.363126 0.998899 -0.208312
C106  C     C_1   0.000025 0.636876 0.998994 -0.208066
C107  C     C_1   0.500025 0.863126 0.998899 -0.208018
C108  C     C_1   0.500025 0.136876 0.998994 -0.208377
N1    N     N_R   0.570774 0.556975 0.359336 0.233509
O49   O     O_R   0.607729 0.541571 0.377690 -0.320653
O50   O     O_R   0.574690 0.586430 0.394985 -0.370744
N2    N     N_R   0.580577 0.451783 0.371342 0.255222
O51   O     O_R   0.616843 0.445870 0.383562 -0.333637
O52   O     O_R   0.584060 0.443623 0.416519 -0.368204
N3    N     N_R   0.076324 0.049430 0.364841 0.233409
O53   O     O_R   0.111464 0.030188 0.381425 -0.320657
O54   O     O_R   0.083298 0.078337 0.403533 -0.371562
N4    N     N_R   0.074930 0.943799 0.365807 0.255105
O55   O     O_R   0.110389 0.934081 0.377245 -0.333537
O56   O     O_R   0.077510 0.935360 0.410089 -0.367187
H17   H     H_    0.524411 0.426911 0.230400 0.156510
H18   H     H_    0.500875 0.574197 0.210665 0.158211
H19   H     H_    0.016439 0.924809 0.222578 0.156528
H20   H     H_    0.008739 0.073772 0.218371 0.158055

loop_
_geom_bond_atom_site_label_1
_geom_bond_atom_site_label_2
_geom_bond_distance
_ccdc_geom_bond_type
C6    C58   1.477227 S    
N4    O56   1.301108 A    
C80   C108  1.477631 S    
Zn3   O11   1.876924 S    
C5    C57   1.477227 S    
C17   C27   1.167163 T    
C9    H6    1.116173 S    
C14   H1    1.112388 S    
C12   C20   1.568093 S    
Zn2   O10   1.876909 S    
O32   C76   1.263298 A    
O33   Zn9   1.874983 S    
O3    C2    1.247787 A    
C67   C83   1.477224 S    
N1    O50   1.301089 A    
C15   H19   1.113962 S    
C94   C100  1.230862 T    
C20   C26   1.553654 S    
C95   C97   1.230831 T    
C13   H17   1.113953 S    
C38   C40   1.230685 T    
O18   C70   1.248231 A    
O1    C1    1.247787 A    
C9    C19   1.561301 S    
O17   C69   1.248216 A    
C56   C76   1.525481 S    
C40   C42   1.452601 S    
Zn12  O48   1.879750 S    
Zn11  O47   1.879750 S    
O26   C74   1.215888 A    
C42   C44   1.230723 T    
C29   C31   1.167399 T    
C19   C29   1.410774 S    
C26   H11   1.114480 S    
Zn8   O32   1.936695 S    
C13   C21   1.548297 S    
O35   Zn10  1.874983 S    
C11   N3    1.470203 S    
O17   Zn5   1.874680 S    
N2    O52   1.301112 A    
C23   H13   1.113929 S    
C33   C35   1.230709 T    
O11   C6    1.247776 A    
O25   C73   1.215878 A    
C58   C60   1.230644 T    
C1    C33   1.477322 S    
O36   Zn10  1.874408 S    
C86   C90   1.230892 T    
C54   C56   1.259193 T    
Zn10  O46   1.878456 S    
C16   C22   1.547055 S    
C96   C98   1.230859 T    
C21   C23   1.543934 S    
C60   C62   1.452483 S    
O18   Zn5   1.874745 S    
C22   C24   1.543960 S    
C10   H5    1.114810 S    
Zn9   O45   1.878456 S    
C53   C55   1.259193 T    
O22   C70   1.248187 A    
O24   Zn8   1.875283 S    
C77   C105  1.477584 S    
C24   H16   1.113844 S    
O21   C69   1.248179 A    
C43   C81   1.477350 S    
O25   Zn5   1.936695 S    
Zn3   O15   1.931490 S    
N4    O55   1.302056 A    
O13   C7    1.262984 A    
O2    Zn2   1.876946 S    
O47   C83   1.269435 A    
O42   C82   1.269422 A    
C98   C102  1.452878 S    
O48   C84   1.269435 A    
C37   C39   1.230685 T    
O10   C5    1.247770 A    
O44   Zn12  1.878458 S    
O19   Zn6   1.874680 S    
O20   Zn6   1.874745 S    
C3    C31   1.367531 S    
C10   N2    1.476896 S    
O30   C76   1.262988 A    
C45   C47   1.259191 T    
C24   C26   1.532559 S    
O5    C3    1.217177 A    
C103  C107  1.230868 T    
O27   C73   1.217519 A    
C89   C93   1.452827 S    
C34   C36   1.230709 T    
C11   H8    1.116161 S    
C49   C51   1.259212 T    
O45   C83   1.269241 A    
N3    O53   1.301136 A    
C12   C15   1.553043 S    
O40   C80   1.270393 A    
C10   C19   1.567944 S    
C88   C92   1.230889 T    
C12   N4    1.476933 S    
C61   C63   1.230613 T    
O34   Zn9   1.874408 S    
C35   C37   1.452592 S    
C91   C95   1.452830 S    
O39   Zn12  1.884752 S    
C17   C73   1.367754 S    
C21   C27   1.408236 S    
C8    C46   1.525472 S    
C9    C14   1.544986 S    
C22   C28   1.408166 S    
N2    O51   1.302058 A    
C23   C25   1.532559 S    
C23   H14   1.113843 S    
C79   C107  1.477584 S    
O4    Zn4   1.876946 S    
C87   C91   1.230862 T    
N3    O54   1.301073 A    
O34   C78   1.268537 A    
C25   H10   1.114362 S    
C14   H18   1.114155 S    
C100  C104  1.452875 S    
Zn5   O29   1.935325 S    
C7    C45   1.525472 S    
Zn4   O12   1.876909 S    
C15   C22   1.548118 S    
C64   C66   1.452483 S    
C68   C84   1.477224 S    
C41   C43   1.230726 T    
O37   Zn11  1.884752 S    
O39   C79   1.270269 A    
O26   Zn6   1.936695 S    
O15   C8    1.262984 A    
C66   C68   1.230647 T    
C39   C41   1.452598 S    
O19   C71   1.248217 A    
C102  C106  1.230894 T    
O28   Zn8   1.935574 S    
O8    C4    1.216155 A    
O42   Zn10  1.880097 S    
O27   Zn7   1.935574 S    
O38   Zn11  1.885408 S    
O4    C2    1.247788 A    
C63   C65   1.452483 S    
C52   C54   1.498485 S    
C90   C94   1.452873 S    
C46   C48   1.259191 T    
C11   C20   1.561180 S    
C51   C53   1.498485 S    
O38   C78   1.270393 A    
O2    C1    1.247788 A    
O1    Zn1   1.876928 S    
C25   H9    1.114487 S    
O24   C72   1.248188 A    
O3    Zn3   1.876928 S    
C36   C38   1.452589 S    
O28   C74   1.217489 A    
C92   C96   1.452876 S    
O21   Zn7   1.875252 S    
C2    C34   1.477324 S    
O37   C77   1.270269 A    
O23   Zn8   1.875252 S    
C14   C21   1.546932 S    
O6    Zn2   1.941069 S    
C10   C13   1.553131 S    
O43   C81   1.269118 A    
C78   C106  1.477631 S    
C16   H3    1.112377 S    
C18   C74   1.367690 S    
O16   C8    1.262828 A    
O44   C82   1.269118 A    
C99   C103  1.452831 S    
C59   C61   1.452481 S    
C20   C30   1.410712 S    
C16   H20   1.114152 S    
O46   C84   1.269241 A    
O41   Zn9   1.880097 S    
C93   C99   1.230831 T    
O33   C77   1.268631 A    
C13   H2    1.110905 S    
Zn6   O30   1.935325 S    
O14   C7    1.262828 A    
O9    C5    1.247776 A    
Zn4   O16   1.930893 S    
O20   C72   1.248231 A    
O29   C75   1.262988 A    
C15   H4    1.110892 S    
O7    Zn3   1.940472 S    
O36   C80   1.268537 A    
O8    Zn4   1.941069 S    
Zn1   O13   1.931490 S    
Zn2   O14   1.930893 S    
N1    O49   1.301128 A    
C57   C59   1.230647 T    
O12   C6    1.247770 A    
C24   H15   1.113930 S    
O6    C3    1.216312 A    
C101  C105  1.230865 T    
C19   C25   1.553686 S    
O35   C79   1.268631 A    
C12   H7    1.114821 S    
C9    N1    1.470196 S    
C44   C82   1.477350 S    
C50   C52   1.259212 T    
C71   C87   1.477585 S    
C47   C49   1.498482 S    
O43   Zn11  1.878458 S    
C62   C64   1.230613 T    
C72   C88   1.477634 S    
C70   C86   1.477634 S    
O7    C4    1.217246 A    
O22   Zn7   1.875283 S    
C69   C85   1.477588 S    
Zn1   O9    1.876924 S    
C4    C32   1.367451 S    
Zn7   O31   1.936695 S    
O5    Zn1   1.940472 S    
C55   C75   1.525481 S    
C26   H12   1.114367 S    
C65   C67   1.230647 T    
C18   C28   1.167127 T    
O41   C81   1.269422 A    
C11   C16   1.545052 S    
C48   C50   1.498482 S    
O23   C71   1.248181 A    
C97   C101  1.452831 S    
C30   C32   1.167364 T    
C85   C89   1.230862 T    
C104  C108  1.230894 T    
O40   Zn12  1.885408 S    
O31   C75   1.263298 A    
