data_mof_unit_7976.cif
_audit_creation_date              2012-12-11T15:35:29-0500
_audit_creation_method            fapswitch 2.2
_symmetry_space_group_name_H-M    P1
_symmetry_Int_Tables_number       1
_space_group_crystal_system       triclinic
_cell_length_a                    17.498002
_cell_length_b                    24.65295
_cell_length_c                    14.888271
_cell_angle_alpha                 90.052929
_cell_angle_beta                  125.33669
_cell_angle_gamma                 89.85072
_cell_volume                      5239.21686012

loop_
_atom_site_label
_atom_site_type_symbol
_atom_type_description
_atom_site_fract_x
_atom_site_fract_y
_atom_site_fract_z
_atom_type_partial_charge
C1    C     C_R   0.309629 0.123495 0.907187 -0.164292
C2    C     C_R   0.583611 0.138829 0.908849 -0.163907
C3    C     C_R   0.256266 0.545419 0.303240 -0.144741
C4    C     C_2   0.753400 0.136263 0.884307 0.470040
C5    C     C_2   0.557117 0.713165 0.920280 0.525140
C6    C     C_2   0.247624 0.664057 0.888555 0.483489
C7    C     C_2   0.115849 0.222534 0.097907 0.527046
C8    C     C_2   0.460188 0.836553 0.196493 0.441608
C9    C     C_2   0.454210 0.157182 0.199792 0.496524
C10   C     C_2   0.012437 0.323698 0.198175 0.398458
C11   C     C_2   0.996513 0.672064 0.201479 0.466156
C12   C     C_R   0.064333 0.350820 0.909470 -0.151242
C13   C     C_R   0.078522 0.642950 0.910315 -0.158871
C14   C     C_R   0.544252 0.999306 0.719158 0.035726
C15   C     C_R   0.048979 0.499561 0.724862 0.039680
C16   C     C_R   0.825054 0.999249 0.288727 -0.004797
C17   C     C_R   0.303451 0.499766 0.365004 -0.017047
C18   C     C_R   0.665722 0.156517 0.001009 0.032487
C19   C     C_R   0.629624 0.822265 0.003450 -0.000105
C20   C     C_R   0.157763 0.663552 0.003428 0.030066
C21   C     C_R   0.311998 0.873467 0.906491 -0.135131
C22   C     C_R   0.132062 0.323329 0.001496 -0.004668
C23   C     C_3   0.041795 0.001658 0.580000 -0.383614
C24   C     C_3   0.079638 0.048689 0.458956 -0.393936
C25   C     C_3   0.524511 0.448439 0.636223 -0.394121
C26   C     C_3   0.523285 0.550147 0.638187 -0.375621
C27   C     C_3   0.938407 0.002226 0.485461 -0.391799
C28   C     C_3   0.975451 0.047888 0.362079 -0.383988
C29   C     C_3   0.421115 0.448445 0.536954 -0.393908
C30   C     C_3   0.420077 0.550355 0.538280 -0.385201
C31   C     C_3   0.078486 0.946849 0.465257 -0.395270
C32   C     C_R   0.840443 0.647127 0.905734 -0.178043
C33   C     C_3   0.566133 0.500703 0.523559 -0.387340
C34   C     C_3   0.102495 0.999187 0.535150 0.374797
C35   C     C_3   0.574246 0.499796 0.632926 0.363460
C36   C     C_3   0.926153 0.998840 0.374007 0.374635
C37   C     C_3   0.399605 0.499733 0.465197 0.371792
C38   C     C_R   0.409464 0.866583 0.091664 0.004537
C39   C     C_R   0.406117 0.129949 0.092114 -0.030951
C40   C     C_R   0.941991 0.348992 0.091212 -0.003800
C41   C     C_R   0.933876 0.649118 0.090296 -0.007192
C42   C     C_3   0.973743 0.946280 0.370742 -0.396581
C43   C     C_R   0.845611 0.350847 0.907097 -0.130652
C44   C     C_3   0.463916 0.500410 0.425470 -0.388689
C45   C     C_R   0.275256 0.761808 0.937382 -0.142411
C46   C     C_R   0.213339 0.180227 0.043712 -0.041303
C47   C     C_R   0.815302 0.229992 0.942130 -0.142236
C48   C     C_R   0.712458 0.696390 0.954703 -0.156325
C49   C     C_R   0.763539 0.187730 0.942485 -0.038439
C50   C     C_R   0.652892 0.731003 0.959678 -0.075047
C51   C     C_R   0.240678 0.712748 0.942855 -0.056689
C52   C     C_R   0.167837 0.225771 0.047026 -0.074897
C53   C     C_R   0.724297 0.195414 0.001972 0.036106
C54   C     C_R   0.675346 0.136944 0.092899 -0.128079
C55   C     C_R   0.687596 0.782485 0.004846 0.038959
C56   C     C_R   0.202625 0.710868 0.003941 0.039544
C57   C     C_R   0.171517 0.273849 0.998462 0.035320
C58   C     C_R   0.738406 0.242047 0.062206 -0.154770
C59   C     C_R   0.777489 0.799774 0.041800 -0.140040
C60   C     C_R   0.199087 0.756135 0.058086 -0.146809
C61   C     C_R   0.214342 0.276122 0.943683 -0.141277
C62   C     C_R   0.234079 0.804619 0.052068 -0.201397
C63   C     C_R   0.258316 0.231202 0.940743 -0.197165
C64   C     C_R   0.790491 0.282706 0.062381 -0.189118
C65   C     C_R   0.654241 0.851788 0.093785 -0.074511
C66   C     C_R   0.835188 0.765314 0.035048 -0.087526
C67   C     C_R   0.271856 0.806858 0.992034 0.102783
C68   C     C_R   0.259172 0.183962 0.992411 0.107586
C69   C     C_R   0.827796 0.276416 0.002090 0.094693
C70   C     C_R   0.802484 0.713931 0.993137 0.128325
C71   C     C_R   0.601998 0.949947 0.624658 -0.159884
C72   C     C_R   0.603769 0.048135 0.626363 -0.107766
C73   C     C_R   0.103470 0.450236 0.627169 -0.162417
C74   C     C_R   0.105351 0.548392 0.628890 -0.132720
C75   C     C_R   0.607751 0.950044 0.535903 -0.169369
C76   C     C_R   0.172510 0.639203 0.094879 -0.139477
C77   C     C_R   0.609300 0.048291 0.537448 -0.131190
C78   C     C_R   0.102777 0.450314 0.533885 -0.173994
C79   C     C_R   0.104268 0.548558 0.535306 -0.145146
C80   C     C_R   0.600739 0.999300 0.484532 0.118038
C81   C     C_R   0.092629 0.499554 0.480851 0.125506
C82   C     C_R   0.550737 0.044495 0.305413 -0.109023
C83   C     C_R   0.549076 0.955079 0.304337 -0.143548
C84   C     C_R   0.044620 0.544790 0.302505 -0.120489
C85   C     C_R   0.042460 0.455015 0.301278 -0.104465
C86   C     C_R   0.588889 0.999069 0.661429 0.117414
C87   C     C_R   0.158004 0.352734 0.093299 -0.079360
C88   C     C_R   0.092872 0.499341 0.666269 0.124618
C89   C     C_R   0.246040 0.954352 0.695457 -0.144471
C90   C     C_R   0.245439 0.045175 0.694741 -0.141359
C91   C     C_R   0.731424 0.454158 0.749432 -0.134156
C92   C     C_R   0.730919 0.545691 0.748390 -0.127364
C93   C     C_R   0.316136 0.140827 0.999437 0.021328
C94   C     C_R   0.321132 0.853611 0.998630 -0.052676
C95   C     C_R   0.863602 0.675763 0.996649 0.001140
C96   C     C_R   0.875367 0.321068 0.999360 -0.058886
C97   C     C_R   0.566529 0.999655 0.368938 0.034493
C98   C     C_R   0.563610 0.850040 0.910535 -0.155516
C99   C     C_R   0.058054 0.499829 0.365091 0.021063
C100  C     C_R   0.199833 0.999572 0.632210 0.000457
C101  C     C_R   0.675192 0.499904 0.721406 -0.000821
C102  C     C_R   0.512096 0.044686 0.743068 -0.125668
C103  C     C_R   0.516253 0.954238 0.748614 -0.119257
C104  C     C_R   0.016633 0.544947 0.748578 -0.123425
C105  C     C_R   0.018530 0.454423 0.751250 -0.122856
C106  C     C_R   0.768617 0.953702 0.256420 -0.134686
C107  C     C_R   0.769702 0.045144 0.262073 -0.135202
C108  C     C_R   0.256460 0.454266 0.302854 -0.110298
H1    H     H_    0.252259 0.130248 0.822155 0.110989
H2    H     H_    0.943871 0.087063 0.361702 0.149202
H3    H     H_    0.374934 0.447402 0.565760 0.166291
H4    H     H_    0.373429 0.550637 0.566466 0.172122
H5    H     H_    0.902951 0.967404 0.494621 0.164045
H6    H     H_    0.968293 0.045054 0.282924 0.168816
H7    H     H_    0.408410 0.410806 0.489156 0.155239
H8    H     H_    0.407186 0.588429 0.491597 0.151207
H9    H     H_    0.093582 0.909850 0.515512 0.154850
H10   H     H_    0.121137 0.944753 0.431773 0.161997
H11   H     H_    0.602155 0.464779 0.518367 0.160428
H12   H     H_    0.256367 0.865341 0.821330 0.111522
H13   H     H_    0.600602 0.537551 0.519252 0.160243
H14   H     H_    0.942689 0.909604 0.380873 0.157578
H15   H     H_    0.964288 0.942874 0.290328 0.160201
H16   H     H_    0.450578 0.464139 0.373612 0.161014
H17   H     H_    0.449401 0.536963 0.373848 0.162181
H18   H     H_    0.308574 0.764670 0.894718 0.160288
H19   H     H_    0.214915 0.142472 0.082042 0.162427
H20   H     H_    0.846446 0.227039 0.897026 0.155071
H21   H     H_    0.690273 0.655452 0.923511 0.161671
H22   H     H_    0.707047 0.247476 0.106674 0.121430
H23   H     H_    0.793766 0.659721 0.820772 0.109670
H24   H     H_    0.801962 0.840376 0.073728 0.120500
H25   H     H_    0.168072 0.753935 0.103383 0.121022
H26   H     H_    0.216050 0.313320 0.905968 0.125238
H27   H     H_    0.233670 0.839821 0.095460 0.121937
H28   H     H_    0.294963 0.233864 0.902010 0.126889
H29   H     H_    0.799715 0.319726 0.107062 0.118944
H30   H     H_    0.905136 0.778046 0.063828 0.120592
H31   H     H_    0.597859 0.911237 0.655569 0.111703
H32   H     H_    0.601308 0.086773 0.658917 0.122449
H33   H     H_    0.101679 0.411531 0.659912 0.107547
H34   H     H_    0.800245 0.337589 0.822435 0.103488
H35   H     H_    0.105393 0.587009 0.663348 0.125861
H36   H     H_    0.607390 0.911327 0.501645 0.119165
H37   H     H_    0.610036 0.087093 0.504296 0.121941
H38   H     H_    0.101046 0.411583 0.498827 0.115468
H39   H     H_    0.103506 0.587366 0.501198 0.126099
H40   H     H_    0.574667 0.084792 0.336495 0.082160
H41   H     H_    0.570008 0.914301 0.333764 0.146249
H42   H     H_    0.063303 0.585693 0.332004 0.092138
H43   H     H_    0.056381 0.413620 0.328467 0.141900
H44   H     H_    0.233941 0.912427 0.669951 0.091769
H45   H     H_    0.058398 0.038736 0.631006 0.160143
H46   H     H_    0.231670 0.086978 0.668158 0.090673
H47   H     H_    0.710165 0.412325 0.732439 0.094077
H48   H     H_    0.708470 0.587279 0.728808 0.091027
H49   H     H_    0.513808 0.085919 0.721452 0.088558
H50   H     H_    0.526308 0.912158 0.738598 0.093546
H51   H     H_    0.022483 0.586581 0.732174 0.090331
H52   H     H_    0.028276 0.412376 0.740610 0.091864
H53   H     H_    0.789527 0.911763 0.273126 0.094244
H54   H     H_    0.793147 0.085795 0.290835 0.085630
H55   H     H_    0.270622 0.412238 0.327777 0.117499
H56   H     H_    0.093775 0.087406 0.504252 0.151544
H57   H     H_    0.270184 0.587306 0.328960 0.090126
H58   H     H_    0.724430 0.150297 0.176583 0.090532
H59   H     H_    0.699604 0.839285 0.178963 0.120226
H60   H     H_    0.221655 0.650532 0.180244 0.097354
H61   H     H_    0.204010 0.340211 0.178445 0.132511
H62   H     H_    0.525896 0.836255 0.826203 0.097673
H63   H     H_    0.549360 0.153888 0.825973 0.100061
H64   H     H_    0.022495 0.336001 0.825661 0.102988
H65   H     H_    0.040617 0.659324 0.827824 0.101708
H66   H     H_    0.056625 0.965974 0.633751 0.163317
H67   H     H_    0.529589 0.447368 0.714233 0.164621
H68   H     H_    0.123957 0.047819 0.427608 0.169965
H69   H     H_    0.557213 0.410719 0.632284 0.152887
H70   H     H_    0.555533 0.588552 0.636810 0.151276
H71   H     H_    0.720135 0.101197 0.891709 0.024192
H72   H     H_    0.511912 0.739396 0.929027 0.029460
H73   H     H_    0.228936 0.624207 0.900780 0.021310
H74   H     H_    0.073586 0.256378 0.092107 0.017358
H75   H     H_    0.422855 0.820424 0.228569 0.019168
H76   H     H_    0.529149 0.163873 0.247003 -0.018738
H77   H     H_    0.994352 0.288187 0.225130 0.046079
H78   H     H_    0.527732 0.549565 0.715825 0.181837
H79   H     H_    0.069621 0.660101 0.252287 -0.014224
H80   H     H_    0.905857 0.040080 0.489939 0.159528
N1    N     N_R   0.392140 0.102630 0.941800 -0.044818
N2    N     N_R   0.525160 0.972040 0.206160 -0.040702
N3    N     N_R   0.025160 0.527960 0.206160 -0.051129
N4    N     N_R   0.025160 0.472040 0.206160 -0.033609
N5    N     N_R   0.317870 0.971120 0.792790 -0.034894
N6    N     N_R   0.317870 0.028880 0.792790 -0.032701
N7    N     N_R   0.817870 0.471120 0.792790 -0.040222
N8    N     N_R   0.817870 0.528880 0.792790 -0.037466
N9    N     N_R   0.473480 0.027920 0.793480 -0.037495
N10   N     N_R   0.473480 0.972080 0.793480 -0.040529
N11   N     N_R   0.973480 0.527920 0.793480 -0.041336
N12   N     N_R   0.392140 0.897370 0.941800 -0.049814
N13   N     N_R   0.973480 0.472080 0.793480 -0.043798
N14   N     N_R   0.681610 0.971120 0.207570 -0.033983
N15   N     N_R   0.681610 0.028880 0.207570 -0.039791
N16   N     N_R   0.181610 0.471120 0.207570 -0.032013
N17   N     N_R   0.181610 0.528880 0.207570 -0.040220
N18   N     N_R   0.605410 0.102620 0.056870 -0.041075
N19   N     N_R   0.605410 0.897380 0.056870 -0.041107
N20   N     N_R   0.105410 0.602620 0.056870 -0.043807
N21   N     N_R   0.105410 0.397380 0.056870 -0.033859
N22   N     N_R   0.549680 0.896430 0.944180 -0.041197
N23   N     N_R   0.892140 0.602630 0.941800 -0.038382
N24   N     N_R   0.549680 0.103570 0.944180 -0.034628
N25   N     N_R   0.049680 0.396430 0.944180 -0.042509
N26   N     N_R   0.049680 0.603570 0.944180 -0.034201
N27   N     N_R   0.892140 0.397370 0.941800 -0.047456
N28   N     N_R   0.450890 0.896450 0.057150 -0.038590
N29   N     N_R   0.450890 0.103550 0.057150 -0.081326
N30   N     N_R   0.950890 0.396450 0.057150 -0.040438
N31   N     N_R   0.950890 0.603550 0.057150 -0.077378
N32   N     N_R   0.525160 0.027960 0.206160 -0.052273
Ni1   Ni    Ni4+2 0.433410 0.064680 0.868830 0.213228
Ni2   Ni    Ni4+2 0.433410 0.935320 0.868830 0.212755
Ni3   Ni    Ni4+2 0.933410 0.564680 0.868830 0.212391
Ni4   Ni    Ni4+2 0.933410 0.435320 0.868830 0.207681
Ni5   Ni    Ni4+2 0.565650 0.934380 0.131170 0.261377
Ni6   Ni    Ni4+2 0.565650 0.065620 0.131170 0.194959
Ni7   Ni    Ni4+2 0.065650 0.434380 0.131170 0.269408
Ni8   Ni    Ni4+2 0.065650 0.565620 0.131170 0.197280
O1    O     O_2   0.783170 0.132178 0.827918 -0.586423
O2    O     O_2   0.527479 0.668751 0.877625 -0.570795
O3    O     O_2   0.274942 0.667819 0.829635 -0.570080
O4    O     O_2   0.118803 0.181657 0.146106 -0.574921
O5    O     O_2   0.543750 0.827133 0.245128 -0.600532
O6    O     O_2   0.411098 0.173032 0.236250 -0.578850
O7    O     O_2   0.092907 0.340194 0.254152 -0.620477
O8    O     O_2   0.967777 0.704612 0.237287 -0.580124

loop_
_geom_bond_atom_site_label_1
_geom_bond_atom_site_label_2
_ccdc_geom_bond_type
C62   H27   S    
C74   H35   S    
C49   C53   A    
N3    Ni8   S    
N22   Ni2   S    
C31   C42   S    
C55   C59   A    
C80   C97   S    
C2    C18   A    
N2    Ni5   S    
C83   N2    A    
C36   C42   S    
C20   C56   S    
C69   C96   S    
C43   N27   A    
N27   Ni4   S    
C22   C57   S    
C47   H20   S    
C12   H64   S    
C23   H66   S    
C30   H8    S    
C85   N4    A    
C107  N15   A    
C4    H71   S    
C98   N22   A    
C42   H14   S    
C10   O7    D    
C16   C36   S    
C3    C17   A    
C62   C67   A    
C84   N3    A    
C11   H79   S    
C60   C62   A    
N10   Ni2   S    
C91   C101  A    
C7    C52   S    
C21   H12   S    
N9    Ni1   S    
C59   C66   A    
N7    Ni4   S    
C33   C35   S    
N25   Ni4   S    
C25   H69   S    
C67   C94   S    
C14   C102  A    
C105  H52   S    
C21   C94   A    
C45   C51   A    
C87   H61   S    
C46   C52   A    
C6    H73   S    
C9    C39   S    
C10   H77   S    
C12   C22   A    
C20   C76   A    
N17   Ni8   S    
C10   C40   S    
C51   C56   A    
C106  H53   S    
C61   C63   A    
C39   C93   A    
C16   C107  A    
C1    H1    S    
C46   C68   A    
N19   Ni5   S    
C89   H44   S    
C47   C69   A    
C54   N18   A    
C90   N6    A    
C50   C55   A    
N18   Ni6   S    
N19   N22   A    
C34   C100  S    
C73   C78   A    
C19   C65   A    
C23   C27   S    
C15   C104  A    
C90   H46   S    
C75   C80   A    
C75   H36   S    
C18   C53   S    
C16   C106  A    
N29   Ni6   S    
N24   Ni1   S    
C8    O5    D    
C48   C50   A    
C29   H7    S    
N23   Ni3   S    
C84   C99   A    
C6    O3    D    
N27   N30   A    
C33   H13   S    
C5    H72   S    
C87   N21   A    
C24   H56   S    
C8    C38   S    
C12   N25   A    
C40   C96   A    
C102  H49   S    
C90   C100  A    
C41   N31   A    
C19   C98   A    
N1    N29   A    
C42   H15   S    
N14   Ni5   S    
C7    O4    D    
C26   H70   S    
C72   C86   A    
C25   C29   S    
C44   H17   S    
C108  H55   S    
C59   H24   S    
N14   N15   A    
C89   C100  A    
N3    N4    A    
C3    N17   A    
C46   H19   S    
C14   C86   S    
C47   C49   A    
C52   C57   A    
C102  N9    A    
C48   C70   A    
C79   C81   A    
C32   N23   A    
C78   H38   S    
C73   H33   S    
C81   C99   S    
C58   C64   A    
C28   H2    S    
C22   C87   A    
C44   H16   S    
N21   N25   A    
C56   C60   A    
C30   C37   S    
C30   H4    S    
N4    Ni7   S    
C103  N10   A    
C13   N26   A    
N31   Ni8   S    
C13   H65   S    
C85   H43   S    
C73   C88   A    
C91   H47   S    
C72   C77   A    
C85   C99   A    
C106  N14   A    
C71   C86   A    
C91   N7    A    
C25   H67   S    
C105  N13   A    
C66   H30   S    
C107  H54   S    
C45   H18   S    
C23   C34   S    
C89   N5    A    
C38   C94   A    
C43   C96   A    
C31   C34   S    
N32   Ni6   S    
C92   H48   S    
C17   C37   S    
C64   C69   A    
N16   N17   A    
N16   Ni7   S    
C57   C61   A    
C28   H6    S    
C92   C101  A    
C25   C35   S    
N6    Ni1   S    
C79   H39   S    
C31   H9    S    
C8    H75   S    
N5    Ni2   S    
C26   C30   S    
C74   C79   A    
C23   H45   S    
C6    C51   S    
C82   C97   A    
C48   H21   S    
C17   C108  A    
N11   Ni3   S    
C104  H51   S    
C24   H68   S    
C27   H5    S    
N30   Ni7   S    
C21   N12   A    
C3    H57   S    
C54   H58   S    
C77   C80   A    
C19   C55   S    
C11   O8    D    
C7    H74   S    
C65   H59   S    
C63   C68   A    
N20   N26   A    
C61   H26   S    
C13   C20   A    
C40   N30   A    
C9    O6    D    
C104  N11   A    
C39   N29   A    
C24   C28   S    
C38   N28   A    
C35   C101  S    
N2    N32   A    
C82   H40   S    
C53   C58   A    
C103  H50   S    
C71   H31   S    
C45   C67   A    
C65   N19   A    
N28   Ni5   S    
C27   C36   S    
N23   N31   A    
C2    H63   S    
C31   H10   S    
C2    N24   A    
C68   C93   S    
C4    C49   S    
N12   Ni2   S    
C63   H28   S    
C15   C105  A    
C37   C44   S    
C70   C95   S    
C108  N16   A    
C9    H76   S    
C4    O1    D    
C71   C75   A    
C26   H78   S    
C78   C81   A    
C14   C103  A    
C41   C95   A    
C77   H37   S    
C58   H22   S    
C92   N8    A    
N12   N28   A    
C76   H60   S    
N1    Ni1   S    
C27   H80   S    
C32   H23   S    
C29   H3    S    
N9    N10   A    
C5    C50   S    
C33   C44   S    
C24   C34   S    
N8    Ni3   S    
N26   Ni3   S    
C18   C54   A    
N7    N8    A    
C98   H62   S    
N18   N24   A    
C26   C35   S    
C72   H32   S    
C32   C95   A    
C82   N32   A    
C66   C70   A    
C28   C36   S    
C33   H11   S    
C1    C93   A    
N5    N6    A    
C83   C97   A    
C11   C41   S    
C29   C37   S    
C64   H29   S    
N11   N13   A    
C5    O2    D    
C43   H34   S    
N21   Ni7   S    
N13   Ni4   S    
C74   C88   A    
C60   H25   S    
N15   Ni6   S    
N20   Ni8   S    
C76   N20   A    
C84   H42   S    
C15   C88   S    
C83   H41   S    
C1    N1    A    
