data_mof_unit_25409.cif
_audit_creation_date              2013-03-05T16:11:15-0500
_audit_creation_method            fapswitch 2.2
_symmetry_space_group_name_H-M    P1
_symmetry_Int_Tables_number       1
_space_group_crystal_system       triclinic
_cell_length_a                    6.946121
_cell_length_b                    20.519132
_cell_length_c                    24.544446
_cell_angle_alpha                 89.983014
_cell_angle_beta                  89.817162
_cell_angle_gamma                 88.825916
_cell_volume                      3497.52761943

loop_
_atom_site_label
_atom_site_type_symbol
_atom_site_description
_atom_site_fract_x
_atom_site_fract_y
_atom_site_fract_z
_atom_type_partial_charge
O1    O     O_R   0.507280 0.423750 0.460310 -0.599746
O2    O     O_R   0.171030 0.555650 0.437630 -0.589860
O3    O     O_R   0.004080 0.576250 0.539690 -0.590967
C1    C     C_R   0.339187 0.575650 0.421766 1.003215
O4    O     O_R   0.177330 0.422980 0.453960 -0.598645
O5    O     O_R   0.010420 0.442640 0.556140 -0.591648
C2    C     C_R   0.348124 0.399002 0.443686 1.029021
O6    O     O_R   0.500930 0.557360 0.443860 -0.589940
O7    O     O_3   0.340310 0.506600 0.533500 -0.277871
V1    V     V_3+5 0.064140 0.498780 0.493780 1.160139
O8    O     O_R   0.680890 0.444350 0.562370 -0.593024
C3    C     C_R   0.850524 0.424366 0.578166 0.980308
O9    O     O_R   0.674590 0.577020 0.546040 -0.591641
C4    C     C_R   0.840924 0.600987 0.556990 0.923237
V2    V     V_3+5 0.564550 0.501220 0.506220 1.160375
O10   O     O_3   0.838250 0.493400 0.466500 -0.275951
C5    C     C_R   0.984629 0.838081 0.910567 -0.150367
C6    C     C_R   0.836004 0.661575 0.589857 -0.114987
C7    C     C_R   0.117613 0.729152 0.898543 -0.205083
C8    C     C_R   0.086309 0.783978 0.930864 -0.148976
C9    C     C_R   0.909703 0.836000 0.857307 -0.229155
C10   C     C_R   0.933114 0.779287 0.823893 0.125084
C11   C     C_R   0.046965 0.727002 0.845125 0.178712
C12   C     C_R   0.858324 0.773767 0.769309 -0.145684
C13   C     C_R   0.921110 0.720063 0.735242 0.005559
C14   C     C_R   0.040621 0.671141 0.758371 -0.155465
C15   C     C_R   0.096775 0.673721 0.812466 -0.250279
C16   C     C_R   0.718222 0.818234 0.747789 0.600306
C17   C     C_R   0.672672 0.817091 0.692576 -0.384542
C18   C     C_R   0.741759 0.767633 0.658419 0.104832
C19   C     C_R   0.860144 0.716480 0.679354 0.109298
C20   C     C_R   0.681801 0.767125 0.603935 -0.130335
C21   C     C_R   0.727265 0.714555 0.570269 -0.159610
C22   C     C_R   0.906187 0.663103 0.643707 -0.227391
H1    H     H_    0.186487 0.634329 0.828441 0.132648
H2    H     H_    0.985226 0.620434 0.657276 0.104454
H3    H     H_    0.669856 0.713861 0.529269 0.110939
H4    H     H_    0.571882 0.853601 0.677041 0.168795
H5    H     H_    0.202760 0.688879 0.914903 0.123086
H6    H     H_    0.147874 0.785143 0.971358 0.118094
H7    H     H_    0.848709 0.880931 0.841832 0.182921
H8    H     H_    0.093359 0.629553 0.735691 0.126111
H9    H     H_    0.591766 0.806365 0.587886 0.115643
H10   H     H_    0.619225 0.202300 0.790678 0.120512
C23   C     C_R   0.729907 0.267498 0.729899 -0.180397
H11   H     H_    0.587935 0.280579 0.714797 0.118300
C24   C     C_R   0.894140 0.294931 0.706416 0.184779
C25   C     C_R   0.076457 0.277015 0.726778 -0.179225
H12   H     H_    0.204999 0.297560 0.709225 0.118956
C26   C     C_R   0.094316 0.232362 0.770003 -0.178317
H13   H     H_    0.236287 0.219282 0.785107 0.118762
C27   C     C_R   0.930082 0.204933 0.793489 0.183655
C28   C     C_R   0.747766 0.222845 0.773124 -0.174639
C29   C     C_1   0.876117 0.340985 0.661429 -0.032639
C30   C     C_1   0.948102 0.158895 0.838486 -0.027738
C31   C     C_1   0.961290 0.120698 0.876261 -0.286924
C32   C     C_1   0.862932 0.379197 0.623664 -0.294683
H14   H     H_    0.699484 0.700822 0.294942 0.119503
C33   C     C_R   0.596712 0.766898 0.232743 -0.184521
H15   H     H_    0.740695 0.778909 0.219572 0.116431
C34   C     C_R   0.435699 0.795576 0.206985 0.187094
C35   C     C_R   0.250766 0.778930 0.225025 -0.181567
H16   H     H_    0.124423 0.800390 0.205788 0.117448
C36   C     C_R   0.227184 0.734324 0.268007 -0.179572
H17   H     H_    0.083193 0.722300 0.281156 0.117756
C37   C     C_R   0.388198 0.705548 0.293706 0.184184
C38   C     C_R   0.573131 0.722293 0.275723 -0.177528
C39   C     C_1   0.459254 0.841376 0.161931 -0.041791
C40   C     C_1   0.364670 0.659354 0.338505 -0.031698
C41   C     C_1   0.349343 0.621020 0.376174 -0.287194
C42   C     C_1   0.474687 0.879326 0.124015 -0.309628
C43   C     C_R   0.454309 0.161277 0.089260 -0.148721
C44   C     C_R   0.363667 0.339069 0.411015 -0.258152
C45   C     C_R   0.315396 0.270125 0.093708 -0.185313
C46   C     C_R   0.357784 0.213810 0.064616 -0.173006
C47   C     C_R   0.506915 0.165022 0.145066 -0.091853
C48   C     C_R   0.436217 0.218979 0.177457 0.022382
C49   C     C_R   0.351597 0.273067 0.149626 0.194648
C50   C     C_R   0.437222 0.220796 0.236121 0.057178
C51   C     C_R   0.391490 0.280393 0.264348 0.086560
C52   C     C_R   0.318476 0.333426 0.233793 -0.168335
C53   C     C_R   0.296441 0.329344 0.177860 -0.275770
C54   C     C_R   0.456614 0.163453 0.267417 -0.205171
C55   C     C_R   0.442037 0.164481 0.323788 -0.194041
C56   C     C_R   0.413443 0.222989 0.351735 0.137731
C57   C     C_R   0.398819 0.282746 0.322781 -0.079784
C58   C     C_R   0.395119 0.221715 0.408619 -0.164213
C59   C     C_R   0.365027 0.279096 0.437758 -0.256162
C60   C     C_R   0.390962 0.341787 0.354057 0.508049
H18   H     H_    0.231163 0.370445 0.156545 0.139162
H19   H     H_    0.348913 0.276896 0.481645 0.137594
H20   H     H_    0.450852 0.118655 0.345738 0.126140
H21   H     H_    0.246003 0.310711 0.072749 0.120619
H22   H     H_    0.317348 0.211494 0.022047 0.119735
H23   H     H_    0.259659 0.376885 0.252599 0.194789
H24   H     H_    0.464584 0.115936 0.249148 0.140025
H25   H     H_    0.401940 0.175941 0.430655 0.127054
O11   O     O_R   0.323320 0.942780 0.056240 -0.589383
O12   O     O_R   0.647300 0.077050 0.046060 -0.584651
O13   O     O_R   0.813840 0.057330 0.943840 -0.588382
C61   C     C_R   0.476212 0.101053 0.056633 0.937743
O14   O     O_R   0.653250 0.944380 0.062400 -0.588843
O15   O     O_R   0.819830 0.923720 0.960300 -0.585593
C62   C     C_R   0.485072 0.924336 0.078212 0.975968
O16   O     O_R   0.317330 0.076390 0.039790 -0.593366
O17   O     O_3   0.483830 0.993470 0.966560 -0.270191
V3    V     V_3+5 0.760140 0.001210 0.006210 1.172142
O18   O     O_R   0.149290 0.922840 0.953850 -0.596075
C63   C     C_R   0.982672 0.898989 0.942919 0.930041
O19   O     O_R   0.143340 0.055500 0.937510 -0.592938
C64   C     C_R   0.973714 0.075548 0.921769 0.979759
V4    V     V_3+5 0.259690 0.998600 0.993650 1.164843
O20   O     O_3   0.986130 0.006520 0.033440 -0.266216
O21   O     O_3   0.418148 0.402265 0.330666 -0.659452
C65   C     C_3   0.617306 0.410723 0.322603 -0.243515
H26   H     H_    0.677250 0.375249 0.292429 0.143593
H27   H     H_    0.698151 0.406832 0.361605 0.158738
H28   H     H_    0.639425 0.460354 0.306111 0.173306
C66   C     C_R   0.660254 0.119608 0.165107 0.110638
C67   C     C_R   0.841627 0.143980 0.178496 -0.094997
C68   C     C_R   0.990516 0.101527 0.194779 -0.112894
C69   C     C_R   0.959312 0.034608 0.198265 -0.098975
C70   C     C_R   0.778773 0.009997 0.185586 -0.066006
C71   C     C_R   0.629677 0.052194 0.168866 -0.156296
H29   H     H_    0.868479 0.195685 0.175485 0.114214
H30   H     H_    0.130313 0.120470 0.204417 0.116668
H31   H     H_    0.075014 0.001848 0.210807 0.100529
H32   H     H_    0.754659 0.958185 0.188561 0.106377
H33   H     H_    0.490225 0.032626 0.159249 0.074910
O22   O     O_3   0.615359 0.861698 0.780153 -0.636112
C72   C     C_3   0.454034 0.829638 0.801640 -0.210541
H34   H     H_    0.498099 0.787292 0.827440 0.141455
H35   H     H_    0.355765 0.813689 0.768684 0.142348
H36   H     H_    0.371846 0.864318 0.827964 0.179083

loop_
_geom_bond_atom_site_label_1
_geom_bond_atom_site_label_2
_geom_bond_distance
_ccdc_geom_bond_type
C13   C19   1.439253 A    
C18   C20   1.402004 A    
C58   C59   1.389580 A    
C4    C6    1.481941 S    
O2    C1    1.304218 A    
C7    C8    1.389828 A    
C1    O6    1.297544 A    
C72   H36   1.109511 S    
C1    C41   1.457898 S    
O21   C65   1.411057 S    
C70   C71   1.398708 A    
C2    C44   1.470258 S    
O17   V4    1.692291 S    
C66   C71   1.406745 A    
C67   C68   1.397707 A    
C14   C15   1.386380 A    
C17   C18   1.393214 A    
C16   C17   1.392904 A    
O5    C3    1.295967 A    
C18   C19   1.417368 A    
C52   H23   1.076694 S    
C37   C40   1.462448 S    
C43   C61   1.477719 S    
C65   H26   1.112486 S    
C5    C8    1.396150 A    
O18   C63   1.294695 A    
C23   C24   1.404415 A    
C69   H31   1.082517 S    
O19   C64   1.299884 A    
V3    O20   1.713603 S    
C51   C57   1.436128 A    
C33   C38   1.407792 A    
O8    V2    1.970182 S    
H10   C28   1.083236 S    
C24   C25   1.404820 A    
C65   H27   1.113396 S    
C42   C62   1.457273 S    
C17   H4    1.084808 S    
C26   C27   1.404411 A    
O1    V2    1.996177 S    
C11   C15   1.393115 A    
C16   O22   1.381161 S    
O7    V1    2.163503 S    
C31   C64   1.452609 S    
C35   C36   1.407821 A    
C27   C30   1.457145 S    
C43   C47   1.421247 A    
C56   C58   1.401866 A    
C37   C38   1.406189 A    
C23   C28   1.405728 A    
C33   H15   1.083269 S    
O9    C4    1.293958 A    
C45   H21   1.084147 S    
C34   C35   1.406096 A    
C43   C46   1.396393 A    
V4    O20   2.136935 S    
C52   C53   1.384592 A    
C47   C48   1.440404 A    
C48   C50   1.440395 A    
C61   O16   1.292629 A    
C33   C34   1.405042 A    
C47   C66   1.485667 S    
O11   V4    1.962093 S    
C45   C46   1.384580 A    
C12   C13   1.442965 A    
O4    C2    1.298981 A    
C67   H29   1.083439 S    
C15   H1    1.084484 S    
C13   C14   1.409822 A    
C48   C49   1.421003 A    
C21   H3    1.083830 S    
O18   V4    2.003352 S    
C36   C37   1.405210 A    
C7    C11   1.402422 A    
C44   C59   1.394413 A    
C35   H16   1.083370 S    
C49   C53   1.393236 A    
C54   C55   1.387108 A    
C59   H19   1.083651 S    
C66   C67   1.404933 A    
C65   H28   1.109212 S    
C30   C31   1.216345 T    
C26   H13   1.083226 S    
C68   C69   1.397055 A    
C19   C22   1.432424 A    
O14   V3    1.959874 S    
C55   C56   1.393224 A    
O14   C62   1.304277 A    
C6    C22   1.410794 A    
C56   C57   1.419040 A    
O3    C4    1.302231 A    
C7    H5    1.084070 S    
C24   C29   1.457160 S    
C9    H7    1.076362 S    
C3    C32   1.452660 S    
C25   H12   1.083236 S    
O12   C61   1.302434 A    
O16   V4    2.005187 S    
O6    V2    1.961475 S    
O9    V2    2.003240 S    
C45   C49   1.397645 A    
C10   C12   1.443797 A    
C72   H34   1.113410 S    
O2    V1    1.959682 S    
C27   C28   1.404817 A    
C14   H8    1.076299 S    
C60   O21   1.383389 S    
O13   V3    1.954876 S    
O1    C2    1.293263 A    
C8    H6    1.083703 S    
C12   C16   1.423095 A    
C51   C52   1.408236 A    
C72   H35   1.113622 S    
C57   C60   1.434398 A    
C5    C63   1.480706 S    
O5    V1    1.954953 S    
O8    C3    1.299952 A    
O12   V3    1.984618 S    
C53   H18   1.084494 S    
O15   C63   1.300949 A    
C20   C21   1.389598 A    
O22   C72   1.411682 S    
O7    V2    1.694984 S    
C44   C60   1.411428 A    
C68   H30   1.080264 S    
O3    V1    1.985338 S    
V1    O10   1.713566 S    
C36   H17   1.083231 S    
C50   C54   1.409351 A    
C34   C39   1.461950 S    
C70   H32   1.082039 S    
C39   C42   1.219138 T    
O11   C62   1.297203 A    
C54   H24   1.073628 S    
C25   C26   1.405725 A    
C20   H9    1.084123 S    
C71   H33   1.082898 S    
C22   H2    1.077120 S    
C40   C41   1.219521 T    
C6    C21   1.397068 A    
O19   V4    1.970396 S    
C50   C51   1.435098 A    
C23   H11   1.083225 S    
H14   C38   1.083311 S    
O4    V1    1.984536 S    
O13   C64   1.295942 A    
O17   V3    2.163438 S    
C10   C11   1.419694 A    
O15   V3    1.985175 S    
C55   H20   1.084324 S    
C69   C70   1.397516 A    
C9    C10   1.430119 A    
V2    O10   2.136896 S    
C46   H22   1.084077 S    
C58   H25   1.083961 S    
C29   C32   1.216362 T    
C5    C9    1.409542 A    
