data_mof_unit_65008.cif
_audit_creation_date              2012-12-10T17:39:04-0500
_audit_creation_method            fapswitch 2.2
_symmetry_space_group_name_H-M    P1
_symmetry_Int_Tables_number       1
_space_group_crystal_system       triclinic
_cell_length_a                    25.570385
_cell_length_b                    34.45384
_cell_length_c                    21.438833
_cell_angle_alpha                 90.000621
_cell_angle_beta                  126.464451
_cell_angle_gamma                 89.999575
_cell_volume                      15189.8687643

loop_
_atom_site_label
_atom_site_type_symbol
_atom_type_description
_atom_site_fract_x
_atom_site_fract_y
_atom_site_fract_z
_atom_type_partial_charge
Br1   Br    Br    0.921467 0.387450 0.054406 -0.256389
Br2   Br    Br    0.229080 0.837029 0.043744 -0.232899
Br3   Br    Br    0.228924 0.162924 0.043400 -0.232621
Br4   Br    Br    0.771097 0.837084 0.956650 -0.232631
Br5   Br    Br    0.271042 0.662912 0.956351 -0.164232
Br6   Br    Br    0.728906 0.337104 0.043535 -0.164067
Br7   Br    Br    0.728783 0.662857 0.043256 -0.163807
Br8   Br    Br    0.271196 0.337135 0.956693 -0.163776
Br9   Br    Br    0.879336 0.273379 0.173005 -0.227935
Br10  Br    Br    0.120649 0.726679 0.826962 -0.225792
Br11  Br    Br    0.120686 0.273488 0.827059 -0.226826
Br12  Br    Br    0.078533 0.612550 0.945595 -0.256263
Br13  Br    Br    0.879308 0.726488 0.172928 -0.227814
Br14  Br    Br    0.379351 0.773258 0.173011 -0.216324
Br15  Br    Br    0.620664 0.226684 0.827021 -0.218415
Br16  Br    Br    0.620693 0.773449 0.827098 -0.218311
Br17  Br    Br    0.379314 0.226575 0.172914 -0.217337
Br18  Br    Br    0.078535 0.387448 0.945597 -0.256363
Br19  Br    Br    0.921465 0.612552 0.054404 -0.256397
Br20  Br    Br    0.421997 0.887419 0.055101 -0.258451
Br21  Br    Br    0.578004 0.112581 0.944900 -0.258587
Br22  Br    Br    0.578006 0.887417 0.944901 -0.258581
Br23  Br    Br    0.421994 0.112583 0.055098 -0.258547
Br24  Br    Br    0.770973 0.162955 0.956371 -0.232755
C1    C     C_R   0.858572 0.749965 0.999982 0.958659
C2    C     C_3   0.741023 0.275613 0.947957 0.645011
C3    C     C_R   0.646345 0.283504 0.461619 0.727512
C4    C     C_R   0.146855 0.215804 0.461623 0.734585
C5    C     C_R   0.853948 0.783089 0.538390 0.734334
C6    C     C_R   0.853599 0.216424 0.538383 0.734436
C7    C     C_R   0.146718 0.784010 0.461620 0.734555
C8    C     C_R   0.687423 0.716934 0.542380 -0.243369
C9    C     C_R   0.311780 0.284150 0.457612 -0.243411
C10   C     C_R   0.311916 0.716031 0.457614 -0.243360
C11   C     C_R   0.687769 0.283542 0.542385 -0.243428
C12   C     C_R   0.188274 0.215782 0.542386 -0.242066
C13   C     C_3   0.740981 0.724429 0.947873 0.644928
C14   C     C_R   0.812526 0.783132 0.457622 -0.242100
C15   C     C_R   0.812178 0.216390 0.457617 -0.242129
C16   C     C_R   0.188138 0.784037 0.542384 -0.242024
C17   C     C_R   0.979932 0.081508 0.932355 0.656623
C18   C     C_R   0.020069 0.918492 0.067646 0.656689
C19   C     C_R   0.020069 0.081509 0.067645 0.656702
C20   C     C_R   0.979932 0.918491 0.932356 0.656554
C21   C     C_R   0.463300 0.581532 0.018536 0.651977
C22   C     C_R   0.536699 0.418468 0.981463 0.652130
C23   C     C_R   0.536697 0.581532 0.981461 0.652075
C24   C     C_3   0.259011 0.275579 0.052111 0.644925
C25   C     C_R   0.463300 0.418468 0.018536 0.652032
C26   C     C_R   0.000000 0.101749 0.000000 -0.362432
C27   C     C_R   0.000000 0.898251 0.000001 -0.362375
C28   C     C_R   0.499999 0.601761 0.999999 -0.372399
C29   C     C_R   0.500000 0.398239 0.000000 -0.372405
C30   C     C_R   0.020164 0.040867 0.068212 -0.217611
C31   C     C_R   0.979838 0.959133 0.931789 -0.217475
C32   C     C_R   0.979838 0.040866 0.931789 -0.217527
C33   C     C_R   0.020164 0.959134 0.068213 -0.217600
C34   C     C_R   0.537001 0.540877 0.981259 -0.226876
C35   C     C_3   0.758985 0.224437 0.052075 0.646669
C36   C     C_R   0.462996 0.459123 0.018737 -0.226849
C37   C     C_R   0.462997 0.540878 0.018738 -0.226847
C38   C     C_R   0.537002 0.459122 0.981260 -0.226888
C39   C     C_R   0.000001 0.020448 0.000001 -0.163950
C40   C     C_R   0.000001 0.979552 0.000001 -0.163949
C41   C     C_R   0.499999 0.520453 0.999998 -0.167796
C42   C     C_R   0.499999 0.479546 0.999999 -0.167804
C43   C     C_R   0.040125 0.020189 0.135574 0.633835
C44   C     C_R   0.959877 0.979811 0.864428 0.633738
C45   C     C_R   0.959877 0.020187 0.864428 0.633786
C46   C     C_3   0.241032 0.775581 0.947960 0.646625
C47   C     C_R   0.040125 0.979813 0.135574 0.633819
C48   C     C_R   0.573619 0.520192 0.962897 0.633733
C49   C     C_R   0.426378 0.479808 0.037099 0.633696
C50   C     C_R   0.426378 0.520194 0.037099 0.633666
C51   C     C_R   0.573619 0.479806 0.962897 0.633752
C52   C     C_R   0.000000 0.855775 0.000000 0.910749
C53   C     C_R   0.000000 0.144225 1.000000 0.910757
C54   C     C_R   0.500000 0.355770 0.000000 0.907439
C55   C     C_R   0.500000 0.644230 0.999999 0.907424
C56   C     C_R   1.000000 0.644345 0.000000 0.886676
C57   C     C_3   0.240981 0.224471 0.947857 0.646618
C58   C     C_R   0.000000 0.355655 1.000000 0.886662
C59   C     C_R   0.500000 0.144346 0.000000 0.889087
C60   C     C_R   0.500000 0.855654 1.000000 0.889100
C61   C     C_R   0.963243 0.417837 0.018882 0.282437
C62   C     C_R   0.036757 0.582163 0.981118 0.282453
C63   C     C_R   0.036758 0.417836 0.981119 0.282439
C64   C     C_R   0.963242 0.582163 0.018882 0.282443
C65   C     C_R   0.463501 0.917832 0.019257 0.282785
C66   C     C_R   0.536498 0.082168 0.980742 0.282764
C67   C     C_R   0.536499 0.917831 0.980743 0.282771
C68   C     C_3   0.759027 0.775521 0.052159 0.646621
C69   C     C_R   0.463500 0.082169 0.019256 0.282770
C70   C     C_R   0.000000 0.397940 0.000000 -0.216636
C71   C     C_R   1.000000 0.602060 0.000000 -0.216637
C72   C     C_R   0.500000 0.897938 1.000000 -0.216757
C73   C     C_R   0.500000 0.102062 1.000000 -0.216756
C74   C     C_R   0.039151 0.458792 0.984181 -0.154067
C75   C     C_R   0.960849 0.541208 0.015820 -0.154057
C76   C     C_R   0.960850 0.458793 0.015820 -0.154064
C77   C     C_R   0.039150 0.541207 0.984180 -0.154075
C78   C     C_R   0.538861 0.958790 0.983735 -0.150446
C79   C     C_3   0.758157 0.214446 0.981503 0.112627
C80   C     C_R   0.461138 0.041210 0.016263 -0.150456
C81   C     C_R   0.461138 0.958790 0.016263 -0.150460
C82   C     C_R   0.538861 0.041210 0.983735 -0.150450
C83   C     C_R   0.000000 0.479360 0.000000 -0.127895
C84   C     C_R   1.000000 0.520640 0.000000 -0.127893
C85   C     C_R   0.500000 0.979358 0.999999 -0.127974
C86   C     C_R   0.499999 0.020642 0.999999 -0.127975
C87   C     C_R   0.079744 0.479897 0.972346 0.609053
C88   C     C_R   0.920256 0.520103 0.027654 0.609059
C89   C     C_R   0.920256 0.479898 0.027654 0.609064
C90   C     C_3   0.241865 0.785548 0.018544 0.112386
C91   C     C_R   0.079744 0.520102 0.972347 0.609056
C92   C     C_R   0.579140 0.979897 0.971394 0.606933
C93   C     C_R   0.420859 0.020103 0.028604 0.606926
C94   C     C_R   0.420859 0.979898 0.028604 0.606923
C95   C     C_R   0.579140 0.020102 0.971394 0.606934
C96   C     C_3   0.241800 0.214433 0.018405 0.112598
C97   C     C_R   0.141427 0.250035 0.000017 0.958782
C98   C     C_3   0.758210 0.785570 0.981616 0.112698
C99   C     C_3   0.258137 0.714400 0.981429 0.111908
C100  C     C_3   0.741841 0.285606 0.018524 0.112147
C101  C     C_3   0.741789 0.714378 0.018411 0.112190
C102  C     C_3   0.258201 0.285619 0.981568 0.112088
C103  C     C_3   0.801500 0.250034 0.999922 -0.422577
C104  C     C_3   0.198500 0.749965 0.000076 -0.422696
C105  C     C_3   0.198502 0.250032 0.000082 -0.422662
C106  C     C_3   0.801497 0.749968 0.999917 -0.422571
C107  C     C_3   0.301492 0.749989 0.999891 -0.427844
C108  C     C_R   0.141426 0.749963 0.000013 0.958813
C109  C     C_3   0.698509 0.250011 0.000110 -0.427721
C110  C     C_3   0.698511 0.749986 0.000116 -0.427735
C111  C     C_3   0.301489 0.250013 0.999886 -0.427834
C112  C     C_3   0.802695 0.259903 0.070744 0.105368
C113  C     C_3   0.197299 0.740121 0.929242 0.105444
C114  C     C_3   0.197316 0.259948 0.929284 0.105378
C115  C     C_3   0.802682 0.740042 0.070710 0.105327
C116  C     C_3   0.302695 0.759826 0.070726 0.113479
C117  C     C_3   0.697311 0.240150 0.929288 0.113405
C118  C     C_3   0.697324 0.759905 0.929322 0.113366
C119  C     C_R   0.858574 0.250037 0.999986 0.958682
C120  C     C_3   0.302678 0.240105 0.070684 0.113419
C121  C     C_R   0.709321 0.766861 0.337015 -0.234595
C122  C     C_R   0.291069 0.232627 0.662975 -0.234357
C123  C     C_R   0.291004 0.767290 0.662976 -0.234376
C124  C     C_R   0.709151 0.232914 0.337018 -0.234515
C125  C     C_R   0.208964 0.267333 0.337023 -0.234209
C126  C     C_R   0.790647 0.733178 0.662987 -0.234285
C127  C     C_R   0.790816 0.267046 0.662983 -0.234273
C128  C     C_R   0.209030 0.732750 0.337021 -0.234203
C129  C     C_R   0.647289 0.750270 0.296765 -0.207543
C130  C     C_R   0.358566 0.249978 0.999966 0.959805
C131  C     C_R   0.352710 0.249751 0.703227 -0.207781
C132  C     C_R   0.352710 0.750253 0.703228 -0.207747
C133  C     C_R   0.647289 0.249739 0.296768 -0.207644
C134  C     C_R   0.147317 0.250219 0.296772 -0.208018
C135  C     C_R   0.852685 0.749759 0.703236 -0.207619
C136  C     C_R   0.852685 0.250231 0.703233 -0.207790
C137  C     C_R   0.147316 0.749777 0.296771 -0.207958
C138  C     C_R   0.625660 0.733760 0.337836 0.676548
C139  C     C_R   0.373945 0.266801 0.662143 0.676581
C140  C     C_R   0.374011 0.733291 0.662146 0.676584
C141  C     C_R   0.641434 0.750021 0.000035 0.959665
C142  C     C_R   0.625831 0.266485 0.337846 0.676558
C143  C     C_R   0.126098 0.233147 0.337857 0.688685
C144  C     C_R   0.874300 0.766290 0.662164 0.688453
C145  C     C_R   0.874128 0.233463 0.662154 0.688552
C146  C     C_R   0.126032 0.766761 0.337853 0.688656
C147  C     C_R   0.666384 0.733469 0.419191 -0.173929
C148  C     C_R   0.333214 0.267092 0.580797 -0.173984
C149  C     C_R   0.333282 0.733001 0.580799 -0.173980
C150  C     C_R   0.666558 0.266777 0.419197 -0.173948
C151  C     C_R   0.166839 0.232842 0.419202 -0.176714
C152  C     C_R   0.641432 0.249977 0.000031 0.959691
C153  C     C_R   0.833567 0.766594 0.580811 -0.176455
C154  C     C_R   0.833391 0.233158 0.580804 -0.176560
C155  C     C_R   0.166770 0.767064 0.419199 -0.176680
C156  C     C_R   0.729155 0.750072 0.459214 -0.048118
C157  C     C_R   0.270845 0.249936 0.540782 -0.048042
C158  C     C_R   0.270845 0.750066 0.540783 -0.048053
C159  C     C_R   0.729155 0.249931 0.459216 -0.048085
C160  C     C_R   0.229208 0.249999 0.459216 -0.048848
C161  C     C_R   0.770795 0.749992 0.540788 -0.048907
C162  C     C_R   0.770794 0.250004 0.540786 -0.048882
C163  C     C_R   0.358568 0.750023 0.999970 0.959848
C164  C     C_R   0.229207 0.749999 0.459215 -0.048856
C165  C     C_R   0.750392 0.766800 0.417787 0.047119
C166  C     C_R   0.250007 0.232670 0.582211 0.046902
C167  C     C_R   0.249940 0.767243 0.582211 0.046928
C168  C     C_R   0.750218 0.232967 0.417787 0.047039
C169  C     C_R   0.250040 0.267271 0.417787 0.048293
C170  C     C_R   0.749563 0.733258 0.582215 0.048437
C171  C     C_R   0.749735 0.266974 0.582215 0.048387
C172  C     C_R   0.250107 0.732817 0.417787 0.048310
C173  C     C_R   0.105505 0.749838 0.211738 0.867487
C174  C     C_3   0.258960 0.724369 0.052009 0.644968
C175  C     C_R   0.894496 0.250165 0.788263 0.867574
C176  C     C_R   0.894498 0.749832 0.788265 0.867663
C177  C     C_R   0.105506 0.250161 0.211738 0.867424
C178  C     C_R   0.605497 0.249829 0.211737 0.861953
C179  C     C_R   0.394501 0.750169 0.788262 0.861871
C180  C     C_R   0.394501 0.249832 0.788261 0.861808
C181  C     C_R   0.605496 0.750174 0.211735 0.862042
C182  C     C_R   0.645997 0.716981 0.461612 0.727492
C183  C     C_R   0.353203 0.284122 0.538375 0.727561
C184  C     C_R   0.353339 0.716063 0.538378 0.727560
F1    F     F_    0.959100 0.101570 0.866736 -0.537267
F2    F     F_    0.940315 0.961172 0.797977 -0.502349
F3    F     F_    0.940315 0.038826 0.797977 -0.502257
F4    F     F_    0.059686 0.961174 0.202024 -0.502111
F5    F     F_    0.609666 0.538839 0.944618 -0.487648
F6    F     F_    0.390330 0.461161 0.055376 -0.487711
F7    F     F_    0.390331 0.538841 0.055378 -0.487731
F8    F     F_    0.609666 0.461159 0.944619 -0.487629
F9    F     F_    0.122478 0.462373 0.963591 -0.515170
F10   F     F_    0.877522 0.537627 0.036409 -0.515163
F11   F     F_    0.877522 0.462374 0.036408 -0.515155
F12   F     F_    0.040900 0.898430 0.133265 -0.537089
F13   F     F_    0.122478 0.537625 0.963592 -0.515162
F14   F     F_    0.621544 0.962377 0.962072 -0.525123
F15   F     F_    0.378454 0.037622 0.037925 -0.525138
F16   F     F_    0.378454 0.962379 0.037924 -0.525133
F17   F     F_    0.621544 0.037621 0.962074 -0.525119
F18   F     F_    0.267802 0.697831 0.105922 -0.531633
F19   F     F_    0.732161 0.302133 0.894006 -0.531652
F20   F     F_    0.732069 0.697955 0.893829 -0.531726
F21   F     F_    0.267912 0.302062 0.106137 -0.531699
F22   F     F_    0.767849 0.197916 0.106025 -0.534807
F23   F     F_    0.040900 0.101571 0.133264 -0.537027
F24   F     F_    0.232188 0.802120 0.894047 -0.534787
F25   F     F_    0.232078 0.197987 0.893832 -0.534833
F26   F     F_    0.767942 0.801996 0.106203 -0.534852
F27   F     F_    0.564756 0.718596 0.298592 -0.540552
F28   F     F_    0.434465 0.282523 0.701350 -0.540312
F29   F     F_    0.434594 0.717658 0.701360 -0.540350
F30   F     F_    0.565092 0.281893 0.298619 -0.540452
F31   F     F_    0.065581 0.217420 0.298652 -0.532700
F32   F     F_    0.935200 0.781459 0.701406 -0.533309
F33   F     F_    0.934864 0.218051 0.701379 -0.533048
F34   F     F_    0.959101 0.898429 0.866737 -0.537448
F35   F     F_    0.065452 0.782399 0.298642 -0.532798
F36   F     F_    0.586189 0.700762 0.425573 -0.539920
F37   F     F_    0.412614 0.300891 0.574405 -0.539879
F38   F     F_    0.412820 0.699388 0.574410 -0.539870
F39   F     F_    0.586709 0.299965 0.425585 -0.539915
F40   F     F_    0.087448 0.199029 0.425593 -0.533705
F41   F     F_    0.913752 0.799314 0.574429 -0.534028
F42   F     F_    0.913230 0.199957 0.574417 -0.533902
F43   F     F_    0.087242 0.800692 0.425588 -0.533739
F44   F     F_    0.426767 0.601635 0.034512 -0.530276
F45   F     F_    0.573234 0.398365 0.965489 -0.530151
F46   F     F_    0.573231 0.601634 0.965485 -0.530194
F47   F     F_    0.426766 0.398366 0.034511 -0.530239
F48   F     F_    0.059686 0.038828 0.202024 -0.502077
H1    H     H_    0.726033 0.779500 0.305388 0.212672
H2    H     H_    0.328105 0.297431 0.426107 0.205973
H3    H     H_    0.328296 0.702821 0.426110 0.206003
H4    H     H_    0.671268 0.296588 0.573889 0.205998
H5    H     H_    0.171948 0.202501 0.573891 0.206757
H6    H     H_    0.829165 0.795992 0.426121 0.206791
H7    H     H_    0.828680 0.203345 0.426113 0.206752
H8    H     H_    0.171758 0.797246 0.573887 0.206782
H9    H     H_    0.274650 0.219563 0.694585 0.212940
H10   H     H_    0.274536 0.780286 0.694589 0.212888
H11   H     H_    0.725737 0.220089 0.305399 0.212774
H12   H     H_    0.225376 0.280406 0.305412 0.213003
H13   H     H_    0.773943 0.720530 0.694615 0.212745
H14   H     H_    0.774238 0.279880 0.694604 0.212844
H15   H     H_    0.225490 0.719745 0.305408 0.212951
H16   H     H_    0.670785 0.704073 0.573881 0.206054
O1    O     O_3   1.000000 0.749960 0.000000 -0.580443
O2    O     O_R   0.640190 0.772970 0.045820 -0.591867
O3    O     O_R   0.640190 0.227030 0.045820 -0.591840
O4    O     O_R   0.359810 0.772970 0.954180 -0.591823
O5    O     O_R   0.056680 0.772880 0.174890 -0.552341
O6    O     O_R   0.943320 0.227120 0.825110 -0.552487
O7    O     O_R   0.943320 0.772880 0.825110 -0.552633
O8    O     O_R   0.056680 0.227120 0.174890 -0.552296
O9    O     O_R   0.556680 0.272880 0.174890 -0.566172
O10   O     O_R   0.443320 0.727120 0.825110 -0.565962
O11   O     O_R   0.443320 0.272880 0.825110 -0.565897
O12   O     O_3   0.000000 0.250040 0.000000 -0.580451
O13   O     O_R   0.556680 0.727120 0.174890 -0.566378
O14   O     O_R   0.992160 0.837390 0.045890 -0.576975
O15   O     O_R   0.007840 0.162610 0.954110 -0.577082
O16   O     O_R   0.007840 0.837390 0.954110 -0.577170
O17   O     O_R   0.992160 0.162610 0.045890 -0.576940
O18   O     O_R   0.492160 0.337390 0.045890 -0.581636
O19   O     O_R   0.507840 0.662610 0.954110 -0.581465
O20   O     O_R   0.507840 0.337390 0.954110 -0.581431
O21   O     O_R   0.492160 0.662610 0.045890 -0.581743
O22   O     O_R   0.946340 0.662530 0.954150 -0.604465
O23   O     O_3   0.500000 0.249960 0.000000 -0.578324
O24   O     O_R   0.053660 0.337470 0.045850 -0.604575
O25   O     O_R   0.053660 0.662530 0.045850 -0.604554
O26   O     O_R   0.946340 0.337470 0.954150 -0.604490
O27   O     O_R   0.446340 0.162530 0.954150 -0.604009
O28   O     O_R   0.553660 0.837470 0.045850 -0.603889
O29   O     O_R   0.553660 0.162530 0.045850 -0.603917
O30   O     O_R   0.446340 0.837470 0.954150 -0.603988
O31   O     O_R   0.118180 0.727030 0.174870 -0.647694
O32   O     O_R   0.881820 0.272970 0.825130 -0.647626
O33   O     O_R   0.881820 0.727030 0.825130 -0.647550
O34   O     O_3   0.500000 0.750040 0.000000 -0.578309
O35   O     O_R   0.118180 0.272970 0.174870 -0.647707
O36   O     O_R   0.618180 0.227030 0.174870 -0.644875
O37   O     O_R   0.381820 0.772970 0.825130 -0.644973
O38   O     O_R   0.381820 0.227030 0.825130 -0.644998
O39   O     O_R   0.618180 0.772970 0.174870 -0.644767
O40   O     O_R   0.905650 0.772880 0.045890 -0.593374
O41   O     O_R   0.094350 0.227120 0.954110 -0.593348
O42   O     O_R   0.094350 0.772880 0.954110 -0.593299
O43   O     O_R   0.905650 0.227120 0.045890 -0.593395
O44   O     O_R   0.405650 0.272880 0.045890 -0.583920
O45   O     O_R   0.859810 0.727030 0.954180 -0.590526
O46   O     O_R   0.594350 0.727120 0.954110 -0.583948
O47   O     O_R   0.594350 0.272880 0.954110 -0.583955
O48   O     O_R   0.405650 0.727120 0.045890 -0.583859
O49   O     O_R   0.140190 0.272970 0.045820 -0.590460
O50   O     O_R   0.140190 0.727030 0.045820 -0.590480
O51   O     O_R   0.859810 0.272970 0.954180 -0.590495
O52   O     O_R   0.359810 0.227030 0.954180 -0.591801
Zn1   Zn    Zn3+2 0.076680 0.717210 0.065490 1.068073
Zn2   Zn    Zn3+2 0.011180 0.217290 0.934470 1.125900
Zn3   Zn    Zn3+2 0.011180 0.782710 0.934470 1.125797
Zn4   Zn    Zn3+2 0.988820 0.217290 0.065530 1.125994
Zn5   Zn    Zn3+2 0.488820 0.282710 0.065530 1.118188
Zn6   Zn    Zn3+2 0.511180 0.717290 0.934470 1.118294
Zn7   Zn    Zn3+2 0.511180 0.282710 0.934470 1.118357
Zn8   Zn    Zn3+2 0.488820 0.717290 0.065530 1.118053
Zn9   Zn    Zn3+2 0.923320 0.282790 0.934510 1.068064
Zn10  Zn    Zn3+2 0.923320 0.717210 0.934510 1.068118
Zn11  Zn    Zn3+2 0.076680 0.282790 0.065490 1.068021
Zn12  Zn    Zn3+2 0.576680 0.217210 0.065490 1.068532
Zn13  Zn    Zn3+2 0.423320 0.782790 0.934510 1.068541
Zn14  Zn    Zn3+2 0.423320 0.217210 0.934510 1.068482
Zn15  Zn    Zn3+2 0.576680 0.782790 0.065490 1.068601
Zn16  Zn    Zn3+2 0.988820 0.782710 0.065530 1.125953

loop_
_geom_bond_atom_site_label_1
_geom_bond_atom_site_label_2
_ccdc_geom_bond_type
O19   Zn6   S    
C58   C70   S    
C99   C174  S    
C96   C120  S    
C1    O45   A    
C108  O50   A    
C25   C36   A    
C100  C109  S    
C22   C38   A    
Br13  C115  S    
C18   F12   S    
C14   H6    S    
C21   F44   S    
C25   F47   S    
O42   Zn3   S    
O50   Zn1   S    
C30   C39   A    
C160  C169  A    
C63   C70   A    
C183  F37   S    
O44   Zn5   S    
C24   C120  S    
O37   Zn13  S    
C108  O42   A    
O12   Zn11  S    
C116  C174  S    
C126  C170  A    
C139  F28   S    
C67   C72   A    
C138  C147  A    
Br22  C67   S    
C45   F3    S    
O16   Zn3   S    
O43   Zn4   S    
C121  C165  A    
C163  O4    A    
C48   F5    S    
C64   C71   A    
C5    C153  A    
O4    Zn13  S    
O12   Zn4   S    
C180  O38   A    
C134  C143  A    
C54   O18   A    
Br21  C66   S    
C57   C114  S    
C142  C150  A    
C13   C118  S    
C121  H1    S    
C103  C112  S    
C38   C42   A    
C155  C164  A    
C3    C11   A    
C17   C32   A    
C3    F39   S    
O30   Zn13  S    
C90   C104  S    
C157  C166  A    
C19   C30   A    
C1    O40   A    
C2    F19   S    
C176  O7    A    
O2    Zn15  S    
O48   Zn8   S    
C110  C141  S    
C7    F43   S    
C140  C149  A    
C103  C119  S    
C33   C47   A    
C147  C182  A    
C139  C148  A    
C60   O30   A    
C138  F27   S    
Br8   C102  S    
C135  C176  S    
C149  C158  A    
C77   C91   A    
C57   F25   S    
C24   C105  S    
C8    C182  A    
C179  O37   A    
C26   C53   S    
C80   C93   A    
C152  O47   A    
C58   O26   A    
C4    C151  A    
C23   C28   A    
C37   C50   A    
C142  F30   S    
Br12  C62   S    
C12   H5    S    
C65   C72   A    
C29   C54   S    
C55   O21   A    
C80   C86   A    
Br2   C90   S    
C20   C31   A    
C25   C29   A    
C22   C29   A    
O14   Zn16  S    
C184  F38   S    
C64   C75   A    
C62   C71   A    
C154  C162  A    
C37   C41   A    
C140  F29   S    
C88   F10   S    
C78   C85   A    
O36   Zn12  S    
C68   C115  S    
C174  F18   S    
C107  C163  S    
C9    C169  A    
C179  O10   A    
C130  O52   A    
C20   F34   S    
C43   F48   S    
C75   C84   A    
Br17  C120  S    
C12   C166  A    
C124  H11   S    
Br11  C114  S    
C156  C165  A    
C177  O8    A    
C175  O6    A    
C35   C112  S    
O33   Zn10  S    
O17   Zn4   S    
C125  C169  A    
C148  C157  A    
O15   Zn2   S    
C123  C167  A    
C5    C14   A    
C83   C84   A    
C107  C116  S    
C90   C116  S    
C28   C55   S    
C79   C103  S    
C125  C134  A    
C22   F45   S    
C128  C137  A    
C173  O5    A    
C143  F31   S    
C141  O46   A    
C52   O14   A    
C53   O15   A    
C48   C51   A    
C1    C106  S    
C79   C117  S    
C3    C150  A    
C136  C175  S    
C59   O29   A    
C128  C172  A    
C96   C105  S    
C146  F35   S    
C27   C52   S    
C23   F46   S    
C159  C162  A    
O22   Zn10  S    
C21   C28   A    
C131  C139  A    
Br23  C69   S    
C5    F41   S    
C122  H9    S    
C68   C98   S    
C34   C41   A    
O45   Zn10  S    
C6    C154  A    
C158  C164  A    
C56   C71   S    
C56   O25   A    
C129  C181  S    
C24   F21   S    
C97   O49   A    
Br14  C116  S    
C137  C146  A    
O39   Zn15  S    
C152  O3    A    
C69   C73   A    
O25   Zn1   S    
C81   C85   A    
C9    C183  A    
C11   H4    S    
C148  C183  A    
C68   C110  S    
C145  F33   S    
C19   C26   A    
Br20  C65   S    
C99   C113  S    
C180  O11   A    
C146  C155  A    
Br24  C79   S    
C35   C79   S    
O23   Zn12  S    
C93   C94   A    
O10   Zn6   S    
C6    C15   A    
C149  C184  A    
C2    C103  S    
C92   F14   S    
C104  C174  S    
C36   C42   A    
C39   C40   A    
C178  O9    A    
C32   C45   A    
C65   C81   A    
O27   Zn14  S    
C52   O16   A    
C87   F9    S    
C132  C179  S    
C59   O27   A    
C101  C110  S    
C124  C168  A    
O49   Zn11  S    
C50   F7    S    
C49   C50   A    
C161  C170  A    
C159  C168  A    
C31   C44   A    
C144  F32   S    
O8    Zn4   S    
C111  C130  S    
C143  C151  A    
C19   F23   S    
C82   C95   A    
C128  H15   S    
C144  C153  A    
C36   C49   A    
C153  C161  A    
C7    C16   A    
C4    F40   S    
C127  C171  A    
O31   Zn1   S    
Br15  C117  S    
C130  O44   A    
C122  C131  A    
C44   C45   A    
C136  C145  A    
O23   Zn7   S    
C141  O2    A    
C2    C117  S    
C66   C73   A    
C11   C171  A    
C63   C74   A    
C77   C84   A    
C44   F2    S    
C2    C100  S    
C123  H10   S    
O11   Zn7   S    
C106  C115  S    
C18   C33   A    
O34   Zn15  S    
C57   C111  S    
C100  C112  S    
C66   C82   A    
Br19  C64   S    
C126  C135  A    
C10   C184  A    
C94   F16   S    
C46   C90   S    
C74   C83   A    
C7    C155  A    
O32   Zn9   S    
O34   Zn8   S    
C110  C118  S    
C14   C165  A    
C62   C77   A    
O24   Zn11  S    
Br7   C101  S    
C123  C132  A    
C135  C144  A    
C8    H16   S    
C158  C167  A    
C17   C26   A    
C157  C160  A    
C99   C107  S    
C91   F13   S    
C182  F36   S    
O23   Zn14  S    
C97   C105  S    
C150  C159  A    
C127  H14   S    
C109  C117  S    
C137  C173  S    
C129  C138  A    
C119  O51   A    
C85   C86   A    
C15   C168  A    
C16   C167  A    
O47   Zn7   S    
C21   C37   A    
O1    Zn10  S    
O29   Zn12  S    
C43   C47   A    
O23   Zn5   S    
O3    Zn12  S    
C46   F24   S    
O18   Zn5   S    
C4    C12   A    
C46   C113  S    
C47   F4    S    
C59   C73   S    
C181  O13   A    
C58   O24   A    
C125  H12   S    
C119  O43   A    
O6    Zn2   S    
C38   C51   A    
O34   Zn13  S    
C55   O19   A    
C151  C160  A    
O1    Zn1   S    
O51   Zn9   S    
Br6   C100  S    
O28   Zn15  S    
O13   Zn8   S    
C175  O32   A    
C57   C96   S    
O34   Zn6   S    
C53   O17   A    
C97   O41   A    
C51   F8    S    
C13   C106  S    
C60   C72   S    
C105  C114  S    
C9    H2    S    
C69   C80   A    
Br10  C113  S    
O41   Zn2   S    
C18   C27   A    
C124  C133  A    
C121  C129  A    
C163  O48   A    
C176  O33   A    
C104  C108  S    
C126  H13   S    
C88   C89   A    
C181  O39   A    
O40   Zn16  S    
C13   C101  S    
C13   F20   S    
Br1   C61   S    
Br4   C98   S    
C177  O35   A    
O7    Zn3   S    
C162  C171  A    
C178  O36   A    
C8    C170  A    
C156  C161  A    
C30   C43   A    
C173  O31   A    
C24   C102  S    
C35   C109  S    
C6    F42   S    
Br16  C118  S    
C104  C113  S    
O20   Zn7   S    
C61   C70   A    
O5    Zn16  S    
C31   C40   A    
C32   C39   A    
O12   Zn9   S    
C132  C140  A    
C81   C94   A    
C20   C27   A    
C56   O22   A    
C111  C120  S    
O21   Zn8   S    
O1    Zn3   S    
C147  C156  A    
C93   F15   S    
C98   C118  S    
C67   C78   A    
C131  C180  S    
C145  C154  A    
O38   Zn14  S    
C95   F17   S    
C33   C40   A    
C82   C86   A    
C10   C172  A    
C134  C177  S    
C102  C114  S    
C76   C83   A    
C74   C87   A    
O12   Zn2   S    
C76   C89   A    
C133  C142  A    
C102  C111  S    
C54   O20   A    
Br5   C99   S    
Br18  C63   S    
C92   C95   A    
O1    Zn16  S    
O52   Zn14  S    
C127  C136  A    
C17   F1    S    
C61   C76   A    
C15   H7    S    
C23   C34   A    
C16   H8    S    
C34   C48   A    
C75   C88   A    
C68   F26   S    
C46   C107  S    
C98   C106  S    
C10   H3    S    
O9    Zn5   S    
C49   F6    S    
C109  C152  S    
O35   Zn11  S    
C78   C92   A    
Br3   C96   S    
C122  C166  A    
Br9   C112  S    
C164  C172  A    
O26   Zn9   S    
C41   C42   A    
C101  C115  S    
O46   Zn6   S    
C87   C91   A    
C133  C178  S    
C35   F22   S    
C89   F11   S    
C60   O28   A    
