data_mof_unit_33407.cif
_audit_creation_date              2012-12-11T15:57:06-0500
_audit_creation_method            fapswitch 2.2
_symmetry_space_group_name_H-M    P1
_symmetry_Int_Tables_number       1
_space_group_crystal_system       triclinic
_cell_length_a                    17.500809
_cell_length_b                    24.368718
_cell_length_c                    15.082994
_cell_angle_alpha                 90.506824
_cell_angle_beta                  126.365816
_cell_angle_gamma                 90.004308
_cell_volume                      5179.42309197

loop_
_atom_site_label
_atom_site_type_symbol
_atom_type_description
_atom_site_fract_x
_atom_site_fract_y
_atom_site_fract_z
_atom_type_partial_charge
C1    C     C_R   0.353354 0.152986 0.910625 -0.181898
C2    C     C_R   0.351399 0.847545 0.906334 -0.183783
C3    C     C_R   0.853357 0.652987 0.910625 -0.181898
C4    C     C_R   0.851404 0.347544 0.906334 -0.183789
C5    C     C_R   0.689405 0.126534 0.094730 -0.138375
C6    C     C_R   0.690657 0.876448 0.092836 -0.139091
C7    C     C_R   0.189406 0.626532 0.094731 -0.138372
C8    C     C_R   0.190659 0.376451 0.092836 -0.139080
C9    C     C_R   0.596466 0.873505 0.908748 -0.149880
C10   C     C_R   0.595985 0.128614 0.910361 -0.142974
C11   C     C_R   0.096469 0.373509 0.908748 -0.149880
C12   C     C_R   0.095989 0.628610 0.910362 -0.142972
C13   C     C_R   0.500107 0.000211 0.677294 0.053163
C14   C     C_R   0.000095 0.500212 0.677284 0.053166
C15   C     C_R   0.810248 0.000978 0.361006 0.031144
C16   C     C_R   0.310252 0.500977 0.361002 0.031146
C17   C     C_R   0.685465 0.141540 0.003693 0.041700
C18   C     C_R   0.686760 0.862056 0.000758 0.045002
C19   C     C_R   0.185469 0.641537 0.003695 0.041696
C20   C     C_R   0.186764 0.362060 0.000758 0.045003
C21   C     C_3   0.007856 0.949582 0.597434 -0.168184
C22   C     C_3   0.997665 0.036911 0.628770 -0.158820
C23   C     C_3   0.507843 0.449589 0.597469 -0.168188
C24   C     C_3   0.497676 0.536932 0.628744 -0.158840
C25   C     C_3   0.928382 0.986918 0.580154 -0.148316
C26   C     C_3   0.428379 0.486946 0.580159 -0.148301
C27   C     C_3   0.901731 0.001323 0.466426 0.188488
C28   C     C_3   0.401735 0.501321 0.466423 0.188493
C29   C     C_3   0.979100 0.964040 0.482139 -0.155867
C30   C     C_3   0.968403 0.051116 0.512818 -0.168543
C31   C     C_3   0.479094 0.464019 0.482165 -0.155886
C32   C     C_3   0.468423 0.551108 0.512784 -0.168544
C33   C     C_3   0.046213 0.013735 0.528851 -0.131676
C34   C     C_3   0.546222 0.513707 0.528846 -0.131659
C35   C     C_R   0.445816 0.846630 0.089362 -0.143704
C36   C     C_R   0.444113 0.151678 0.093815 -0.074788
C37   C     C_R   0.945816 0.346630 0.089362 -0.143705
C38   C     C_R   0.944116 0.651679 0.093815 -0.074792
C39   C     C_3   0.074566 0.999443 0.643621 0.187547
C40   C     C_3   0.574568 0.499444 0.643624 0.187550
C41   C     C_3   0.402635 0.733280 0.109074 -0.096224
C42   C     C_3   0.267451 0.216194 0.028641 -0.117372
C43   C     C_3   0.902639 0.233275 0.109066 -0.096219
C44   C     C_3   0.767454 0.716191 0.028640 -0.117367
C45   C     C_3   0.845937 0.186384 0.114042 -0.479448
C46   C     C_3   0.705826 0.764396 0.014691 -0.476956
C47   C     C_3   0.345935 0.686388 0.114050 -0.479452
C48   C     C_3   0.205828 0.264401 0.014696 -0.476967
C49   C     C_3   0.803799 0.222597 0.896041 0.548621
C50   C     C_3   0.913293 0.780048 0.095693 0.595365
C51   C     C_3   0.303813 0.722593 0.896052 0.548619
C52   C     C_3   0.413293 0.280047 0.095693 0.595366
C53   C     C_3   0.251685 0.785993 0.988808 -0.522255
C54   C     C_3   0.282481 0.262487 0.891458 -0.533671
C55   C     C_3   0.751693 0.285995 0.988822 -0.522253
C56   C     C_3   0.782482 0.762487 0.891457 -0.533676
C57   C     C_3   0.338628 0.764165 0.995900 0.238124
C58   C     C_3   0.340731 0.235168 0.007529 0.253280
C59   C     C_3   0.838628 0.264165 0.995898 0.238123
C60   C     C_3   0.840733 0.735168 0.007528 0.253277
C61   C     C_3   0.745286 0.183597 0.003851 0.320277
C62   C     C_3   0.744958 0.818363 0.001863 0.344100
C63   C     C_3   0.245289 0.683595 0.003853 0.320283
C64   C     C_3   0.244961 0.318366 0.001864 0.344095
C65   C     C_3   0.757603 0.172379 0.911334 -0.477963
C66   C     C_3   0.851160 0.825036 0.100253 -0.562449
C67   C     C_3   0.257620 0.672374 0.911347 -0.477976
C68   C     C_3   0.351163 0.325039 0.100252 -0.562446
C69   C     C_3   0.693454 0.238642 0.984447 -0.415892
C70   C     C_3   0.738123 0.815918 0.894312 -0.414178
C71   C     C_3   0.193448 0.738638 0.984433 -0.415887
C72   C     C_3   0.238124 0.315919 0.894312 -0.414169
C73   C     C_3   0.568721 0.055951 0.604396 -0.424603
C74   C     C_3   0.597489 0.954946 0.629184 -0.389490
C75   C     C_3   0.068705 0.555953 0.604383 -0.424611
C76   C     C_3   0.097484 0.454949 0.629182 -0.389480
C77   C     C_R   0.560428 0.046080 0.308323 0.081936
C78   C     C_R   0.560513 0.954835 0.307823 0.104909
C79   C     C_R   0.060428 0.546080 0.308322 0.081912
C80   C     C_R   0.060513 0.454835 0.307823 0.104908
C81   C     C_3   0.592297 0.055636 0.522261 -0.506156
C82   C     C_3   0.622563 0.955916 0.547406 -0.433548
C83   C     C_3   0.092285 0.555638 0.522252 -0.506162
C84   C     C_3   0.122564 0.455920 0.547409 -0.433541
C85   C     C_3   0.431094 0.989005 0.484140 -0.619475
C86   C     C_3   0.931086 0.489002 0.484132 -0.619469
C87   C     C_3   0.523582 0.000205 0.599670 0.327139
C88   C     C_3   0.023571 0.500206 0.599661 0.327138
C89   C     C_3   0.561915 0.000131 0.457733 0.225085
C90   C     C_3   0.061910 0.500132 0.457730 0.225081
C91   C     C_3   0.451959 0.986642 0.397365 1.036526
C92   C     C_3   0.951956 0.486636 0.397361 1.036529
C93   C     C_R   0.230478 0.953620 0.751752 -0.124393
C94   C     C_R   0.230752 0.045928 0.753144 -0.139461
C95   C     C_R   0.730479 0.453620 0.751756 -0.124406
C96   C     C_R   0.730752 0.545928 0.753147 -0.139449
C97   C     C_R   0.385016 0.184198 0.004235 0.020333
C98   C     C_R   0.385493 0.814644 0.996494 0.022502
C99   C     C_R   0.885021 0.684199 0.004235 0.020335
C100  C     C_R   0.885495 0.314643 0.996494 0.022504
C101  C     C_R   0.581777 0.000525 0.374609 -0.087420
C102  C     C_R   0.081775 0.500525 0.374608 -0.087418
C103  C     C_R   0.175615 0.999590 0.728101 0.022876
C104  C     C_R   0.675616 0.499591 0.728108 0.022869
C105  C     C_R   0.484449 0.046018 0.718012 -0.147845
C106  C     C_R   0.484416 0.954160 0.716774 -0.151126
C107  C     C_R   0.984442 0.546018 0.718006 -0.147851
C108  C     C_R   0.984408 0.454160 0.716768 -0.151132
C109  C     C_R   0.760520 0.954675 0.302876 -0.150274
C110  C     C_R   0.761164 0.046541 0.301934 -0.138704
C111  C     C_R   0.260521 0.454675 0.302874 -0.150268
C112  C     C_R   0.261166 0.546541 0.301933 -0.138713
H1    H     H_    0.311946 0.166620 0.826306 0.098918
H2    H     H_    0.306170 0.836114 0.820564 0.096288
H3    H     H_    0.811949 0.666620 0.826306 0.098919
H4    H     H_    0.806189 0.336109 0.820565 0.096292
H5    H     H_    0.025866 0.908136 0.634432 0.103148
H6    H     H_    0.007969 0.066440 0.691557 0.111963
H7    H     H_    0.525842 0.408152 0.634496 0.103155
H8    H     H_    0.507987 0.566479 0.691510 0.111955
H9    H     H_    0.970082 0.934424 0.420109 0.108964
H10   H     H_    0.951300 0.092718 0.476557 0.105800
H11   H     H_    0.470069 0.434385 0.420155 0.108953
H12   H     H_    0.451333 0.592703 0.476494 0.105795
H13   H     H_    0.095995 0.024614 0.508802 0.115073
H14   H     H_    0.596010 0.524562 0.508794 0.115078
H15   H     H_    0.420819 0.761962 0.176938 0.116054
H16   H     H_    0.219476 0.184690 0.964864 0.136471
H17   H     H_    0.920832 0.261955 0.176937 0.116051
H18   H     H_    0.719481 0.684686 0.964864 0.136467
H19   H     H_    0.341693 0.695318 0.183448 0.152209
H20   H     H_    0.132311 0.257304 0.940508 0.176181
H21   H     H_    0.841705 0.195311 0.183448 0.152208
H22   H     H_    0.632310 0.757297 0.940502 0.176128
H23   H     H_    0.881991 0.146124 0.131284 0.157315
H24   H     H_    0.701290 0.766924 0.085235 0.158969
H25   H     H_    0.381995 0.646129 0.131305 0.157315
H26   H     H_    0.201295 0.266929 0.085241 0.158969
H27   H     H_    0.802246 0.135172 0.933105 0.185307
H28   H     H_    0.854947 0.820751 0.175419 0.154803
H29   H     H_    0.302270 0.635169 0.933131 0.185308
H30   H     H_    0.354951 0.320757 0.175419 0.154803
H31   H     H_    0.205754 0.812726 0.916179 0.179246
H32   H     H_    0.327266 0.270727 0.863056 0.177930
H33   H     H_    0.705762 0.312732 0.916201 0.179252
H34   H     H_    0.827267 0.770728 0.863055 0.177931
H35   H     H_    0.490829 0.833811 0.173941 0.097356
H36   H     H_    0.483543 0.161605 0.179768 0.159296
H37   H     H_    0.990826 0.333812 0.173941 0.097349
H38   H     H_    0.983547 0.661606 0.179768 0.159296
H39   H     H_    0.275887 0.812083 0.062221 0.182397
H40   H     H_    0.223850 0.234681 0.829066 0.183593
H41   H     H_    0.775905 0.312082 0.062242 0.182408
H42   H     H_    0.723851 0.734680 0.829065 0.183596
H43   H     H_    0.180783 0.745378 0.047937 0.170587
H44   H     H_    0.164289 0.316482 0.818543 0.160005
H45   H     H_    0.680798 0.245379 0.047959 0.170580
H46   H     H_    0.664289 0.816481 0.818542 0.159992
H47   H     H_    0.622831 0.238263 0.902786 0.160968
H48   H     H_    0.775672 0.851833 0.891092 0.168847
H49   H     H_    0.122828 0.738255 0.902768 0.160963
H50   H     H_    0.275673 0.351833 0.891089 0.168842
H51   H     H_    0.689318 0.161473 0.831917 0.116654
H52   H     H_    0.876120 0.867212 0.101707 0.139293
H53   H     H_    0.189339 0.661462 0.831929 0.116657
H54   H     H_    0.376124 0.367213 0.101702 0.139292
H55   H     H_    0.520886 0.090894 0.585568 0.144897
H56   H     H_    0.568939 0.913614 0.626073 0.158258
H57   H     H_    0.020864 0.590894 0.585548 0.144901
H58   H     H_    0.068938 0.413616 0.626072 0.158260
H59   H     H_    0.634692 0.063499 0.688869 0.175229
H60   H     H_    0.662909 0.961483 0.714417 0.160599
H61   H     H_    0.134674 0.563504 0.688856 0.175227
H62   H     H_    0.162902 0.461488 0.714416 0.160598
H63   H     H_    0.670034 0.062228 0.567489 0.184559
H64   H     H_    0.699621 0.964714 0.591784 0.160118
H65   H     H_    0.170021 0.562233 0.567483 0.184556
H66   H     H_    0.199620 0.464722 0.591789 0.160115
H67   H     H_    0.557261 0.091166 0.468298 0.157062
H68   H     H_    0.609753 0.914074 0.512629 0.185681
H69   H     H_    0.057248 0.591167 0.468286 0.157060
H70   H     H_    0.109762 0.414077 0.512637 0.185680
H71   H     H_    0.375483 0.018596 0.465539 0.149500
H72   H     H_    0.401377 0.948848 0.485561 0.175067
H73   H     H_    0.875474 0.518593 0.465525 0.149501
H74   H     H_    0.901371 0.448846 0.485555 0.175064
H75   H     H_    0.207136 0.911325 0.734895 0.095463
H76   H     H_    0.207578 0.088120 0.737593 0.100479
H77   H     H_    0.707137 0.411325 0.734900 0.095475
H78   H     H_    0.707579 0.588120 0.737596 0.100479
H79   H     H_    0.474304 0.087735 0.690406 0.084117
H80   H     H_    0.474975 0.912540 0.686898 0.090625
H81   H     H_    0.974296 0.587735 0.690401 0.084118
H82   H     H_    0.974966 0.412540 0.686891 0.090622
H83   H     H_    0.775197 0.913021 0.332707 0.093574
H84   H     H_    0.775774 0.088585 0.331266 0.091739
H85   H     H_    0.275198 0.413021 0.332705 0.093569
H86   H     H_    0.275777 0.588584 0.331266 0.091745
H87   H     H_    0.745450 0.134353 0.180388 0.094271
H88   H     H_    0.747279 0.868759 0.178011 0.091301
H89   H     H_    0.245451 0.634351 0.180388 0.094271
H90   H     H_    0.247281 0.368762 0.178011 0.091298
H91   H     H_    0.564034 0.861093 0.825191 0.085602
H92   H     H_    0.564516 0.141678 0.827566 0.085170
H93   H     H_    0.064039 0.361099 0.825191 0.085593
H94   H     H_    0.064524 0.641673 0.827566 0.085171
H95   H     H_    0.876699 0.976124 0.597298 0.102036
H96   H     H_    0.376691 0.476175 0.597308 0.102036
N1    N     N_R   0.392450 0.103580 0.942190 -0.034950
N2    N     N_R   0.392450 0.896420 0.942190 -0.033022
N3    N     N_R   0.892450 0.603580 0.942190 -0.034951
N4    N     N_R   0.892450 0.396420 0.942190 -0.033022
N5    N     N_R   0.450490 0.896000 0.057360 -0.038366
N6    N     N_R   0.450490 0.104000 0.057360 -0.050321
N7    N     N_R   0.950490 0.396000 0.057360 -0.038365
N8    N     N_R   0.950490 0.604000 0.057360 -0.050321
N9    N     N_R   0.525490 0.028390 0.207550 -0.053435
N10   N     N_R   0.525490 0.971610 0.207550 -0.062560
N11   N     N_R   0.025490 0.528390 0.207550 -0.053431
N12   N     N_R   0.025490 0.471610 0.207550 -0.062556
N13   N     N_R   0.317450 0.971190 0.792000 -0.040480
N14   N     N_R   0.317450 0.028810 0.792000 -0.040760
N15   N     N_R   0.817450 0.471190 0.792000 -0.040480
N16   N     N_R   0.817450 0.528810 0.792000 -0.040761
N17   N     N_R   0.473900 0.028390 0.792280 -0.034391
N18   N     N_R   0.473900 0.971610 0.792280 -0.033335
N19   N     N_R   0.973900 0.528390 0.792280 -0.034390
N20   N     N_R   0.973900 0.471610 0.792280 -0.033334
N21   N     N_R   0.682310 0.971180 0.208170 -0.034278
N22   N     N_R   0.682310 0.028820 0.208170 -0.035412
N23   N     N_R   0.182310 0.471180 0.208170 -0.034278
N24   N     N_R   0.182310 0.528820 0.208170 -0.035410
N25   N     N_R   0.606470 0.103570 0.057210 -0.037173
N26   N     N_R   0.606470 0.896430 0.057210 -0.035780
N27   N     N_R   0.106470 0.603570 0.057210 -0.037173
N28   N     N_R   0.106470 0.396430 0.057210 -0.035780
N29   N     N_R   0.549740 0.896000 0.943240 -0.037377
N30   N     N_R   0.549740 0.104000 0.943240 -0.035877
N31   N     N_R   0.049740 0.396000 0.943240 -0.037380
N32   N     N_R   0.049740 0.604000 0.943240 -0.035877
Ni1   Ni    Ni4+2 0.433780 0.065390 0.868430 0.205853
Ni2   Ni    Ni4+2 0.433780 0.934610 0.868430 0.207691
Ni3   Ni    Ni4+2 0.933780 0.565390 0.868430 0.205854
Ni4   Ni    Ni4+2 0.933780 0.434610 0.868430 0.207684
Ni5   Ni    Ni4+2 0.565800 0.934190 0.131570 0.208146
Ni6   Ni    Ni4+2 0.565800 0.065810 0.131570 0.214892
Ni7   Ni    Ni4+2 0.065800 0.434190 0.131570 0.208148
Ni8   Ni    Ni4+2 0.065800 0.565810 0.131570 0.214894
N33   N     N_3   0.492026 0.714240 0.131215 -0.204545
H97   H     H_    0.482066 0.676438 0.092365 0.170567
H98   H     H_    0.540220 0.707343 0.215755 0.089017
N34   N     N_3   0.312902 0.190743 0.136638 -0.213815
H99   H     H_    0.342466 0.220648 0.198909 0.140053
H100  H     H_    0.259931 0.170679 0.136099 0.112416
N35   N     N_3   0.992023 0.214233 0.131192 -0.204539
H101  H     H_    0.982056 0.176432 0.092337 0.170567
H102  H     H_    0.040223 0.207334 0.215731 0.089016
N36   N     N_3   0.812906 0.690741 0.136637 -0.213818
H103  H     H_    0.842467 0.720647 0.198908 0.140049
H104  H     H_    0.759936 0.670675 0.136098 0.112424
O1    O     O_3   0.881498 0.201282 0.898899 -0.679746
C113  C     C_3   0.914344 0.234013 0.850262 0.186933
H105  H     H_    0.972979 0.261082 0.914293 0.113067
H106  H     H_    0.859381 0.260042 0.782003 0.101073
C114  C     C_3   0.952435 0.195794 0.803743 -0.261730
H107  H     H_    0.021962 0.178985 0.872541 0.183926
H108  H     H_    0.902534 0.160702 0.759753 0.209320
C115  C     C_3   0.963484 0.225089 0.722688 -1.081618
H109  H     H_    0.892605 0.235478 0.646830 0.272540
H110  H     H_    0.000066 0.197713 0.699754 0.271560
H111  H     H_    0.005429 0.263472 0.759266 0.263948
O2    O     O_3   0.979935 0.754368 0.199493 -0.710485
C116  C     C_3   0.031235 0.787110 0.297491 0.184434
H112  H     H_    0.079737 0.758331 0.364857 0.133817
H113  H     H_    0.986007 0.803002 0.320666 0.077189
C117  C     C_3   0.093134 0.832851 0.300521 -0.335500
H114  H     H_    0.131739 0.817090 0.268018 0.215345
H115  H     H_    0.047923 0.867948 0.250730 0.189850
C118  C     C_3   0.165528 0.854364 0.417830 -1.023939
H116  H     H_    0.128955 0.869589 0.453262 0.265048
H117  H     H_    0.206596 0.888842 0.417030 0.268566
H118  H     H_    0.215779 0.821423 0.470792 0.263692
O3    O     O_3   0.381520 0.701281 0.898924 -0.679750
C119  C     C_3   0.414375 0.734016 0.850300 0.187003
H119  H     H_    0.473054 0.761055 0.914359 0.113055
H120  H     H_    0.359435 0.760082 0.782099 0.101042
C120  C     C_3   0.452381 0.695799 0.803678 -0.261781
H121  H     H_    0.521905 0.678960 0.872424 0.183923
H122  H     H_    0.402434 0.660727 0.759662 0.209318
C121  C     C_3   0.463404 0.725108 0.722615 -1.081468
H123  H     H_    0.392518 0.735569 0.646830 0.272504
H124  H     H_    0.499858 0.697710 0.699535 0.271541
H125  H     H_    0.505462 0.763453 0.759259 0.263934
O4    O     O_3   0.479933 0.254367 0.199494 -0.710486
C122  C     C_3   0.531232 0.287108 0.297493 0.184425
H126  H     H_    0.579736 0.258329 0.364858 0.133814
H127  H     H_    0.486004 0.302999 0.320669 0.077193
C123  C     C_3   0.593130 0.332851 0.300523 -0.335499
H128  H     H_    0.631739 0.317090 0.268026 0.215353
H129  H     H_    0.547918 0.367946 0.250727 0.189854
C124  C     C_3   0.665519 0.354366 0.417832 -1.023940
H130  H     H_    0.628941 0.369591 0.453258 0.265047
H131  H     H_    0.706587 0.388844 0.417032 0.268564
H132  H     H_    0.715770 0.321427 0.470798 0.263695
N37   N     N_3   0.730883 0.246944 0.787855 -0.256051
H133  H     H_    0.714438 0.219049 0.725534 0.094601
H134  H     H_    0.667559 0.253548 0.778637 0.066306
N38   N     N_3   0.964364 0.803022 0.054112 -0.232861
H135  H     H_    0.987265 0.843205 0.080726 0.067766
H136  H     H_    0.023211 0.778770 0.079273 0.108677
N39   N     N_3   0.230899 0.746934 0.787859 -0.256048
H137  H     H_    0.214472 0.719040 0.725546 0.094620
H138  H     H_    0.167567 0.753532 0.778628 0.066301
N40   N     N_3   0.464366 0.303018 0.054114 -0.232862
H139  H     H_    0.487270 0.343201 0.080727 0.067769
H140  H     H_    0.523213 0.278765 0.079276 0.108679
N41   N     N_3   0.614466 0.096138 0.347774 -0.222985
H141  H     H_    0.575028 0.126632 0.352232 0.073666
H142  H     H_    0.678215 0.090531 0.425648 0.096721
N42   N     N_3   0.608132 0.903265 0.345325 -0.228165
H143  H     H_    0.567647 0.876580 0.356087 0.110834
H144  H     H_    0.675354 0.908759 0.419711 0.082192
N43   N     N_3   0.114467 0.596138 0.347774 -0.222982
H145  H     H_    0.075030 0.626632 0.352231 0.073668
H146  H     H_    0.178215 0.590530 0.425649 0.096724
N44   N     N_3   0.108133 0.403265 0.345327 -0.228167
H147  H     H_    0.067650 0.376581 0.356092 0.110838
H148  H     H_    0.175356 0.408761 0.419711 0.082195
O5    O     O_3   0.392077 0.021166 0.302977 -0.713124
C125  C     C_3   0.370349 0.074397 0.320709 0.093535
H149  H     H_    0.390230 0.104441 0.282637 0.130057
H150  H     H_    0.409339 0.087084 0.407354 0.109809
C126  C     C_3   0.263536 0.078859 0.264760 -0.241798
H151  H     H_    0.224945 0.080466 0.174053 0.193619
H152  H     H_    0.237822 0.042294 0.283208 0.196593
C127  C     C_3   0.240039 0.129432 0.304831 -1.075351
H153  H     H_    0.269333 0.124841 0.392887 0.269105
H154  H     H_    0.161866 0.133762 0.255988 0.270190
H155  H     H_    0.270285 0.167217 0.296093 0.263022
O6    O     O_3   0.439026 0.930015 0.363279 -0.727847
C128  C     C_3   0.355771 0.916755 0.257138 0.244196
H156  H     H_    0.367201 0.875778 0.234123 0.091302
H157  H     H_    0.343790 0.944605 0.192061 0.151804
C129  C     C_3   0.268843 0.912247 0.257764 -0.312862
H158  H     H_    0.280018 0.878812 0.313886 0.200409
H159  H     H_    0.258848 0.950940 0.288413 0.203003
C130  C     C_3   0.179008 0.900343 0.142657 -1.046639
H160  H     H_    0.169767 0.931366 0.083520 0.275321
H161  H     H_    0.116706 0.902369 0.144509 0.267699
H162  H     H_    0.182175 0.858744 0.114423 0.264933
O7    O     O_3   0.892067 0.521156 0.302965 -0.713121
C131  C     C_3   0.870340 0.574388 0.320689 0.093527
H163  H     H_    0.890224 0.604430 0.282615 0.130056
H164  H     H_    0.909328 0.587078 0.407332 0.109815
C132  C     C_3   0.763526 0.578854 0.264736 -0.241798
H165  H     H_    0.724938 0.580462 0.174031 0.193619
H166  H     H_    0.737809 0.542289 0.283181 0.196588
C133  C     C_3   0.740031 0.629426 0.304810 -1.075347
H167  H     H_    0.769316 0.624831 0.392862 0.269104
H168  H     H_    0.661858 0.633761 0.255960 0.270192
H169  H     H_    0.770288 0.667210 0.296084 0.263020
O8    O     O_3   0.939034 0.430008 0.363287 -0.727849
C134  C     C_3   0.855782 0.416741 0.257149 0.244174
H170  H     H_    0.867218 0.375762 0.234149 0.091321
H171  H     H_    0.843802 0.444586 0.192066 0.151791
C135  C     C_3   0.768852 0.412237 0.257771 -0.312843
H172  H     H_    0.780039 0.378820 0.313930 0.200414
H173  H     H_    0.758835 0.450940 0.288372 0.203005
C136  C     C_3   0.679027 0.400301 0.142673 -1.046661
H174  H     H_    0.669793 0.431292 0.083491 0.275321
H175  H     H_    0.616717 0.402353 0.144508 0.267703
H176  H     H_    0.682200 0.358684 0.114511 0.264930

loop_
_geom_bond_atom_site_label_1
_geom_bond_atom_site_label_2
_ccdc_geom_bond_type
N35   H102  S    
N7    Ni7   S    
C55   C59   S    
C121  H125  S    
C15   C109  A    
C77   C101  A    
N15   N16   A    
C42   C58   S    
C124  H130  S    
N29   Ni2   S    
C46   C62   S    
C119  H119  S    
C79   N11   A    
C86   C88   S    
C55   H33   S    
C44   H18   S    
C29   C33   S    
C116  C117  S    
C62   C70   S    
C133  H169  S    
C21   H5    S    
C110  N22   A    
C17   C61   S    
C36   H36   S    
C30   H10   S    
C19   C63   S    
O2    C116  S    
C75   H57   S    
C120  H122  S    
C79   C102  A    
C36   C97   A    
C51   C57   S    
C122  C123  S    
N22   Ni6   S    
C42   H16   S    
C136  H176  S    
C78   C101  A    
C1    H1    S    
C112  H86   S    
C44   C46   S    
C11   C20   A    
C24   H8    S    
N33   H98   S    
C125  H149  S    
N43   H145  S    
C28   C32   S    
C79   N43   S    
O6    C128  S    
N2    Ni2   S    
C56   H42   S    
C37   H37   S    
C13   C106  A    
C54   H40   S    
C108  N20   A    
N40   H139  S    
C126  H151  S    
C21   C29   S    
C47   H19   S    
N26   N29   A    
C32   C34   S    
C24   C32   S    
N21   N22   A    
C46   H22   S    
C90   C92   S    
N19   N20   A    
N20   Ni4   S    
C131  H163  S    
C33   H13   S    
C76   H58   S    
C125  H150  S    
C14   C107  A    
C115  H110  S    
C85   H72   S    
C7    C19   A    
C96   C104  A    
C126  C127  S    
C123  H128  S    
C67   H29   S    
C124  H132  S    
C22   H6    S    
C71   H49   S    
C89   C101  S    
C119  C120  S    
N23   Ni7   S    
C127  H153  S    
N8    Ni8   S    
C45   H21   S    
C48   H26   S    
C61   C69   S    
C84   H70   S    
C14   C88   S    
C7    H89   S    
C2    H2    S    
C77   N9    A    
C118  H117  S    
C44   N36   S    
C65   H27   S    
C61   C65   S    
C12   N32   A    
C66   H28   S    
C86   H73   S    
C80   C102  A    
N11   Ni8   S    
N24   Ni8   S    
N40   H140  S    
C92   O7    S    
C16   C111  A    
N34   H99   S    
C68   H54   S    
C72   H44   S    
C27   C29   S    
C111  N23   A    
N27   N32   A    
C105  H79   S    
O7    C131  S    
C106  H80   S    
C93   C103  A    
C122  H127  S    
N33   H97   S    
C82   C89   S    
C64   C68   S    
C24   C26   S    
N26   Ni5   S    
C23   H7    S    
O1    C113  S    
N18   Ni2   S    
C40   C104  S    
O8    C134  S    
C131  C132  S    
C83   H69   S    
C96   H78   S    
C90   C102  S    
C36   N6    A    
N37   H134  S    
C22   C25   S    
C107  N19   A    
C69   H45   S    
C68   H30   S    
C105  N17   A    
C74   C87   S    
C89   C91   S    
C43   C59   S    
N21   Ni5   S    
C67   H53   S    
N3    N8    A    
C6    N26   A    
C59   C100  S    
C65   H51   S    
C91   O5    S    
C84   C90   S    
C127  H155  S    
N38   H136  S    
N17   N18   A    
C128  H157  S    
C3    N3    A    
C45   H23   S    
C62   C66   S    
C1    N1    A    
N10   Ni5   S    
C43   H17   S    
N1    Ni1   S    
C18   C62   S    
C51   C67   S    
N9    N10   A    
C95   N15   A    
C29   H9    S    
C91   O6    S    
N43   H146  S    
N42   H144  S    
C133  H168  S    
N13   N14   A    
C43   C45   S    
N4    N7    A    
C118  H116  S    
C13   C87   S    
C41   C47   S    
C31   C34   S    
C66   H52   S    
C42   C48   S    
N5    Ni5   S    
C114  H108  S    
C135  C136  S    
N44   H147  S    
C132  H166  S    
N39   H138  S    
C9    N29   A    
N11   N12   A    
C134  C135  S    
C108  H82   S    
N27   Ni8   S    
C82   H64   S    
C55   H41   S    
C21   C25   S    
C22   C30   S    
C50   O2    S    
C50   N38   S    
N16   Ni3   S    
C113  H105  S    
N2    N5    A    
C49   C59   S    
N28   N31   A    
C50   C60   S    
C55   C69   S    
C119  H120  S    
N36   H103  S    
C130  H162  S    
C22   C39   S    
C69   H47   S    
C109  H83   S    
C70   H48   S    
C76   H62   S    
C3    C99   A    
C9    C18   A    
C129  H158  S    
O3    C119  S    
C94   N14   A    
C72   H50   S    
N44   H148  S    
C11   H93   S    
C37   C100  A    
C136  H175  S    
C124  H131  S    
C54   H32   S    
C73   H55   S    
C76   C84   S    
C113  C114  S    
C74   H56   S    
C5    H87   S    
C95   C104  A    
N30   Ni1   S    
C52   N40   S    
C81   H63   S    
C92   O8    S    
C49   N37   S    
C47   C63   S    
O4    C122  S    
C48   C64   S    
C5    C17   A    
N17   Ni1   S    
C23   C40   S    
C121  H123  S    
C23   C26   S    
C73   C81   S    
N41   H142  S    
C41   H15   S    
C135  H172  S    
C73   C87   S    
C109  N21   A    
C125  C126  S    
C131  H164  S    
C134  H170  S    
C35   C98   A    
C81   C89   S    
C14   C108  A    
C42   N34   S    
C85   H71   S    
C15   C110  A    
C123  H129  S    
C74   C82   S    
N14   Ni1   S    
C51   N39   S    
C126  H152  S    
C7    N27   A    
C83   H65   S    
N3    Ni3   S    
N9    Ni6   S    
C81   H67   S    
C13   C105  A    
C38   N8    A    
C130  H160  S    
C49   O1    S    
N32   Ni3   S    
C56   C60   S    
C70   H46   S    
C123  C124  S    
C12   H94   S    
N25   N30   A    
C120  H121  S    
C129  C130  S    
N15   Ni4   S    
C34   H14   S    
C77   N41   S    
C120  C121  S    
C8    C20   A    
C35   N5    A    
C8    N28   A    
C127  H154  S    
N12   Ni7   S    
C94   C103  A    
C86   H74   S    
C110  H84   S    
C122  H126  S    
C16   C112  A    
N34   H100  S    
C53   C57   S    
C4    H4    S    
C28   C31   S    
C94   H76   S    
C38   C99   A    
C39   C103  S    
N1    N6    A    
C112  N24   A    
C41   C57   S    
C3    H3    S    
C78   N10   A    
C6    H88   S    
C75   C83   S    
C44   C60   S    
C57   C98   S    
C12   C19   A    
C45   C61   S    
C56   H34   S    
C80   N44   S    
C115  H109  S    
N37   H133  S    
C48   H20   S    
C25   H95   S    
C37   N7    A    
C23   C31   S    
C16   C28   S    
N39   H137  S    
C75   H61   S    
O5    C125  S    
C32   H12   S    
C60   C99   S    
C85   C91   S    
C128  H156  S    
C33   C39   S    
C49   C65   S    
C34   C40   S    
N19   Ni3   S    
N25   Ni6   S    
C10   C17   A    
C11   N31   A    
C78   N42   S    
C118  H118  S    
C9    H91   S    
C116  H113  S    
C15   C27   S    
C132  H165  S    
C96   N16   A    
C106  N18   A    
N31   Ni4   S    
C73   H59   S    
C114  H107  S    
C76   C88   S    
C74   H60   S    
C52   C68   S    
C71   H43   S    
C5    N25   A    
C27   C30   S    
C134  H171  S    
N28   Ni7   S    
C51   O3    S    
N41   H141  S    
C58   C97   S    
C117  C118  S    
N13   Ni2   S    
C85   C87   S    
C6    C18   A    
C63   C67   S    
C2    N2    A    
C1    C97   A    
C113  H106  S    
C53   H31   S    
C20   C64   S    
N36   H104  S    
C130  H161  S    
C21   C39   S    
C115  H111  S    
C47   H25   S    
C116  H112  S    
N6    Ni6   S    
C35   H35   S    
C117  H114  S    
C84   H66   S    
C50   C66   S    
C52   C58   S    
C93   H75   S    
C117  H115  S    
C10   N30   A    
C56   C70   S    
C4    C100  A    
C82   H68   S    
N35   H101  S    
C107  H81   S    
N38   H135  S    
C53   H39   S    
C136  H174  S    
C54   C58   S    
C128  C129  S    
C43   N35   S    
C83   C90   S    
C30   C33   S    
C26   H96   S    
C63   C71   S    
C80   N12   A    
C25   C27   S    
C26   C28   S    
C4    N4    A    
N42   H143  S    
C8    H90   S    
C31   H11   S    
N4    Ni4   S    
C86   C92   S    
C111  H85   S    
C24   C40   S    
C121  H124  S    
C64   C72   S    
C133  H167  S    
C114  C115  S    
C135  H173  S    
C95   H77   S    
C46   H24   S    
C75   C88   S    
C132  C133  S    
C54   C72   S    
C2    C98   A    
C129  H159  S    
C41   N33   S    
N23   N24   A    
C93   N13   A    
C52   O4    S    
C10   H92   S    
C38   H38   S    
C53   C71   S    
