data_mof_unit_48569.cif
_audit_creation_date              2012-12-10T17:05:16-0500
_audit_creation_method            fapswitch 2.2
_symmetry_space_group_name_H-M    P1
_symmetry_Int_Tables_number       1
_space_group_crystal_system       triclinic
_cell_length_a                    10.100514
_cell_length_b                    10.706049
_cell_length_c                    15.42574
_cell_angle_alpha                 90.991529
_cell_angle_beta                  69.033607
_cell_angle_gamma                 91.099841
_cell_volume                      1557.25950366

loop_
_atom_site_label
_atom_site_type_symbol
_atom_type_description
_atom_site_fract_x
_atom_site_fract_y
_atom_site_fract_z
_atom_type_partial_charge
C1    C     C_R   0.499165 0.737066 0.503964 0.789708
C2    C     C_R   0.734064 0.460272 0.029708 -0.052987
C3    C     C_R   0.589842 0.433067 0.084362 0.062293
C4    C     C_R   0.411395 0.497861 0.675855 0.865592
C5    C     C_R   0.831494 0.486397 0.074426 -0.169835
C6    C     C_R   0.785228 0.497412 0.170592 -0.164308
C7    C     C_R   0.545732 0.447832 0.180635 -0.211441
C8    C     C_2   0.620350 0.067922 0.477868 -0.115429
C9    C     C_2   0.508141 0.131753 0.478317 -0.250534
C10   C     C_2   0.616288 0.933623 0.473011 -0.226471
C11   C     C_2   0.496580 0.869466 0.517221 0.295224
C12   C     C_R   0.425157 0.424515 0.906768 0.027263
C13   C     C_2   0.095989 0.416875 0.456089 0.118542
C14   C     C_2   0.955986 0.435127 0.442125 0.501168
C15   C     C_R   0.501751 0.262953 0.494847 0.906771
C16   C     C_R   0.588244 0.497183 0.324402 0.851769
C17   C     C_R   0.357920 0.470882 0.775462 -0.132307
C18   C     C_R   0.641389 0.482186 0.223592 -0.064151
C19   C     C_R   0.195411 0.355586 0.905499 -0.204771
C20   C     C_R   0.232596 0.400564 0.815273 -0.190545
C21   C     C_R   0.444710 0.495204 0.827380 0.166082
C22   C     C_3   0.119205 0.136397 0.078651 -0.784806
C23   C     C_R   0.291675 0.367226 0.952430 0.085893
C24   C     C_3   0.122786 0.194345 0.466151 -0.739873
C25   C     C_3   0.845662 0.668858 0.599181 -0.743924
C26   C     C_3   0.473507 0.720752 0.818280 -0.780352
C27   C     C_R   0.532165 0.418301 0.945273 -0.139850
C28   C     C_R   0.491284 0.400767 0.041205 -0.008538
C29   C     C_R   0.354009 0.350635 0.089662 -0.250283
C30   C     C_R   0.257727 0.326710 0.044247 0.201172
C31   C     C_R   0.678783 0.427350 0.890460 0.430797
C32   C     C_R   0.777471 0.456375 0.931970 0.390312
H1    H     H_    0.943730 0.498782 0.036437 0.150070
H2    H     H_    0.322346 0.322004 0.161106 0.136952
H3    H     H_    0.083192 0.293831 0.162824 0.233356
H4    H     H_    0.009534 0.100636 0.114656 0.246290
H5    H     H_    0.191558 0.088983 0.107104 0.239861
H6    H     H_    0.150569 0.113760 0.003470 0.249161
H7    H     H_    0.304228 0.862135 0.608513 0.335010
H8    H     H_    0.282176 0.318672 0.386934 0.268309
H9    H     H_    0.133597 0.200525 0.535294 0.268570
H10   H     H_    0.185581 0.114321 0.426740 0.224444
H11   H     H_    0.009748 0.177006 0.475367 0.240409
H12   H     H_    0.715425 0.113293 0.481500 0.174073
H13   H     H_    0.022154 0.342219 0.325566 0.315439
H14   H     H_    0.802355 0.482626 0.636072 0.285896
H15   H     H_    0.873535 0.695105 0.660536 0.239107
H16   H     H_    0.734292 0.694767 0.613251 0.265370
H17   H     H_    0.915427 0.722549 0.538506 0.219903
H18   H     H_    0.953635 0.550177 0.900926 0.321446
H19   H     H_    0.627670 0.591573 0.749358 0.274611
H20   H     H_    0.554367 0.795380 0.811415 0.244994
H21   H     H_    0.389072 0.729764 0.887942 0.253207
H22   H     H_    0.427458 0.733645 0.763589 0.229346
H23   H     H_    0.418924 0.086637 0.466192 0.189604
H24   H     H_    0.661573 0.346991 0.781209 0.320564
H25   H     H_    0.713764 0.886812 0.432003 0.131567
H26   H     H_    0.105534 0.586117 0.509023 0.181501
H27   H     H_    0.435180 0.437820 0.223212 0.146746
H28   H     H_    0.861630 0.519857 0.203236 0.169672
H29   H     H_    0.093975 0.308433 0.936671 0.199736
H30   H     H_    0.164008 0.379812 0.776534 0.226035
N1    N     N_2   0.148330 0.498670 0.499030 -0.205165
N2    N     N_2   0.852680 0.498640 0.499000 -0.056723
N3    N     N_2   0.123766 0.269920 0.093340 -0.316391
N4    N     N_2   0.173945 0.308321 0.415360 -0.324857
N5    N     N_2   0.864781 0.535994 0.581602 -0.284034
N6    N     N_2   0.539518 0.600014 0.808120 -0.294846
O1    O     O_R   0.386950 0.680940 0.500010 -0.614801
O2    O     O_3   0.932318 0.378220 0.367845 -0.763625
O3    O     O_3   0.915078 0.480180 0.874053 -0.741306
O4    O     O_3   0.730727 0.401636 0.796415 -0.756206
O5    O     O_R   0.613110 0.680900 0.499990 -0.628355
O6    O     O_R   0.322330 0.500030 0.632270 -0.588366
O7    O     O_R   0.548480 0.499990 0.632240 -0.625621
O8    O     O_R   0.386890 0.319100 0.500010 -0.621723
O9    O     O_R   0.613050 0.319060 0.499990 -0.581434
O10   O     O_R   0.451520 0.500010 0.367760 -0.639638
O11   O     O_R   0.677670 0.499970 0.367730 -0.557748
O12   O     O_3   0.377210 0.926890 0.578836 -0.775793
Zn1   Zn    Zn3+2 0.349000 0.500030 0.500020 0.948267
Zn2   Zn    Zn3+2 0.651000 0.499970 0.499980 0.984933

loop_
_geom_bond_atom_site_label_1
_geom_bond_atom_site_label_2
_ccdc_geom_bond_type
C24   H10   S    
C19   C20   A    
C25   N5    S    
C12   C23   A    
N1    Zn1   S    
C28   C29   A    
C3    C7    A    
C5    C6    A    
H3    N3    S    
C22   H6    S    
C17   C20   A    
C2    C32   A    
C4    O7    A    
C8    C9    D    
H24   O4    S    
C5    H1    S    
C9    H23   S    
C25   H15   S    
C4    O6    A    
C24   N4    S    
C1    O1    A    
C15   O8    A    
H8    N4    S    
C13   C14   S    
C24   H9    S    
C14   O2    S    
C26   H22   S    
C7    H27   S    
C32   O3    S    
C13   N4    S    
C6    C18   A    
C12   C27   A    
C27   C31   A    
N2    N5    S    
C6    H28   S    
C10   H25   S    
C11   O12   S    
C22   H5    S    
C29   H2    S    
C17   C21   A    
C19   C23   A    
H18   O3    S    
C23   C30   A    
C22   N3    S    
C29   C30   A    
C26   H20   S    
C31   C32   A    
C13   N1    D    
C7    C18   A    
C14   N2    D    
C25   H16   S    
N2    Zn2   S    
C4    C17   S    
C16   C18   S    
C31   O4    S    
C21   N6    S    
C2    C5    A    
O6    Zn1   S    
C26   H21   S    
O5    Zn2   S    
H26   N1    S    
C3    C28   A    
H13   O2    S    
C8    H12   S    
O8    Zn1   S    
O11   Zn2   S    
O7    Zn2   S    
C22   H4    S    
C16   O11   A    
C1    O5    A    
H7    O12   S    
C2    C3    A    
C9    C15   S    
C26   N6    S    
H14   N5    S    
O10   Zn1   S    
C15   O9    A    
O9    Zn2   S    
C19   H29   S    
C12   C21   A    
C16   O10   A    
H19   N6    S    
C20   H30   S    
C25   H17   S    
C30   N3    S    
O1    Zn1   S    
C10   C11   D    
C8    C10   S    
C27   C28   A    
C24   H11   S    
C1    C11   S    
