data_mof_unit_31566.cif
_audit_creation_date              2012-12-11T15:21:39-0500
_audit_creation_method            fapswitch 2.2
_symmetry_space_group_name_H-M    P1
_symmetry_Int_Tables_number       1
_space_group_crystal_system       triclinic
_cell_length_a                    19.155313
_cell_length_b                    7.146271
_cell_length_c                    17.695589
_cell_angle_alpha                 89.922954
_cell_angle_beta                  109.060813
_cell_angle_gamma                 90.074314
_cell_volume                      2289.51903066

loop_
_atom_site_label
_atom_site_type_symbol
_atom_type_description
_atom_site_fract_x
_atom_site_fract_y
_atom_site_fract_z
_atom_type_partial_charge
O1    O     O_R   0.562310 0.505770 0.439670 -0.536652
O2    O     O_R   0.437690 0.005770 0.560330 -0.537213
O3    O     O_R   0.411650 0.169150 0.405330 -0.537660
O4    O     O_R   0.588350 0.669150 0.594670 -0.537111
C1    C     C_R   0.384576 0.345900 0.382714 0.624696
C2    C     C_R   0.615414 0.845913 0.617303 0.626706
O5    O     O_R   0.560140 0.175610 0.430010 -0.539928
O6    O     O_R   0.439860 0.675610 0.569990 -0.540383
O7    O     O_R   0.587240 0.012100 0.585200 -0.538953
O8    O     O_R   0.412760 0.512100 0.414800 -0.539107
C3    C     C_R   0.580938 0.344757 0.414785 0.701528
C4    C     C_R   0.418746 0.844517 0.584890 0.702061
O9    O     O_3   0.508720 0.341420 0.550890 -0.370870
O10   O     O_3   0.491280 0.841420 0.449110 -0.371537
V1    V     V_3+5 0.498380 0.063930 0.490560 1.379520
V2    V     V_3+5 0.501620 0.563930 0.509440 1.380153
C5    C     C_R   0.173592 0.755694 0.867970 -0.273836
C6    C     C_R   0.823446 0.564195 0.137613 -0.288928
C7    C     C_R   0.130059 0.916477 0.864496 -0.197728
C8    C     C_R   0.871056 0.414887 0.136598 -0.191893
C9    C     C_R   0.134381 0.065415 0.813559 0.551167
C10   C     C_R   0.870867 0.253736 0.182979 0.551841
C11   C     C_R   0.181458 0.053426 0.766994 -0.023244
C12   C     C_R   0.823402 0.241618 0.229086 -0.023250
C13   C     C_R   0.225185 0.891981 0.771733 -0.027735
C14   C     C_R   0.775161 0.391192 0.228554 -0.024602
C15   C     C_R   0.221209 0.742903 0.822451 0.094526
C16   C     C_R   0.775216 0.552813 0.182636 0.090210
C17   C     C_R   0.185644 0.199874 0.715526 -0.126018
C18   C     C_R   0.823130 0.082434 0.275786 -0.133968
C19   C     C_R   0.233118 0.187698 0.670165 -0.220535
C20   C     C_R   0.775144 0.070550 0.320621 -0.213926
C21   C     C_R   0.277200 0.028642 0.675017 0.095335
C22   C     C_R   0.726386 0.217358 0.319780 0.096983
C23   C     C_R   0.273003 0.879486 0.725606 0.089176
C24   C     C_R   0.726700 0.379113 0.274028 0.088582
C25   C     C_R   0.316579 0.717924 0.730161 0.093771
C26   C     C_R   0.678697 0.528932 0.273776 0.091700
C27   C     C_R   0.312467 0.571197 0.781329 -0.203626
C28   C     C_R   0.678881 0.688303 0.227390 -0.202331
C29   C     C_R   0.265207 0.583514 0.827012 -0.152918
C30   C     C_R   0.726565 0.699942 0.182127 -0.158291
C31   C     C_R   0.325240 0.016278 0.629990 -0.218178
C32   C     C_R   0.677701 0.205559 0.364264 -0.223618
C33   C     C_R   0.368682 0.855357 0.633665 -0.085125
C34   C     C_R   0.630298 0.355287 0.365227 -0.082953
C35   C     C_R   0.363584 0.706138 0.683694 -0.230722
C36   C     C_R   0.631428 0.516871 0.319902 -0.226924
H1    H     H_    0.171229 0.640640 0.907065 0.166537
H2    H     H_    0.822840 0.688168 0.102008 0.166376
H3    H     H_    0.152548 0.324966 0.710493 0.188504
H4    H     H_    0.859684 0.965855 0.277413 0.187086
H5    H     H_    0.235564 0.303415 0.631460 0.134356
H6    H     H_    0.775997 0.945790 0.355786 0.138191
H7    H     H_    0.328021 0.131598 0.591196 0.127721
H8    H     H_    0.677811 0.081177 0.399465 0.125394
H9    H     H_    0.396849 0.581743 0.687294 0.130562
H10   H     H_    0.594933 0.632746 0.319863 0.129941
H11   H     H_    0.345660 0.446391 0.785848 0.133477
H12   H     H_    0.642298 0.804541 0.226335 0.131148
H13   H     H_    0.262861 0.467755 0.865739 0.132517
H14   H     H_    0.725607 0.824714 0.146938 0.131689
C37   C     C_3   0.752016 0.812276 0.837910 -0.312713
C38   C     C_3   0.248018 0.313272 0.162073 -0.312951
H15   H     H_    0.772248 0.672937 0.864052 0.136926
H16   H     H_    0.227844 0.174010 0.135834 0.136893
H17   H     H_    0.740210 0.895443 0.885455 0.122588
H18   H     H_    0.259809 0.397139 0.114596 0.121641
C39   C     C_3   0.679385 0.785137 0.766297 -0.327557
C40   C     C_3   0.320645 0.286106 0.233685 -0.327222
H19   H     H_    0.632950 0.855354 0.779673 0.124764
H20   H     H_    0.367063 0.356994 0.220372 0.124217
H21   H     H_    0.665798 0.633447 0.758339 0.139752
H22   H     H_    0.334286 0.134475 0.241544 0.139845
H23   H     H_    0.847910 0.653522 0.767022 0.150119
H24   H     H_    0.152147 0.152624 0.232826 0.155485
H25   H     H_    0.740523 0.614243 0.662544 0.141598
H26   H     H_    0.259543 0.113325 0.337295 0.141452
C41   C     C_3   0.825602 0.793385 0.743537 -0.304844
C42   C     C_3   0.174404 0.292464 0.256406 -0.295350
C43   C     C_3   0.781614 0.104269 0.775629 -0.335545
C44   C     C_3   0.218285 0.604207 0.224523 -0.336757
C45   C     C_3   0.812627 0.912477 0.811458 0.113914
C46   C     C_3   0.187354 0.412482 0.188566 0.110333
H27   H     H_    0.822972 0.179299 0.754841 0.148669
H28   H     H_    0.176889 0.678542 0.245344 0.146147
H29   H     H_    0.770567 0.192810 0.822179 0.133213
H30   H     H_    0.229313 0.693399 0.178037 0.134100
C47   C     C_3   0.687333 0.866806 0.688363 0.113064
C48   C     C_3   0.312647 0.366787 0.311663 0.114521
C49   C     C_3   0.752735 0.766308 0.672225 -0.328434
C50   C     C_3   0.247273 0.265366 0.327717 -0.334435
C51   C     C_3   0.709400 0.078324 0.704672 -0.285452
C52   C     C_3   0.290498 0.578249 0.295479 -0.284677
H31   H     H_    0.664373 0.156221 0.717774 0.142738
H32   H     H_    0.335499 0.656791 0.282430 0.141988
H33   H     H_    0.716757 0.142713 0.650432 0.138898
H34   H     H_    0.283110 0.641952 0.349753 0.139088
H35   H     H_    0.867614 0.862740 0.721963 0.136767
H36   H     H_    0.132355 0.361098 0.278010 0.138014
H37   H     H_    0.760007 0.822701 0.616627 0.128409
H38   H     H_    0.239970 0.321000 0.383354 0.128015
O11   O     O_R   0.087220 0.271820 0.085230 -0.543238
O12   O     O_R   0.912780 0.771820 0.914770 -0.547891
O13   O     O_R   0.939860 0.595540 0.069990 -0.539374
O14   O     O_R   0.060140 0.095540 0.930010 -0.501966
C53   C     C_R   0.919550 0.426189 0.085858 0.745913
C54   C     C_R   0.080810 0.926718 0.914480 0.742367
O15   O     O_R   0.088340 0.601930 0.094680 -0.544674
O16   O     O_R   0.911660 0.101930 0.905320 -0.540894
O17   O     O_R   0.062310 0.765410 0.939660 -0.543730
O18   O     O_R   0.937690 0.265410 0.060340 -0.503035
C55   C     C_R   0.115887 0.431861 0.117851 0.637959
C56   C     C_R   0.884103 0.931854 0.882156 0.639998
O19   O     O_3   0.991270 0.429630 0.949130 -0.367054
O20   O     O_3   0.008730 0.929630 0.050870 -0.357815
V3    V     V_3+5 0.001620 0.707150 0.009440 1.447777
V4    V     V_3+5 0.998380 0.207150 0.990560 1.509303
F1    F     F_    0.091983 0.220559 0.807974 -0.696295
F2    F     F_    0.917667 0.109831 0.184462 -0.696264

loop_
_geom_bond_atom_site_label_1
_geom_bond_atom_site_label_2
_ccdc_geom_bond_type
O18   V4    S    
C37   H15   S    
O4    V2    S    
C46   C55   S    
C28   H12   S    
C53   O18   A    
O1    C3    A    
C29   H13   S    
C42   C46   S    
O2    C4    A    
O16   V4    S    
C2    O7    A    
O15   V3    S    
C27   C29   A    
C10   F2    S    
O13   C53   A    
C44   C52   S    
C11   C17   A    
C41   H35   S    
C23   C25   A    
C12   C14   A    
C38   H18   S    
C52   H34   S    
O20   V3    S    
C6    C8    A    
C39   H19   S    
C32   H8    S    
C38   C46   S    
C18   H4    S    
C5    C7    A    
C37   C39   S    
C41   C45   S    
C40   H22   S    
C19   C21   A    
C39   H21   S    
C38   C40   S    
C25   C35   A    
C30   H14   S    
C41   C49   S    
C1    C48   S    
C50   H38   S    
C8    C53   S    
C7    C54   S    
C28   C30   A    
C51   H31   S    
C26   C28   A    
C42   H36   S    
C17   C19   A    
C45   C56   S    
O13   V3    S    
C40   C48   S    
C49   H37   S    
C39   C47   S    
C20   H6    S    
C43   C45   S    
C32   C34   A    
C43   H27   S    
C48   C52   S    
C34   C36   A    
C33   C35   A    
C37   H17   S    
C5    C15   A    
C6    C16   A    
O4    C2    A    
C5    H1    S    
O5    V1    S    
H26   C50   S    
C44   H28   S    
C37   C45   S    
C38   H16   S    
C42   C50   S    
O5    C3    A    
C35   H9    S    
C43   C51   S    
C15   C29   A    
C48   C50   S    
O6    C4    A    
O19   V4    S    
C27   H11   S    
C22   C32   A    
O1    V2    S    
C19   H5    S    
C52   H32   S    
O2    V1    S    
C31   C33   A    
C43   H29   S    
C13   C23   A    
O12   C56   A    
C14   C24   A    
C8    C10   A    
C44   C46   S    
C9    C11   A    
C10   C12   A    
O11   V4    S    
C47   C49   S    
C51   H33   S    
O3    V1    S    
C6    H2    S    
O12   V3    S    
C17   H3    S    
C31   H7    S    
O16   C56   A    
H25   C49   S    
O11   C55   A    
C26   C36   A    
H24   C42   S    
C4    C33   S    
O3    C1    A    
C9    F1    S    
C36   H10   S    
O15   C55   A    
C13   C15   A    
C2    C47   S    
C14   C16   A    
C54   O17   A    
O17   V3    S    
C24   C26   A    
O7    V1    S    
C1    O8    A    
C25   C27   A    
O8    V2    S    
C18   C20   A    
O14   C54   A    
C44   H30   S    
C16   C30   A    
C21   C23   A    
C22   C24   A    
C11   C13   A    
C47   C51   S    
C12   C18   A    
O6    V2    S    
O9    V2    S    
O10   V1    S    
C3    C34   S    
C40   H20   S    
C21   C31   A    
H23   C41   S    
O14   V4    S    
C20   C22   A    
C7    C9    A    
