data_mof_unit_45713.cif
_audit_creation_date              2013-03-05T16:13:15-0500
_audit_creation_method            fapswitch 2.2
_symmetry_space_group_name_H-M    P1
_symmetry_Int_Tables_number       1
_space_group_crystal_system       triclinic
_cell_length_a                    10.67762
_cell_length_b                    9.814949
_cell_length_c                    14.952887
_cell_angle_alpha                 89.690428
_cell_angle_beta                  90.141496
_cell_angle_gamma                 90.839695
_cell_volume                      1566.87134514

loop_
_atom_site_label
_atom_site_type_symbol
_atom_site_description
_atom_site_fract_x
_atom_site_fract_y
_atom_site_fract_z
_atom_type_partial_charge
O1    O     O_R   0.316770 0.614620 0.499990 -0.595126
O2    O     O_R   0.683230 0.385380 0.500010 -0.616000
O3    O     O_R   0.683230 0.614620 0.500010 -0.595876
O4    O     O_R   0.316770 0.385380 0.499990 -0.606210
N1    N     N_R   0.500000 0.857200 0.500000 -0.110002
N2    N     N_R   0.500000 0.142800 0.500000 -0.113270
C1    C     C_R   0.260242 0.498773 0.499977 1.011950
C2    C     C_R   0.739906 0.501241 0.500557 0.998058
O5    O     O_R   0.499990 0.614660 0.369060 -0.576268
O6    O     O_R   0.500010 0.385340 0.630940 -0.567729
O7    O     O_R   0.500010 0.614660 0.630940 -0.601287
O8    O     O_R   0.499990 0.385340 0.369060 -0.595010
C3    C     C_R   0.497248 0.500241 0.326753 0.957256
C4    C     C_R   0.492655 0.499176 0.672507 0.973669
Zn1   Zn    Zn3+2 0.500000 0.653120 0.500000 1.092996
Zn2   Zn    Zn3+2 0.500000 0.346880 0.500000 1.090440
H1    H     H_    0.658848 0.128551 0.584721 0.190807
H2    H     H_    0.341635 0.871444 0.414858 0.187799
H3    H     H_    0.340681 0.124904 0.415825 0.184338
H4    H     H_    0.658578 0.875018 0.584979 0.162329
C5    C     C_R   0.588379 0.073027 0.547046 0.036725
C6    C     C_R   0.411830 0.926959 0.452762 0.039615
C7    C     C_R   0.411529 0.070995 0.453068 0.058077
C8    C     C_R   0.588226 0.928965 0.547201 0.021522
C9    C     C_R   0.064185 0.424935 0.566920 0.214916
C10   C     C_R   0.936617 0.576671 0.435470 0.190698
C11   C     C_R   0.934706 0.430777 0.569688 0.206333
C12   C     C_R   0.065795 0.570980 0.432536 0.218579
C13   C     C_R   0.455859 0.624028 0.089657 -0.163680
C14   C     C_R   0.484903 0.388796 0.912541 -0.175611
C15   C     C_R   0.374831 0.601842 0.898486 -0.161069
C16   C     C_R   0.395852 0.385881 0.097706 -0.158987
C17   C     C_R   0.484975 0.624106 0.180077 0.305196
C18   C     C_R   0.505444 0.386017 0.821425 0.321802
C19   C     C_R   0.394907 0.602610 0.806710 0.288240
C20   C     C_R   0.427621 0.381259 0.187398 0.305424
C21   C     C_R   0.474786 0.500723 0.229962 -0.254500
C22   C     C_R   0.464729 0.496159 0.767788 -0.270863
C23   C     C_R   0.416306 0.504339 0.048003 0.024891
C24   C     C_R   0.420949 0.496405 0.951236 0.023166
C25   C     C_R   0.872475 0.504823 0.502920 -0.352454
C26   C     C_R   0.127979 0.495537 0.498561 -0.334948
H5    H     H_    0.473166 0.715790 0.050669 0.189902
H6    H     H_    0.522466 0.307615 0.953575 0.189947
H7    H     H_    0.322860 0.683510 0.928857 0.199574
H8    H     H_    0.363046 0.293490 0.065185 0.196445
N3    N     N_R   0.529795 0.749290 0.218312 0.227314
O9    O     O_R   0.643455 0.757443 0.249244 -0.263868
O10   O     O_R   0.467803 0.860834 0.205283 -0.296072
N4    N     N_R   0.569148 0.271115 0.785501 0.232457
O11   O     O_R   0.503798 0.175919 0.746049 -0.316375
O12   O     O_R   0.680062 0.242047 0.815591 -0.274705
N5    N     N_R   0.339922 0.709242 0.754234 0.233837
O13   O     O_R   0.264901 0.678651 0.688441 -0.342672
O14   O     O_R   0.345421 0.834501 0.782225 -0.304782
N6    N     N_R   0.413732 0.253024 0.232747 0.217326
O15   O     O_R   0.512690 0.181253 0.249391 -0.309638
O16   O     O_R   0.303926 0.194076 0.236296 -0.329828
N7    N     N_R   0.131125 0.356614 0.636971 0.241256
O17   O     O_R   0.129147 0.404351 0.717985 -0.293249
O18   O     O_R   0.178108 0.237139 0.622703 -0.298489
N8    N     N_R   0.870319 0.648832 0.367132 0.248330
O19   O     O_R   0.869780 0.603011 0.285659 -0.287292
O20   O     O_R   0.832472 0.771841 0.382603 -0.274380
N9    N     N_R   0.866879 0.366428 0.641684 0.246205
O21   O     O_R   0.889697 0.241122 0.664578 -0.275009
O22   O     O_R   0.787550 0.436105 0.688096 -0.367467
N10   N     N_R   0.133354 0.638842 0.361676 0.238585
O23   O     O_R   0.112377 0.766083 0.342880 -0.287461
O24   O     O_R   0.210032 0.570939 0.311986 -0.395826

loop_
_geom_bond_atom_site_label_1
_geom_bond_atom_site_label_2
_geom_bond_distance
_ccdc_geom_bond_type
C9    C26   1.403907 A    
O4    Zn2   1.998047 S    
C18   N4    1.433146 S    
N4    O12   1.300866 A    
C15   H7    1.083929 S    
N8    O19   1.300874 A    
C20   N6    1.432394 S    
C19   N5    1.436171 S    
O2    Zn2   1.987173 S    
C11   C25   1.403397 A    
C10   C12   1.382077 A    
N3    O9    1.299230 A    
N9    O22   1.300697 A    
N8    O20   1.300861 A    
C13   C23   1.392266 A    
H2    C6    1.081278 S    
N4    O11   1.301047 A    
O5    Zn1   1.995990 S    
C14   C24   1.395097 A    
N7    O17   1.301538 A    
N3    O10   1.301148 A    
O6    Zn2   1.995987 S    
N5    O13   1.300744 A    
C13   H5    1.084042 S    
O8    C3    1.290750 A    
C14   H6    1.084013 S    
O8    Zn2   1.991986 S    
N1    C8    1.365414 A    
O7    Zn1   1.991983 S    
C3    C21   1.466458 S    
O4    C1    1.273829 A    
O1    Zn1   1.987173 S    
N2    C7    1.365329 A    
C16   C20   1.383245 A    
C12   C26   1.402545 A    
C20   C21   1.422214 A    
C12   N10   1.438310 S    
N6    O16   1.300897 A    
C17   C21   1.421804 A    
N9    O21   1.301144 A    
N5    O14   1.301313 A    
C11   N9    1.437160 S    
C10   N8    1.431857 S    
C9    C11   1.385288 A    
C17   N3    1.433363 S    
O7    C4    1.291218 A    
C15   C19   1.389436 A    
N1    Zn1   2.003035 S    
C4    C22   1.456373 S    
N6    O15   1.301254 A    
C5    C8    1.413932 A    
N2    Zn2   2.003035 S    
C13   C17   1.386572 A    
C19   C22   1.420465 A    
O3    Zn1   1.998047 S    
C2    C25   1.415800 S    
N10   O24   1.300357 A    
O3    C2    1.274459 A    
O6    C4    1.284972 A    
C1    C26   1.412258 S    
O2    C2    1.280374 A    
C23   C24   1.450475 S    
C16   C23   1.391346 A    
C14   C18   1.381015 A    
H3    C7    1.081120 S    
O5    C3    1.291834 A    
C9    N7    1.435441 S    
O1    C1    1.279473 A    
C15   C24   1.392760 A    
C18   C22   1.415478 A    
N2    C5    1.365594 A    
C16   H8    1.084482 S    
C6    C7    1.413786 A    
H1    C5    1.081528 S    
N1    C6    1.365438 A    
H4    C8    1.081700 S    
C10   C25   1.401831 A    
N10   O23   1.301120 A    
N7    O18   1.301055 A    
