data_mof_unit_12999.cif
_audit_creation_date              2012-12-10T17:36:34-0500
_audit_creation_method            fapswitch 2.2
_symmetry_space_group_name_H-M    P1
_symmetry_Int_Tables_number       1
_space_group_crystal_system       triclinic
_cell_length_a                    12.020487
_cell_length_b                    12.878908
_cell_length_c                    15.72406
_cell_angle_alpha                 90.424802
_cell_angle_beta                  85.759603
_cell_angle_gamma                 93.827594
_cell_volume                      2422.16750648

loop_
_atom_site_label
_atom_site_type_symbol
_atom_type_description
_atom_site_fract_x
_atom_site_fract_y
_atom_site_fract_z
_atom_type_partial_charge
C1    C     C_R   0.522751 0.700569 0.498179 0.899113
C2    C     C_R   0.550191 0.026637 0.510608 0.113464
C3    C     C_R   0.957487 0.421795 0.406404 0.396466
C4    C     C_R   0.042513 0.578205 0.593596 0.396465
C5    C     C_R   0.840096 0.427951 0.416822 0.552404
C6    C     C_R   0.159904 0.572049 0.583177 0.552408
C7    C     C_R   0.856247 0.526376 0.544004 -0.110263
C8    C     C_R   0.143753 0.473624 0.455996 -0.110260
C9    C     C_R   0.974360 0.526457 0.534917 -0.181242
C10   C     C_R   0.025640 0.473543 0.465082 -0.181244
C11   C     C_R   0.499809 0.500257 0.662071 0.894340
C12   C     C_R   0.477249 0.299431 0.501820 0.899120
C13   C     C_R   0.500191 0.499744 0.337929 0.894335
C14   C     C_3   0.492015 0.595491 0.029213 0.638657
C15   C     C_3   0.507985 0.404509 0.970787 0.638658
C16   C     C_3   0.588527 0.561933 0.967356 -0.315288
C17   C     C_3   0.411473 0.438067 0.032644 -0.315287
C18   C     C_1   0.499353 0.500819 0.751019 -0.149961
C19   C     C_1   0.500647 0.499181 0.248980 -0.149961
C20   C     C_3   0.402825 0.536939 0.978168 -0.307244
C21   C     C_3   0.597175 0.463061 0.021832 -0.307245
C22   C     C_3   0.499492 0.501517 0.917183 0.043052
C23   C     C_R   0.645057 0.973091 0.522396 -0.300918
C24   C     C_3   0.500508 0.498483 0.082817 0.043052
C25   C     C_1   0.499254 0.501243 0.826323 0.025835
C26   C     C_1   0.500746 0.498757 0.173677 0.025834
C27   C     C_R   0.462098 0.187610 0.502994 -0.170433
C28   C     C_R   0.537902 0.812390 0.497003 -0.170441
C29   C     C_3   0.477257 0.769263 0.003355 -0.313549
C30   C     C_3   0.522742 0.230737 0.996645 -0.313550
C31   C     C_3   0.190288 0.179812 0.542060 -0.323136
C32   C     C_3   0.809691 0.820157 0.457920 -0.323112
C33   C     C_3   0.242653 0.720663 0.638639 -0.216159
C34   C     C_R   0.354944 0.026909 0.477600 -0.300929
C35   C     C_3   0.757346 0.279338 0.361360 -0.216158
C36   C     C_3   0.032350 0.272162 0.356558 -0.320723
C37   C     C_3   0.967650 0.727840 0.643440 -0.320718
C38   C     C_R   0.640401 0.865366 0.514069 0.532018
C39   C     C_R   0.359600 0.134635 0.485927 0.532026
C40   C     C_R   0.445033 0.866934 0.481480 -0.341250
C41   C     C_R   0.554968 0.133066 0.518517 -0.341257
C42   C     C_R   0.449809 0.973363 0.489388 0.113470
H1    H     H_    0.659333 0.612983 0.938729 0.168469
H2    H     H_    0.814387 0.563672 0.597878 0.207149
H3    H     H_    0.401495 0.753374 0.967581 0.161170
H4    H     H_    0.553817 0.773931 0.958924 0.158628
H5    H     H_    0.470726 0.846598 0.034158 0.194345
H6    H     H_    0.446182 0.226069 0.041075 0.158628
H7    H     H_    0.598505 0.246626 0.032419 0.161170
H8    H     H_    0.529274 0.153402 0.965842 0.194346
H9    H     H_    0.229278 0.206970 0.601105 0.176043
H10   H     H_    0.153125 0.098748 0.550188 0.149720
H11   H     H_    0.121248 0.230564 0.532606 0.183846
H12   H     H_    0.340667 0.387018 0.061271 0.168469
H13   H     H_    0.846829 0.901224 0.449745 0.149711
H14   H     H_    0.770686 0.792942 0.398897 0.176067
H15   H     H_    0.878751 0.769435 0.467389 0.183835
H16   H     H_    0.186159 0.757799 0.686951 0.173927
H17   H     H_    0.231147 0.751629 0.574038 0.105145
H18   H     H_    0.329483 0.744244 0.653709 0.178548
H19   H     H_    0.768853 0.248371 0.425961 0.105144
H20   H     H_    0.813841 0.242203 0.313048 0.173927
H21   H     H_    0.670517 0.255758 0.346290 0.178548
H22   H     H_    0.977661 0.235473 0.409997 0.119570
H23   H     H_    0.675169 0.432050 0.041789 0.171885
H24   H     H_    0.120695 0.273800 0.372309 0.218521
H25   H     H_    0.024531 0.220875 0.300040 0.190755
H26   H     H_    0.879305 0.726201 0.627688 0.218520
H27   H     H_    0.022339 0.764528 0.590000 0.119571
H28   H     H_    0.975469 0.779128 0.699957 0.190754
H29   H     H_    0.324831 0.567950 0.958211 0.171885
H30   H     H_    0.632381 0.173570 0.535237 0.178235
H31   H     H_    0.367619 0.826429 0.464760 0.178234
H32   H     H_    0.722197 0.014377 0.538740 0.147089
H33   H     H_    0.277804 0.985623 0.461254 0.147083
H34   H     H_    0.185613 0.436328 0.402122 0.207148
N1    N     N_R   0.207800 0.519340 0.515560 -0.174132
N2    N     N_R   0.792200 0.480660 0.484440 -0.174133
O1    O     O_R   0.421700 0.658830 0.504150 -0.626016
O2    O     O_3   0.516225 0.305566 0.932662 -0.597996
O3    O     O_3   0.267426 0.188156 0.469945 -0.613951
O4    O     O_3   0.732576 0.811847 0.530050 -0.613958
O5    O     O_3   0.226533 0.611330 0.645407 -0.562592
O6    O     O_3   0.773467 0.388671 0.354592 -0.562592
O7    O     O_3   0.003830 0.372927 0.334766 -0.585607
O8    O     O_3   0.996170 0.627074 0.665233 -0.585607
O9    O     O_R   0.578300 0.341170 0.495850 -0.626018
O10   O     O_R   0.609310 0.646410 0.494170 -0.575160
O11   O     O_R   0.390690 0.353590 0.505830 -0.575143
O12   O     O_R   0.406210 0.506220 0.628210 -0.557799
O13   O     O_R   0.593790 0.493780 0.371790 -0.557804
O14   O     O_R   0.593830 0.493800 0.618230 -0.626663
O15   O     O_R   0.406170 0.506200 0.381770 -0.626665
O16   O     O_3   0.483775 0.694434 0.067338 -0.597997
Zn1   Zn    Zn3+2 0.374730 0.508290 0.506660 0.991685
Zn2   Zn    Zn3+2 0.625270 0.491710 0.493340 0.991675

loop_
_geom_bond_atom_site_label_1
_geom_bond_atom_site_label_2
_ccdc_geom_bond_type
O10   Zn2   S    
C11   C18   S    
C33   H16   S    
C37   H27   S    
C3    O7    S    
C34   C42   A    
O14   Zn2   S    
C31   H10   S    
C36   H25   S    
O12   Zn1   S    
C16   C21   S    
C29   H5    S    
C30   H6    S    
C24   C26   S    
C29   O16   S    
C36   H24   S    
C4    O8    S    
C28   C40   A    
C2    C41   A    
C37   H26   S    
C8    H34   S    
C17   C20   S    
C40   H31   S    
C7    C9    A    
C14   C24   S    
C19   C26   T    
C27   C41   A    
O13   Zn2   S    
C11   O14   A    
C15   C22   S    
C27   C39   A    
C22   C25   S    
C1    C28   S    
C20   H29   S    
C9    C10   A    
C32   H13   S    
C34   H33   S    
C30   O2    S    
C1    O10   A    
C40   C42   A    
C30   H8    S    
C33   H17   S    
C37   H28   S    
C38   O4    S    
C18   C25   T    
C32   H15   S    
C17   C24   S    
C13   C19   S    
C12   C27   S    
C34   C39   A    
C14   C20   S    
C12   O11   A    
C39   O3    S    
C4    C6    A    
N2    Zn2   S    
C5    O6    S    
C6    N1    A    
N1    Zn1   S    
C13   O15   A    
O11   Zn1   S    
O1    Zn1   S    
C37   O8    S    
C15   O2    S    
C28   C38   A    
O9    Zn2   S    
C35   H19   S    
C7    H2    S    
C31   H11   S    
C33   O5    S    
C16   H1    S    
C41   H30   S    
C30   H7    S    
C20   C22   S    
C33   H18   S    
C7    N2    A    
C8    N1    A    
C1    O1    A    
C14   C16   S    
C23   H32   S    
C15   C17   S    
C16   C22   S    
C6    O5    S    
C12   O9    A    
C21   H23   S    
C31   H9    S    
C3    C5    A    
C35   O6    S    
C36   O7    S    
C23   C38   A    
C32   O4    S    
C31   O3    S    
C29   H4    S    
C4    C9    A    
C3    C10   A    
C11   O12   A    
O15   Zn1   S    
C2    C42   A    
C32   H14   S    
C35   H20   S    
C15   C21   S    
C8    C10   A    
C21   C24   S    
C29   H3    S    
C2    C23   A    
C35   H21   S    
C5    N2    A    
C36   H22   S    
C17   H12   S    
C14   O16   S    
C13   O13   A    
