data_mof_unit_19172.cif
_audit_creation_date              2012-12-11T16:19:17-0500
_audit_creation_method            fapswitch 2.2
_symmetry_space_group_name_H-M    P1
_symmetry_Int_Tables_number       1
_space_group_crystal_system       triclinic
_cell_length_a                    6.923453
_cell_length_b                    31.329327
_cell_length_c                    35.042066
_cell_angle_alpha                 89.949467
_cell_angle_beta                  89.639766
_cell_angle_gamma                 89.90723
_cell_volume                      7600.71063886

loop_
_atom_site_label
_atom_site_type_symbol
_atom_type_description
_atom_site_fract_x
_atom_site_fract_y
_atom_site_fract_z
_atom_type_partial_charge
O1    O     O_R   0.417270 0.211480 0.210950 -0.541872
O2    O     O_R   0.582730 0.788520 0.789050 -0.541872
O3    O     O_R   0.582730 0.788520 0.710950 -0.533420
O4    O     O_R   0.417270 0.211480 0.289050 -0.533420
O5    O     O_R   0.917270 0.288520 0.289050 -0.536585
O6    O     O_R   0.082730 0.711480 0.710950 -0.536585
O7    O     O_R   0.082730 0.711480 0.789050 -0.542171
O8    O     O_R   0.917270 0.288520 0.210950 -0.542171
O9    O     O_R   0.746940 0.206370 0.288750 -0.533248
O10   O     O_R   0.253060 0.793630 0.711250 -0.533248
O11   O     O_R   0.253060 0.793630 0.788750 -0.537017
O12   O     O_R   0.746940 0.206370 0.211250 -0.537016
O13   O     O_R   0.246940 0.293630 0.211250 -0.537597
O14   O     O_R   0.753060 0.706370 0.788750 -0.537598
O15   O     O_R   0.753060 0.706370 0.711250 -0.533902
O16   O     O_R   0.246940 0.293630 0.288750 -0.533902
C1    C     C_R   0.577823 0.196391 0.302162 0.713347
C2    C     C_R   0.422176 0.803609 0.697838 0.713346
C3    C     C_R   0.420803 0.803346 0.802530 0.711492
C4    C     C_R   0.579197 0.196653 0.197470 0.711492
C5    C     C_R   0.079058 0.303310 0.197464 0.709728
C6    C     C_R   0.920942 0.696690 0.802535 0.709729
C7    C     C_R   0.922229 0.695912 0.698384 0.723789
C8    C     C_R   0.077771 0.304088 0.301616 0.723789
O17   O     O_3   0.583760 0.276950 0.250000 -0.367017
O18   O     O_3   0.416240 0.723050 0.750000 -0.367017
O19   O     O_3   0.083760 0.223050 0.250000 -0.365219
O20   O     O_3   0.916240 0.776950 0.750000 -0.365219
V1    V     V_3+5 0.858600 0.245000 0.250000 1.415280
V2    V     V_3+5 0.141400 0.755000 0.750000 1.415279
V3    V     V_3+5 0.358600 0.255000 0.250000 1.414636
V4    V     V_3+5 0.641400 0.745000 0.750000 1.414636
C9    C     C_R   0.819327 0.571451 0.549296 0.583099
C10   C     C_R   0.180672 0.428549 0.450704 0.583099
C11   C     C_R   0.874228 0.423561 0.049888 0.587349
C12   C     C_R   0.125772 0.576439 0.950112 0.587349
C13   C     C_R   0.625513 0.923508 0.950097 0.587444
C14   C     C_R   0.374487 0.076492 0.049903 0.587444
C15   C     C_R   0.369429 0.075166 0.449039 0.591074
C16   C     C_R   0.630571 0.924834 0.550961 0.591074
N1    N     N_R   0.968186 0.574520 0.574940 -0.549994
N2    N     N_R   0.031814 0.425480 0.425059 -0.549994
N3    N     N_R   0.024443 0.426034 0.075107 -0.548451
N4    N     N_R   0.975557 0.573966 0.924893 -0.548451
N5    N     N_R   0.474999 0.926049 0.924924 -0.548201
N6    N     N_R   0.525001 0.073951 0.075076 -0.548201
N7    N     N_R   0.521496 0.073020 0.423870 -0.552724
N8    N     N_R   0.478504 0.926980 0.576130 -0.552724
C17   C     C_R   0.127123 0.548596 0.571550 0.586645
C18   C     C_R   0.872877 0.451404 0.428450 0.586645
C19   C     C_R   0.162948 0.456874 0.071478 0.566953
C20   C     C_R   0.837052 0.543126 0.928522 0.566953
C21   C     C_R   0.336369 0.956959 0.928618 0.567216
C22   C     C_R   0.663631 0.043040 0.071382 0.567216
C23   C     C_R   0.662784 0.042857 0.427808 0.574590
C24   C     C_R   0.337216 0.957143 0.572192 0.574590
C25   C     C_R   0.138487 0.517579 0.542570 -0.077658
C26   C     C_R   0.861513 0.482421 0.457430 -0.077658
C27   C     C_R   0.156408 0.486409 0.041308 -0.064878
C28   C     C_R   0.843591 0.513590 0.958692 -0.064878
C29   C     C_R   0.343129 0.986480 0.958776 -0.064948
C30   C     C_R   0.656871 0.013520 0.041224 -0.064948
C31   C     C_R   0.656473 0.013412 0.458191 -0.072605
C32   C     C_R   0.343527 0.986587 0.541809 -0.072605
C33   C     C_R   0.991978 0.515127 0.515066 -0.049706
C34   C     C_R   0.008022 0.484873 0.484934 -0.049706
C35   C     C_R   0.003200 0.484931 0.015164 -0.052160
C36   C     C_R   0.996799 0.515069 0.984836 -0.052161
C37   C     C_R   0.496670 0.984932 0.984848 -0.052025
C38   C     C_R   0.503330 0.015068 0.015152 -0.052025
C39   C     C_R   0.502534 0.014855 0.484604 -0.049480
C40   C     C_R   0.497466 0.985145 0.515396 -0.049480
C41   C     C_R   0.830703 0.543060 0.517578 -0.040614
C42   C     C_R   0.169297 0.456940 0.482422 -0.040614
C43   C     C_R   0.857130 0.453371 0.019348 -0.033795
C44   C     C_R   0.142870 0.546629 0.980652 -0.033795
C45   C     C_R   0.642820 0.953305 0.980614 -0.033719
C46   C     C_R   0.357180 0.046695 0.019386 -0.033719
C47   C     C_R   0.354519 0.045993 0.480243 -0.039466
C48   C     C_R   0.645481 0.954007 0.519757 -0.039466
C49   C     C_R   0.295157 0.489250 0.540698 -0.137785
C50   C     C_R   0.704842 0.510750 0.459301 -0.137785
C51   C     C_R   0.301725 0.517115 0.036940 -0.134958
C52   C     C_R   0.698275 0.482885 0.963060 -0.134958
C53   C     C_R   0.197731 0.017258 0.963198 -0.134532
C54   C     C_R   0.802269 0.982741 0.036802 -0.134532
C55   C     C_R   0.803161 0.982990 0.462660 -0.135369
C56   C     C_R   0.196838 0.017010 0.537340 -0.135369
C57   C     C_R   0.311607 0.458613 0.511683 0.138807
C58   C     C_R   0.688392 0.541387 0.488317 0.138807
C59   C     C_R   0.298208 0.547103 0.007241 0.137554
C60   C     C_R   0.701791 0.452897 0.992758 0.137554
C61   C     C_R   0.201506 0.047241 0.992865 0.137530
C62   C     C_R   0.798494 0.952759 0.007135 0.137530
C63   C     C_R   0.800644 0.953360 0.492718 0.137766
C64   C     C_R   0.199356 0.046640 0.507282 0.137766
O21   O     O_2   0.659233 0.595079 0.555187 -0.515454
O22   O     O_2   0.340767 0.404921 0.444813 -0.515454
O23   O     O_2   0.744807 0.391837 0.054238 -0.535940
O24   O     O_2   0.255193 0.608163 0.945762 -0.535940
O25   O     O_2   0.755081 0.891733 0.945732 -0.536168
O26   O     O_2   0.244919 0.108267 0.054268 -0.536168
O27   O     O_2   0.234303 0.105510 0.443588 -0.522681
O28   O     O_2   0.765697 0.894490 0.556412 -0.522681
O29   O     O_2   0.275978 0.553086 0.595897 -0.512150
O30   O     O_2   0.724022 0.446914 0.404102 -0.512150
O31   O     O_2   0.307108 0.459050 0.097167 -0.528932
O32   O     O_2   0.692892 0.540950 0.902833 -0.528932
O33   O     O_2   0.191871 0.959239 0.903002 -0.528577
O34   O     O_2   0.808129 0.040761 0.096998 -0.528577
O35   O     O_2   0.810925 0.041705 0.402605 -0.518038
O36   O     O_2   0.189075 0.958295 0.597395 -0.518038
C65   C     C_R   0.011215 0.407266 0.356011 -0.067177
C66   C     C_R   0.988784 0.592734 0.643989 -0.067176
C67   C     C_R   0.106270 0.608380 0.866630 -0.086246
C68   C     C_R   0.893730 0.391620 0.133370 -0.086246
C69   C     C_R   0.394185 0.108462 0.133339 -0.086028
C70   C     C_R   0.605814 0.891538 0.866660 -0.086028
C71   C     C_R   0.508066 0.907006 0.644300 -0.069897
C72   C     C_R   0.491934 0.092994 0.355700 -0.069897
C73   C     C_R   0.019758 0.377507 0.326252 -0.244782
C74   C     C_R   0.980242 0.622492 0.673748 -0.244782
C75   C     C_R   0.091301 0.638310 0.837201 -0.256207
C76   C     C_R   0.908699 0.361690 0.162799 -0.256207
C77   C     C_R   0.409084 0.138361 0.162766 -0.255232
C78   C     C_R   0.590916 0.861639 0.837233 -0.255232
C79   C     C_R   0.494122 0.876656 0.673633 -0.239960
C80   C     C_R   0.505878 0.123343 0.326367 -0.239960
C81   C     C_R   0.068065 0.334817 0.333537 -0.047484
C82   C     C_R   0.931935 0.665183 0.666463 -0.047484
C83   C     C_R   0.929300 0.665338 0.834472 -0.066138
C84   C     C_R   0.070700 0.334662 0.165528 -0.066138
C85   C     C_R   0.571131 0.165261 0.165546 -0.066704
C86   C     C_R   0.428869 0.834739 0.834454 -0.066703
C87   C     C_R   0.433174 0.834762 0.665985 -0.041369
C88   C     C_R   0.566826 0.165238 0.334015 -0.041369
C89   C     C_R   0.107100 0.321907 0.371342 0.106114
C90   C     C_R   0.892900 0.678093 0.628658 0.106114
C91   C     C_R   0.781496 0.662234 0.862774 0.106268
C92   C     C_R   0.218504 0.337766 0.137226 0.106268
C93   C     C_R   0.719142 0.162006 0.137285 0.106609
C94   C     C_R   0.280858 0.837994 0.862715 0.106609
C95   C     C_R   0.388526 0.823358 0.627857 0.117339
C96   C     C_R   0.611473 0.176642 0.372142 0.117339
C97   C     C_R   0.088835 0.351591 0.401306 -0.068561
C98   C     C_R   0.911165 0.648409 0.598694 -0.068561
C99   C     C_R   0.799702 0.632099 0.892351 -0.086026
C100  C     C_R   0.200298 0.367901 0.107649 -0.086026
C101  C     C_R   0.701039 0.131898 0.107710 -0.086099
C102  C     C_R   0.298961 0.868102 0.892290 -0.086100
C103  C     C_R   0.404660 0.854097 0.598677 -0.081984
C104  C     C_R   0.595339 0.145903 0.401323 -0.081984
C105  C     C_R   0.043185 0.394651 0.394018 0.328624
C106  C     C_R   0.956815 0.605349 0.605982 0.328624
C107  C     C_R   0.960536 0.604951 0.894381 0.331011
C108  C     C_R   0.039463 0.395049 0.105619 0.331011
C109  C     C_R   0.540061 0.104897 0.105612 0.330682
C110  C     C_R   0.459938 0.895103 0.894388 0.330682
C111  C     C_R   0.463556 0.895912 0.606616 0.345925
C112  C     C_R   0.536444 0.104088 0.393384 0.345925
H1    H     H_    0.406003 0.490719 0.562357 0.172260
H2    H     H_    0.593996 0.509281 0.437643 0.172260
H3    H     H_    0.420497 0.517749 0.056930 0.169502
H4    H     H_    0.579503 0.482251 0.943070 0.169502
H5    H     H_    0.078685 0.017960 0.943270 0.169632
H6    H     H_    0.921315 0.982040 0.056730 0.169632
H7    H     H_    0.922103 0.982255 0.442415 0.169520
H8    H     H_    0.077897 0.017745 0.557585 0.169520
C113  C     C_3   0.477596 0.427369 0.514402 -0.671059
H9    H     H_    0.421176 0.394236 0.515480 0.221870
H10   H     H_    0.577093 0.431127 0.489810 0.245614
H11   H     H_    0.564732 0.432286 0.540541 0.178022
C114  C     C_3   0.522404 0.572631 0.485598 -0.671059
H12   H     H_    0.578824 0.605764 0.484520 0.221870
H13   H     H_    0.435268 0.567714 0.459459 0.178022
H14   H     H_    0.422907 0.568873 0.510190 0.245614
C115  C     C_3   0.463101 0.578612 0.005330 -0.673811
H15   H     H_    0.407929 0.611513 0.009866 0.234610
H16   H     H_    0.573374 0.572494 0.027581 0.180234
H17   H     H_    0.538121 0.576212 0.977377 0.233109
C116  C     C_3   0.536899 0.421388 0.994670 -0.673811
H18   H     H_    0.592070 0.388487 0.990134 0.234610
H19   H     H_    0.461879 0.423788 0.022623 0.233109
H20   H     H_    0.426626 0.427506 0.972419 0.180234
C117  C     C_3   0.036493 0.078829 0.994818 -0.673768
H21   H     H_    0.091461 0.111706 0.990221 0.234686
H22   H     H_    0.925984 0.072778 0.972624 0.180325
H23   H     H_    0.961821 0.076448 0.022807 0.233084
C118  C     C_3   0.963507 0.921171 0.005182 -0.673768
H24   H     H_    0.908538 0.888294 0.009779 0.234686
H25   H     H_    0.038179 0.923551 0.977193 0.233084
H26   H     H_    0.074016 0.927222 0.027376 0.180325
C119  C     C_3   0.965727 0.921802 0.494362 -0.673303
H27   H     H_    0.910145 0.888819 0.490978 0.229780
H28   H     H_    0.073768 0.927153 0.471282 0.178209
H29   H     H_    0.043435 0.924980 0.521760 0.241257
C120  C     C_3   0.034273 0.078198 0.505638 -0.673303
H30   H     H_    0.089855 0.111181 0.509022 0.229780
H31   H     H_    0.956565 0.075020 0.478240 0.241257
H32   H     H_    0.926232 0.072847 0.528718 0.178209
H33   H     H_    0.979617 0.440289 0.349376 0.145734
H34   H     H_    0.020383 0.559711 0.650624 0.145734
H35   H     H_    0.231434 0.587652 0.867761 0.157790
H36   H     H_    0.768565 0.412348 0.132239 0.157790
H37   H     H_    0.268900 0.087863 0.132196 0.158050
H38   H     H_    0.731100 0.912137 0.867804 0.158051
H39   H     H_    0.554544 0.939140 0.650847 0.135457
H40   H     H_    0.445456 0.060860 0.349153 0.135457
H41   H     H_    0.991707 0.387961 0.297331 0.125229
H42   H     H_    0.008293 0.612039 0.702669 0.125229
H43   H     H_    0.206205 0.639940 0.816130 0.143367
H44   H     H_    0.793795 0.360060 0.183870 0.143367
H45   H     H_    0.294009 0.140072 0.183797 0.143388
H46   H     H_    0.705990 0.859928 0.816203 0.143388
H47   H     H_    0.530212 0.885933 0.702495 0.126441
H48   H     H_    0.469788 0.114067 0.297505 0.126441
C121  C     C_3   0.171671 0.277004 0.379779 -0.766589
H49   H     H_    0.066494 0.253902 0.368137 0.202612
H50   H     H_    0.313756 0.271230 0.365905 0.217214
H51   H     H_    0.186364 0.271212 0.410901 0.210470
C122  C     C_3   0.828329 0.722996 0.620220 -0.766589
H52   H     H_    0.933506 0.746097 0.631862 0.202612
H53   H     H_    0.813636 0.728788 0.589099 0.210471
H54   H     H_    0.686244 0.728770 0.634095 0.217214
C123  C     C_3   0.607240 0.691243 0.862992 -0.726237
H55   H     H_    0.653800 0.725132 0.861836 0.196523
H56   H     H_    0.513521 0.683977 0.838275 0.216050
H57   H     H_    0.518307 0.687023 0.889221 0.214496
C124  C     C_3   0.392760 0.308757 0.137008 -0.726238
H58   H     H_    0.346199 0.274867 0.138164 0.196523
H59   H     H_    0.481693 0.312977 0.110779 0.214497
H60   H     H_    0.486479 0.316023 0.161725 0.216050
C125  C     C_3   0.893550 0.190840 0.137103 -0.726664
H61   H     H_    0.847152 0.224776 0.138137 0.196617
H62   H     H_    0.986774 0.183520 0.161906 0.215984
H63   H     H_    0.982918 0.186493 0.110946 0.214825
C126  C     C_3   0.106450 0.809160 0.862897 -0.726663
H64   H     H_    0.152848 0.775224 0.861862 0.196617
H65   H     H_    0.017082 0.813507 0.889054 0.214825
H66   H     H_    0.013226 0.816480 0.838094 0.215984
C127  C     C_3   0.327448 0.779047 0.616633 -0.791457
H67   H     H_    0.312428 0.757088 0.641290 0.202339
H68   H     H_    0.186815 0.780797 0.601731 0.220591
H69   H     H_    0.435568 0.765365 0.596559 0.217501
C128  C     C_3   0.672552 0.220953 0.383367 -0.791456
H70   H     H_    0.687571 0.242912 0.358710 0.202339
H71   H     H_    0.564432 0.234635 0.403440 0.217501
H72   H     H_    0.813185 0.219203 0.398269 0.220591
H73   H     H_    0.112692 0.341342 0.430427 0.135009
H74   H     H_    0.887308 0.658658 0.569573 0.135009
H75   H     H_    0.688704 0.629686 0.914190 0.150022
H76   H     H_    0.311296 0.370314 0.085810 0.150022
H77   H     H_    0.812227 0.129412 0.085913 0.150257
H78   H     H_    0.187773 0.870588 0.914087 0.150257
H79   H     H_    0.371019 0.845517 0.569510 0.127282
H80   H     H_    0.628981 0.154483 0.430490 0.127282

loop_
_geom_bond_atom_site_label_1
_geom_bond_atom_site_label_2
_ccdc_geom_bond_type
O17   V3    S    
C94   C126  S    
C16   O28   S    
C56   C64   A    
O18   V4    S    
C6    C83   S    
O19   V1    S    
C113  H9    S    
C37   C45   A    
C54   H6    S    
C32   C40   A    
C79   H47   S    
C92   C100  A    
C104  C112  A    
C117  H21   S    
C93   C101  A    
O15   V4    S    
C114  H12   S    
O16   V3    S    
C30   C54   A    
C58   C114  S    
C22   O34   S    
C122  H52   S    
C20   C28   A    
C98   H74   S    
O8    V1    S    
C42   C57   A    
C103  H79   S    
C53   H5    S    
C70   H38   S    
C27   C51   A    
C41   C58   A    
C122  H54   S    
C69   H37   S    
C60   C116  S    
C80   C88   A    
O12   V1    S    
C102  H78   S    
C38   C46   A    
C16   C48   A    
C120  H30   S    
C46   C61   A    
C101  H77   S    
C34   C42   A    
C126  H65   S    
C59   C115  S    
C45   C62   A    
O1    V3    S    
C123  H57   S    
C33   C41   A    
C76   C84   A    
O3    C2    A    
C118  H25   S    
C127  H67   S    
C120  H31   S    
C16   N8    A    
O11   C3    A    
C54   C62   A    
C27   C35   A    
C77   H45   S    
C8    C81   S    
C26   C34   A    
C55   H7    S    
O11   V2    S    
C10   N2    A    
C115  H16   S    
C23   C31   A    
C31   C55   A    
C66   H34   S    
C65   H33   S    
C4    C85   S    
C11   N3    A    
C125  H61   S    
C128  H72   S    
C121  H50   S    
C52   H4    S    
C12   N4    A    
O9    V1    S    
C49   C57   A    
O15   C7    A    
C119  H29   S    
C95   C103  A    
N7    C23   A    
N5    C21   A    
C92   C124  S    
O16   C8    A    
O7    V2    S    
C126  H64   S    
C101  C109  A    
C67   H35   S    
C113  H10   S    
C30   C38   A    
C78   H46   S    
C118  H24   S    
C21   C29   A    
C19   O31   S    
C11   O23   S    
N1    C17   A    
C68   H36   S    
C56   H8    S    
C90   C98   A    
C97   H73   S    
C19   C27   A    
O5    V1    S    
N7    C112  S    
C114  H13   S    
O17   V1    S    
C64   C120  S    
C123  H56   S    
N8    C111  S    
C100  H76   S    
C67   C75   A    
C93   C125  S    
C35   C36   A    
C72   H40   S    
O20   V4    S    
N2    C105  S    
C83   C91   A    
C9    N1    A    
C61   C117  S    
C116  H19   S    
C73   C81   A    
C104  H80   S    
C128  H70   S    
C117  H23   S    
C17   O29   S    
C50   H2    S    
C90   C122  S    
C119  H28   S    
C121  H49   S    
C116  H18   S    
N6    C109  S    
C69   C109  A    
C65   C105  A    
C39   C47   A    
C40   C48   A    
C7    C82   S    
C75   H43   S    
C3    C86   S    
C103  C111  A    
C118  H26   S    
C5    C84   S    
C124  H58   S    
C86   C94   A    
O12   C4    A    
O10   V2    S    
C52   C60   A    
C53   C61   A    
C98   C106  A    
C115  H17   S    
C99   H75   S    
N6    C22   A    
C1    C88   S    
C74   H42   S    
O8    C5    A    
C18   C26   A    
C81   C89   A    
C2    C87   S    
C12   O24   S    
C36   C44   A    
O9    C1    A    
C48   C63   A    
O2    V4    S    
C125  H62   S    
C28   C36   A    
C31   C39   A    
C68   C76   A    
C29   C53   A    
C43   C60   A    
C80   H48   S    
O4    C1    A    
C91   C99   A    
C9    C41   A    
O6    V2    S    
N2    C18   A    
O18   V2    S    
C73   H41   S    
C120  H32   S    
C128  H71   S    
O19   V3    S    
C76   H44   S    
O14   C6    A    
C124  H59   S    
C113  H11   S    
C25   C49   A    
C70   C110  A    
C23   O35   S    
C35   C43   A    
C63   C119  S    
C13   N5    A    
N3    C108  S    
C82   C90   A    
C18   O30   S    
C99   C107  A    
C15   N7    A    
N1    C106  S    
C116  H20   S    
C77   C85   A    
N8    C24   A    
C51   H3    S    
C55   C63   A    
O1    C4    A    
C121  H51   S    
C102  C110  A    
C75   C83   A    
O2    C3    A    
N4    C107  S    
C49   H1    S    
O13   V3    S    
C71   C111  A    
N5    C110  S    
C11   C43   A    
O14   V4    S    
N4    C20   A    
C17   C25   A    
C114  H14   S    
C72   C80   A    
C15   O27   S    
C70   C78   A    
C84   C92   A    
O7    C6    A    
C14   C46   A    
C85   C93   A    
C50   C58   A    
C95   C127  S    
C91   C123  S    
C122  H53   S    
C127  H69   S    
C29   C37   A    
C94   C102  A    
C26   C50   A    
C67   C107  A    
C62   C118  S    
C97   C105  A    
C39   C40   A    
C14   O26   S    
O13   C5    A    
C14   N6    A    
C13   O25   S    
C28   C52   A    
N3    C19   A    
C24   C32   A    
O5    C8    A    
C13   C45   A    
O10   C2    A    
O6    C7    A    
C51   C59   A    
O20   V2    S    
C87   C95   A    
C10   O22   S    
C24   O36   S    
C9    O21   S    
C33   C34   A    
C66   C106  A    
O3    V4    S    
C79   C87   A    
C125  H63   S    
C37   C38   A    
C68   C108  A    
O4    V3    S    
C117  H22   S    
C115  H15   S    
C44   C59   A    
C57   C113  S    
C124  H60   S    
C66   C74   A    
C10   C42   A    
C47   C64   A    
C65   C73   A    
C78   C86   A    
C89   C97   A    
C88   C96   A    
C119  H27   S    
C126  H66   S    
C89   C121  S    
C72   C112  A    
C22   C30   A    
C20   O32   S    
C21   O33   S    
C71   H39   S    
C100  C108  A    
C127  H68   S    
C32   C56   A    
C96   C128  S    
C69   C77   A    
C12   C44   A    
C74   C82   A    
C96   C104  A    
C25   C33   A    
C15   C47   A    
C123  H55   S    
C71   C79   A    
