data_mof_unit_43574.cif
_audit_creation_date              2012-12-11T15:29:27-0500
_audit_creation_method            fapswitch 2.2
_symmetry_space_group_name_H-M    P1
_symmetry_Int_Tables_number       1
_space_group_crystal_system       triclinic
_cell_length_a                    13.50213
_cell_length_b                    13.512509
_cell_length_c                    27.533124
_cell_angle_alpha                 90.659405
_cell_angle_beta                  89.99504
_cell_angle_gamma                 60.118093
_cell_volume                      4355.1330709

loop_
_atom_site_label
_atom_site_type_symbol
_atom_type_description
_atom_site_fract_x
_atom_site_fract_y
_atom_site_fract_z
_atom_type_partial_charge
C1    C     C_R   0.619852 0.100752 0.570116 0.544957
C2    C     C_1   0.625717 0.741048 0.617419 0.014260
C3    C     C_3   0.688260 0.585294 0.769495 0.251699
C4    C     C_3   0.668829 0.676451 0.807888 0.055036
C5    C     C_3   0.577918 0.669240 0.743198 -0.150013
C6    C     C_3   0.649742 0.706134 0.712588 0.012398
C7    C     C_3   0.558061 0.762591 0.781878 -0.194860
C8    C     C_3   0.629156 0.800562 0.750340 -0.144005
C9    C     C_1   0.681306 0.649064 0.859499 0.051028
C10   C     C_1   0.639554 0.721244 0.660076 0.004307
C11   C     C_3   0.108003 0.129000 0.739927 -0.122236
C12   C     C_R   0.598912 0.780614 0.568744 0.547201
C13   C     C_3   0.196770 0.047862 0.777426 -0.136703
C14   C     C_1   0.107427 0.194107 0.902353 0.029153
C15   C     C_1   0.239441 0.133019 0.618843 0.022717
C16   C     C_3   0.086398 0.231157 0.772429 0.290541
C17   C     C_3   0.172720 0.151920 0.809580 0.048366
C18   C     C_3   0.179573 0.243500 0.746647 0.279481
C19   C     C_3   0.203011 0.140785 0.714303 0.010266
C20   C     C_3   0.268035 0.163272 0.783877 -0.126632
C21   C     C_3   0.292539 0.059020 0.750805 -0.171777
C22   C     C_1   0.143145 0.169678 0.861330 0.019130
C23   C     C_R   0.279309 0.120948 0.569804 0.550385
C24   C     C_1   0.219212 0.137417 0.661635 -0.002086
C25   C     C_3   0.628677 0.267966 0.740639 -0.083035
C26   C     C_3   0.547812 0.258406 0.778133 -0.112408
C27   C     C_1   0.687567 0.203991 0.902811 0.026999
C28   C     C_1   0.632586 0.130479 0.618864 0.005221
C29   C     C_3   0.730765 0.188494 0.772224 0.271857
C30   C     C_3   0.651784 0.179637 0.809381 0.071073
C31   C     C_3   0.746627 0.081616 0.745257 -0.079224
C32   C     C_3   0.642563 0.160790 0.714169 0.002632
C33   C     C_3   0.665310 0.072842 0.782658 -0.130461
C34   C     C_R   0.622099 0.099979 0.431490 0.545895
C35   C     C_3   0.561045 0.151238 0.750619 -0.126061
C36   C     C_1   0.666804 0.191493 0.861394 0.017434
C37   C     C_1   0.638241 0.147402 0.661529 -0.037461
C38   C     C_R   0.644978 0.708913 0.385854 -0.023342
C39   C     C_R   0.752996 0.680275 0.367193 -0.053935
C40   C     C_R   0.784317 0.637040 0.319965 0.246846
C41   C     C_R   0.703682 0.626501 0.290715 0.028937
C42   C     C_R   0.599816 0.646875 0.311111 -0.145023
C43   C     C_R   0.571371 0.686232 0.358351 -0.143058
C44   C     C_R   0.686564 0.532407 0.216926 -0.150625
C45   C     C_R   0.602238 0.775859 0.430732 0.542936
C46   C     C_R   0.677603 0.528372 0.167241 -0.155640
C47   C     C_R   0.739495 0.668798 0.157903 0.235424
C48   C     C_R   0.744123 0.675138 0.208558 -0.049137
C49   C     C_R   0.717534 0.607167 0.238078 -0.035691
C50   C     C_R   0.703963 0.595325 0.137168 0.028195
C51   C     C_R   0.223746 0.137214 0.383809 0.065863
C52   C     C_R   0.257129 0.040536 0.353982 -0.172049
C53   C     C_R   0.231519 0.052459 0.305018 -0.128574
C54   C     C_R   0.170038 0.161254 0.285106 0.009028
C55   C     C_R   0.127657 0.258294 0.315451 -0.100276
C56   C     C_R   0.278321 0.120234 0.431219 0.579014
C57   C     C_R   0.154789 0.247209 0.365031 0.245801
C58   C     C_R   0.162821 0.258778 0.208044 -0.124843
C59   C     C_R   0.137723 0.276181 0.158876 -0.121789
C60   C     C_R   0.102942 0.116455 0.157172 -0.136755
C61   C     C_R   0.126855 0.099888 0.206347 -0.118416
C62   C     C_R   0.153239 0.173305 0.232448 0.029149
C63   C     C_R   0.103220 0.207904 0.133569 0.015139
C64   C     C_R   0.644205 0.140088 0.385687 -0.013076
C65   C     C_R   0.557899 0.240186 0.364586 -0.140338
C66   C     C_R   0.569143 0.266174 0.316956 -0.178018
C67   C     C_3   0.758370 0.621828 0.738953 0.286629
C68   C     C_R   0.666967 0.193048 0.290005 0.108453
C69   C     C_R   0.756836 0.095415 0.311392 0.297633
C70   C     C_R   0.745027 0.070183 0.359521 -0.121289
C71   C     C_R   0.763307 0.229414 0.221579 0.279965
C72   C     C_R   0.776815 0.234430 0.171576 -0.120528
C73   C     C_R   0.605826 0.222728 0.156180 -0.144654
C74   C     C_R   0.593126 0.214874 0.206034 -0.164358
C75   C     C_R   0.673120 0.215509 0.238578 0.097047
C76   C     C_R   0.699629 0.229206 0.139071 0.005590
C77   C     C_R   0.051317 0.233997 0.948448 0.554153
C78   C     C_3   0.739399 0.713698 0.777004 0.236032
C79   C     C_R   0.711511 0.563045 0.946887 0.553371
C80   C     C_R   0.722092 0.223653 0.949451 0.555353
C81   C     C_R   0.047735 0.243900 0.086356 0.531472
C82   C     C_R   0.710603 0.568427 0.085525 0.514747
C83   C     C_R   0.720782 0.233910 0.087805 0.535967
C84   C     C_1   0.693779 0.615816 0.900569 0.038548
Cr1   Cr    Cr6+3 0.417550 0.169090 0.500530 1.069935
Cr2   Cr    Cr6+3 0.669180 0.913420 0.499920 1.046333
Cr3   Cr    Cr6+3 0.413260 0.917540 0.499520 1.031881
Cr4   Cr    Cr6+3 0.909770 0.175810 0.018240 1.049399
Cr5   Cr    Cr6+3 0.913300 0.427650 0.016090 1.064727
Cr6   Cr    Cr6+3 0.657770 0.431010 0.016900 1.040365
H1    H     H_    0.333406 0.177011 0.802304 0.123222
H2    H     H_    0.465953 0.329991 0.792145 0.149401
H3    H     H_    0.614970 0.347056 0.722871 0.114133
H4    H     H_    0.490559 0.135338 0.740504 0.133254
H5    H     H_    0.678570 0.994052 0.800542 0.167340
H6    H     H_    0.829131 0.010494 0.731519 0.148420
H7    H     H_    0.811937 0.694742 0.388680 0.155281
H8    H     H_    0.665847 0.479369 0.239092 0.146911
H9    H     H_    0.652797 0.469670 0.152110 0.145374
H10   H     H_    0.765271 0.735542 0.224899 0.173325
H11   H     H_    0.536677 0.639556 0.289475 0.119557
H12   H     H_    0.487867 0.706809 0.371933 0.142286
H13   H     H_    0.310736 0.955124 0.367608 0.139188
H14   H     H_    0.186829 0.313982 0.227253 0.112467
H15   H     H_    0.139473 0.346714 0.141413 0.142112
H16   H     H_    0.604563 0.889905 0.741651 0.122799
H17   H     H_    0.265242 0.976403 0.282319 0.120257
H18   H     H_    0.118822 0.033415 0.224394 0.140805
H19   H     H_    0.076545 0.062411 0.138579 0.146000
H20   H     H_    0.076024 0.342464 0.300330 0.112116
H21   H     H_    0.479246 0.295634 0.384010 0.153361
H22   H     H_    0.847084 0.243504 0.157816 0.105643
H23   H     H_    0.500243 0.341668 0.300592 0.113974
H24   H     H_    0.523087 0.204810 0.219219 0.120586
H25   H     H_    0.475681 0.821005 0.800256 0.128047
H26   H     H_    0.545087 0.220487 0.131147 0.123727
H27   H     H_    0.811976 0.992744 0.375491 0.125543
H28   H     H_    0.512698 0.649353 0.729078 0.132701
H29   H     H_    0.205065 0.966819 0.790682 0.139242
H30   H     H_    0.042450 0.115893 0.721355 0.112237
H31   H     H_    0.378271 0.987578 0.740670 0.122515
O1    O     O_R   0.301780 0.195490 0.553940 -0.482834
O2    O     O_R   0.658840 0.818280 0.449970 -0.502825
O3    O     O_R   0.503160 0.801780 0.445740 -0.518092
O4    O     O_R   0.319320 0.022190 0.450230 -0.521416
O5    O     O_3   0.499990 0.000010 0.499990 -0.264348
O6    O     O_R   0.819250 0.149410 0.965240 -0.490847
O7    O     O_R   0.006940 0.180310 0.968270 -0.490503
O8    O     O_R   0.028420 0.332670 0.963010 -0.490548
O9    O     O_R   0.810130 0.520390 0.966030 -0.479711
O10   O     O_R   0.636050 0.541380 0.962520 -0.502777
O11   O     O_R   0.666480 0.323610 0.968170 -0.491153
O12   O     O_R   0.522450 0.158840 0.550250 -0.492305
O13   O     O_R   0.817280 0.156800 0.072180 -0.501359
O14   O     O_R   0.005110 0.187160 0.067410 -0.512594
O15   O     O_R   0.026450 0.340060 0.069950 -0.512430
O16   O     O_R   0.808300 0.527240 0.065170 -0.493626
O17   O     O_R   0.634070 0.548770 0.069460 -0.516801
O18   O     O_R   0.664650 0.330470 0.067300 -0.508400
O19   O     O_3   0.826940 0.344820 0.017080 -0.259080
O20   O     O_R   0.694460 0.003360 0.553820 -0.500014
O21   O     O_R   0.657750 0.819520 0.549120 -0.485487
O22   O     O_R   0.501990 0.803120 0.552700 -0.506847
O23   O     O_R   0.318230 0.023430 0.549370 -0.501098
O24   O     O_R   0.302950 0.194150 0.446980 -0.454503
O25   O     O_R   0.523540 0.157600 0.451100 -0.504429
O26   O     O_R   0.695630 0.002030 0.446860 -0.515201
Cl1   Cl    Cl    0.846324 0.742564 0.799350 -0.577934
Cl2   Cl    Cl    0.167789 0.373533 0.726322 -0.549125
O27   O     O_3   0.978683 0.322061 0.784674 -0.614749
H32   H     H_    0.936576 0.344120 0.753635 0.348598
O28   O     O_3   0.820259 0.207507 0.784662 -0.637761
H33   H     H_    0.851468 0.215114 0.753272 0.310796
O29   O     O_3   0.861309 0.548211 0.715301 -0.655420
H34   H     H_    0.921318 0.528676 0.740015 0.399959
O30   O     O_3   0.892076 0.609000 0.303788 -0.720498
H35   H     H_    0.910742 0.560302 0.274253 0.324831
O31   O     O_3   0.767237 0.736940 0.130749 -0.687771
H36   H     H_    0.748845 0.733111 0.096234 0.329214
O32   O     O_3   0.117579 0.341709 0.395191 -0.673461
H37   H     H_    0.070428 0.411587 0.376160 0.339009
O33   O     O_3   0.836600 0.237471 0.254348 -0.672331
H38   H     H_    0.891782 0.251819 0.236403 0.322345
O34   O     O_3   0.852099 0.023301 0.283900 -0.658761
H39   H     H_    0.906458 0.959127 0.304306 0.322211
O35   O     O_3   0.719334 0.472750 0.780178 -0.638989
H40   H     H_    0.725269 0.435607 0.748246 0.319654

loop_
_geom_bond_atom_site_label_1
_geom_bond_atom_site_label_2
_ccdc_geom_bond_type
C44   C49   A    
C58   C62   A    
C66   C68   A    
C46   H9    S    
C72   H22   S    
C52   H13   S    
C25   H3    S    
C80   O11   A    
C71   O33   S    
Cr2   O5    S    
C11   C13   S    
C73   C74   A    
C69   O34   S    
C72   C76   A    
C2    C12   S    
Cr2   O26   S    
C83   O18   A    
Cr6   O18   S    
C7    C8    S    
C53   C54   A    
C45   O2    A    
C68   C75   S    
C11   C19   S    
C59   H15   S    
C73   H26   S    
C63   C81   S    
C60   C63   A    
O30   H35   S    
C19   C21   S    
Cr1   O24   S    
C18   C19   S    
Cr4   O6    S    
C5    C6    S    
C39   H7    S    
C70   H27   S    
C26   H2    S    
C31   H6    S    
C74   H24   S    
Cr4   O7    S    
C17   C20   S    
Cr5   O8    S    
C51   C56   S    
C41   C42   A    
C14   C77   S    
C7    H25   S    
C56   O24   A    
C61   H18   S    
C65   H21   S    
C83   O13   A    
C60   H19   S    
C13   H29   S    
C44   H8    S    
C15   C24   T    
Cr4   O19   S    
C31   C32   S    
C16   C17   S    
C38   C45   S    
C1    C28   S    
C31   C33   S    
C51   C57   A    
C64   C70   A    
Cr3   O23   S    
C47   C50   A    
C18   Cl2   S    
C78   Cl1   S    
Cr6   O11   S    
C25   C32   S    
C15   C23   S    
Cr5   O15   S    
C8    C78   S    
Cr1   O5    S    
C61   C62   A    
C67   C78   S    
C4    C7    S    
C1    O12   A    
C11   H30   S    
C33   H5    S    
C76   C83   S    
C41   C49   S    
Cr6   O17   S    
C44   C46   A    
C81   O14   A    
C23   O1    A    
C45   O3    A    
C25   C29   S    
C38   C39   A    
C48   H10   S    
C20   H1    S    
C74   C75   A    
C51   C52   A    
C32   C35   S    
Cr1   O25   S    
C27   C80   S    
C39   C40   A    
C5    C7    S    
C68   C69   A    
C6    C8    S    
C54   C62   S    
C58   C59   A    
C56   O4    A    
C79   O9    A    
Cr5   O9    S    
C60   C61   A    
C4    C78   S    
C29   C30   S    
C34   O26   A    
C53   H17   S    
C47   C48   A    
Cr5   O19   S    
C79   O10   A    
C34   C64   S    
C13   C21   S    
Cr1   O1    S    
C77   O8    A    
C32   C37   S    
C20   C21   S    
O29   H34   S    
C77   O7    A    
Cr6   O10   S    
C40   C41   A    
C57   O32   S    
C26   C30   S    
C66   H23   S    
Cr5   O16   S    
C67   O29   S    
C55   H20   S    
O31   H36   S    
C73   C76   A    
C23   O23   A    
C58   H14   S    
C42   C43   A    
C3    C4    S    
C2    C10   T    
C42   H11   S    
Cr3   O4    S    
C52   C53   A    
C50   C82   S    
C81   O15   A    
O33   H38   S    
C35   H4    S    
C54   C55   A    
O34   H39   S    
C30   C33   S    
C3    C67   S    
Cr4   O14   S    
C3    C5    S    
C8    H16   S    
C6    C10   S    
Cr6   O19   S    
C80   O6    A    
C13   C17   S    
C27   C36   T    
C82   O16   A    
C46   C50   A    
C59   C63   A    
C17   C22   S    
C12   O22   A    
C30   C36   S    
C5    H28   S    
O32   H37   S    
C14   C22   T    
C55   C57   A    
C19   C24   S    
C25   C26   S    
C43   H12   S    
Cr4   O13   S    
C38   C43   A    
C29   C31   S    
C6    C67   S    
C64   C65   A    
C29   O28   S    
C71   C75   A    
C34   O25   A    
C79   C84   S    
O35   H40   S    
C28   C37   T    
C48   C49   A    
C33   C35   S    
C12   O21   A    
Cr2   O21   S    
C18   C20   S    
C21   H31   S    
C69   C70   A    
C11   C16   S    
C1    O20   A    
C9    C84   T    
C26   C35   S    
C71   C72   A    
C82   O17   A    
Cr3   O3    S    
O28   H33   S    
Cr2   O20   S    
C16   C18   S    
C65   C66   A    
Cr2   O2    S    
O27   H32   S    
C40   O30   S    
C16   O27   S    
Cr3   O22   S    
C4    C9    S    
Cr3   O5    S    
C3    O35   S    
Cr1   O12   S    
C47   O31   S    
