data_mof_unit_42878.cif
_audit_creation_date              2012-12-11T15:31:44-0500
_audit_creation_method            fapswitch 2.2
_symmetry_space_group_name_H-M    P1
_symmetry_Int_Tables_number       1
_space_group_crystal_system       triclinic
_cell_length_a                    13.574932
_cell_length_b                    13.583499
_cell_length_c                    27.636673
_cell_angle_alpha                 90.451867
_cell_angle_beta                  90.20583
_cell_angle_gamma                 119.920825
_cell_volume                      4416.53588896

loop_
_atom_site_label
_atom_site_type_symbol
_atom_type_description
_atom_site_fract_x
_atom_site_fract_y
_atom_site_fract_z
_atom_type_partial_charge
C1    C     C_R   0.619509 0.898235 0.431340 0.543986
C2    C     C_R   0.631262 0.234714 0.208620 -0.103356
C3    C     C_R   0.620594 0.217393 0.258576 -0.100727
C4    C     C_R   0.666323 0.310517 0.290724 0.041898
C5    C     C_R   0.687951 0.345344 0.190637 0.042008
C6    C     C_1   0.694451 0.365113 0.139396 -0.053919
C7    C     C_1   0.650405 0.290700 0.341888 -0.055309
C8    C     C_1   0.701699 0.390603 0.097373 -0.009259
C9    C     C_1   0.232082 0.862611 0.382802 -0.011488
C10   C     C_R   0.276143 0.893509 0.257566 -0.100808
C11   C     C_R   0.257363 0.884401 0.207528 -0.103414
C12   C     C_R   0.599730 0.218609 0.431356 0.541049
C13   C     C_R   0.053899 0.785011 0.221047 -0.101039
C14   C     C_R   0.072675 0.794003 0.271081 -0.104028
C15   C     C_R   0.183890 0.847808 0.289432 0.042021
C16   C     C_R   0.146133 0.829657 0.189173 0.041995
C17   C     C_1   0.124721 0.814492 0.137866 -0.053751
C18   C     C_1   0.205130 0.854168 0.340724 -0.055343
C19   C     C_1   0.097404 0.794924 0.095818 -0.008779
C20   C     C_1   0.634546 0.865533 0.383731 -0.011737
C21   C     C_R   0.701394 0.771702 0.272661 -0.103985
C22   C     C_R   0.708947 0.760041 0.222698 -0.101101
C23   C     C_R   0.279273 0.878727 0.430609 0.543465
C24   C     C_R   0.607291 0.861920 0.208352 -0.103213
C25   C     C_R   0.599633 0.873474 0.258310 -0.100844
C26   C     C_R   0.647132 0.828914 0.290557 0.042002
C27   C     C_R   0.662412 0.805569 0.190449 0.041973
C28   C     C_1   0.675534 0.797002 0.139214 -0.053916
C29   C     C_1   0.642033 0.845578 0.341765 -0.055382
C30   C     C_1   0.692972 0.787335 0.097197 -0.007818
C31   C     C_R   0.647609 0.295286 0.611813 0.026698
C32   C     C_R   0.743906 0.303046 0.634758 -0.176575
C33   C     C_R   0.771378 0.343642 0.681983 -0.142417
C34   C     C_R   0.620915 0.900606 0.568867 0.546295
C35   C     C_R   0.701907 0.375255 0.707024 -0.011036
C36   C     C_R   0.612841 0.378420 0.682467 -0.101009
C37   C     C_R   0.587946 0.343059 0.634379 0.267792
C38   C     C_R   0.686510 0.471748 0.780364 -0.129976
C39   C     C_R   0.678064 0.476764 0.829899 -0.115972
C40   C     C_R   0.736035 0.335584 0.839874 -0.128188
C41   C     C_R   0.739188 0.326280 0.789658 -0.107804
C42   C     C_R   0.713451 0.393978 0.759586 0.034468
C43   C     C_R   0.702249 0.408711 0.859878 0.039027
C44   C     C_R   0.222793 0.863810 0.614681 0.020804
C45   C     C_R   0.602523 0.224850 0.568029 0.557795
C46   C     C_R   0.242774 0.958845 0.642652 -0.130178
C47   C     C_R   0.216179 0.946956 0.691426 -0.131750
C48   C     C_R   0.166791 0.839518 0.712706 0.029370
C49   C     C_R   0.137021 0.743160 0.683640 -0.122990
C50   C     C_R   0.165887 0.755350 0.634960 -0.128115
C51   C     C_R   0.167413 0.748986 0.790703 -0.122231
C52   C     C_R   0.141641 0.731200 0.839601 -0.126290
C53   C     C_R   0.093509 0.880798 0.839502 -0.133157
C54   C     C_R   0.116857 0.896811 0.790485 -0.123658
C55   C     C_R   0.150372 0.828518 0.765315 0.036671
C56   C     C_R   0.279420 0.881538 0.568109 0.540630
C57   C     C_R   0.100032 0.793890 0.863814 0.022899
C58   C     C_R   0.643728 0.859681 0.614142 -0.022277
C59   C     C_R   0.559314 0.758346 0.634581 -0.155283
C60   C     C_R   0.570572 0.732120 0.682037 -0.188187
C61   C     C_R   0.667142 0.805622 0.709281 0.045992
C62   C     C_R   0.757283 0.902401 0.687820 0.288932
C63   C     C_R   0.743493 0.929717 0.640456 -0.112944
C64   C     C_R   0.765912 0.780605 0.778969 -0.107792
C65   C     C_R   0.778703 0.775258 0.828250 -0.180466
C66   C     C_R   0.596340 0.764332 0.842799 0.266930
C67   C     C_1   0.631186 0.264747 0.383810 -0.010799
C68   C     C_R   0.586291 0.774452 0.792295 -0.112152
C69   C     C_R   0.671751 0.783891 0.760815 0.015308
C70   C     C_R   0.696475 0.770305 0.860226 0.051469
C71   C     C_R   0.049541 0.761301 0.048169 0.547227
C72   C     C_R   0.714321 0.435709 0.049679 0.546667
C73   C     C_R   0.723550 0.770879 0.049478 0.552945
C74   C     C_R   0.044432 0.756069 0.910627 0.536691
C75   C     C_R   0.709302 0.432579 0.911287 0.533268
C76   C     C_R   0.718440 0.764424 0.911331 0.585933
C77   C     C_R   0.724027 0.421144 0.272758 -0.104039
C78   C     C_R   0.734811 0.438466 0.222796 -0.100939
Cr1   Cr    Cr6+3 0.417720 0.831920 0.499820 1.020884
Cr2   Cr    Cr6+3 0.668190 0.085770 0.500360 1.020274
Cr3   Cr    Cr6+3 0.414060 0.082260 0.499840 1.046437
Cr4   Cr    Cr6+3 0.908000 0.821090 0.979770 1.029939
Cr5   Cr    Cr6+3 0.912420 0.571130 0.979880 1.029670
Cr6   Cr    Cr6+3 0.657970 0.566940 0.980940 1.043254
H1    H     H_    0.759411 0.493687 0.297227 0.103113
H2    H     H_    0.752156 0.716621 0.209189 0.098268
H3    H     H_    0.571432 0.897809 0.183816 0.105035
H4    H     H_    0.557729 0.918194 0.271812 0.098574
H5    H     H_    0.793777 0.270757 0.617508 0.140670
H6    H     H_    0.670119 0.527701 0.758337 0.102514
H7    H     H_    0.656051 0.536991 0.844989 0.132400
H8    H     H_    0.842935 0.344216 0.699710 0.120202
H9    H     H_    0.758975 0.264505 0.774511 0.123654
H10   H     H_    0.758202 0.285279 0.862901 0.117466
H11   H     H_    0.556895 0.401045 0.701175 0.113959
H12   H     H_    0.778355 0.524458 0.209209 0.098619
H13   H     H_    0.287112 0.043713 0.627925 0.156750
H14   H     H_    0.197695 0.698356 0.772518 0.096073
H15   H     H_    0.148846 0.664659 0.857749 0.120244
H16   H     H_    0.240383 0.022784 0.712883 0.110586
H17   H     H_    0.103422 0.959006 0.772006 0.099789
H18   H     H_    0.062203 0.930964 0.857348 0.137475
H19   H     H_    0.094988 0.658818 0.698880 0.106647
H20   H     H_    0.148662 0.680849 0.613829 0.124731
H21   H     H_    0.481667 0.702505 0.614932 0.136454
H22   H     H_    0.594222 0.162184 0.184141 0.104830
H23   H     H_    0.830830 0.784683 0.755033 0.136646
H24   H     H_    0.852954 0.773760 0.841683 0.129435
H25   H     H_    0.502341 0.656284 0.698090 0.107919
H26   H     H_    0.515175 0.779497 0.777370 0.105719
H27   H     H_    0.807360 0.009577 0.625491 0.131574
H28   H     H_    0.575523 0.131418 0.272143 0.098806
H29   H     H_    0.362571 0.935059 0.271423 0.098569
H30   H     H_    0.329235 0.918746 0.183285 0.104797
H31   H     H_    0.967452 0.742035 0.207185 0.098463
H32   H     H_    0.000778 0.758094 0.295316 0.102900
H33   H     H_    0.738685 0.737245 0.297195 0.103012
O1    O     O_R   0.302900 0.805360 0.446400 -0.505618
O2    O     O_R   0.657980 0.180990 0.549630 -0.518317
O3    O     O_R   0.503420 0.197810 0.553190 -0.455928
O4    O     O_R   0.320350 0.978840 0.548910 -0.503233
O5    O     O_3   0.499990 0.999990 0.500010 -0.249908
O6    O     O_R   0.819150 0.845650 0.033320 -0.501677
O7    O     O_R   0.006060 0.815720 0.028680 -0.492239
O8    O     O_R   0.028100 0.664460 0.032550 -0.503020
O9    O     O_R   0.811290 0.477490 0.029660 -0.492703
O10   O     O_R   0.638120 0.455970 0.034270 -0.502360
O11   O     O_R   0.667540 0.672320 0.030160 -0.489838
O12   O     O_R   0.522090 0.841370 0.450730 -0.494877
O13   O     O_R   0.814460 0.840990 0.926980 -0.517330
O14   O     O_R   0.001710 0.811400 0.930110 -0.511601
O15   O     O_R   0.023410 0.659800 0.926210 -0.514725
O16   O     O_R   0.806940 0.473170 0.931090 -0.496962
O17   O     O_R   0.633420 0.451310 0.927930 -0.516035
O18   O     O_R   0.663190 0.668000 0.931580 -0.490743
O19   O     O_3   0.826130 0.653050 0.980200 -0.260228
O20   O     O_R   0.693280 0.995650 0.447220 -0.503961
O21   O     O_R   0.657260 0.178740 0.451050 -0.495178
O22   O     O_R   0.502640 0.195380 0.446850 -0.506163
O23   O     O_R   0.319630 0.976590 0.450330 -0.494444
O24   O     O_R   0.303680 0.807790 0.552740 -0.517860
O25   O     O_R   0.522820 0.843620 0.549310 -0.500361
O26   O     O_R   0.694060 0.998080 0.553560 -0.521082
O27   O     O_3   0.495766 0.341237 0.611932 -0.551578
C79   C     C_3   0.525281 0.453451 0.600133 -0.120464
H34   H     H_    0.602180 0.493959 0.576932 0.115714
H35   H     H_    0.538367 0.505985 0.633186 0.106402
H36   H     H_    0.454153 0.450993 0.579239 0.142602
O28   O     O_3   0.517847 0.759853 0.876331 -0.560400
C80   C     C_3   0.405034 0.697584 0.858751 -0.122015
H37   H     H_    0.387782 0.618165 0.839441 0.102837
H38   H     H_    0.385108 0.751543 0.835331 0.122459
H39   H     H_    0.346707 0.672227 0.890032 0.149289
O29   O     O_3   0.849620 0.978049 0.715919 -0.562512
C81   C     C_3   0.951660 0.995618 0.694821 -0.135406
H40   H     H_    0.973295 0.049807 0.662300 0.115145
H41   H     H_    0.948445 0.913928 0.685876 0.110947
H42   H     H_    0.021721 0.041967 0.721328 0.138256

loop_
_geom_bond_atom_site_label_1
_geom_bond_atom_site_label_2
_ccdc_geom_bond_type
Cr6   O11   S    
Cr3   O23   S    
C66   C68   A    
C21   C26   A    
Cr6   O18   S    
C50   H20   S    
C37   O27   S    
C74   O15   A    
C81   H41   S    
C41   C42   A    
C54   H17   S    
C19   C71   S    
C35   C36   A    
C24   C27   A    
C23   O1    A    
C79   H34   S    
Cr1   O24   S    
C75   O17   A    
Cr2   O5    S    
C77   C78   A    
Cr3   O3    S    
Cr6   O17   S    
C59   H21   S    
C36   C37   A    
C38   C42   A    
C1    O12   A    
C10   C15   A    
C5    C6    S    
Cr2   O21   S    
Cr1   O25   S    
C44   C50   A    
C65   C70   A    
Cr1   O12   S    
Cr1   O1    S    
Cr4   O7    S    
C35   C42   S    
C11   H30   S    
C21   H33   S    
C60   H25   S    
C17   C19   T    
C54   C55   A    
C76   O13   A    
C40   C43   A    
C41   H9    S    
C31   C32   A    
C78   H12   S    
C16   C17   S    
C73   O6    A    
C80   H39   S    
Cr4   O13   S    
C3    H28   S    
C65   H24   S    
C51   C55   A    
C45   O2    A    
C51   H14   S    
Cr2   O2    S    
C77   H1    S    
C59   C60   A    
C21   C22   A    
C81   H42   S    
C63   H27   S    
Cr5   O8    S    
C4    C7    S    
C39   H7    S    
C79   H35   S    
C76   O18   A    
C44   C46   A    
C20   C29   T    
C43   C75   S    
C38   C39   A    
C15   C18   S    
Cr1   O5    S    
C74   O14   A    
C34   O26   A    
C8    C72   S    
C72   O10   A    
C51   C52   A    
C23   O23   A    
C24   C25   A    
C66   O28   S    
C52   C57   A    
C33   H8    S    
C30   C73   S    
C53   C57   A    
C9    C23   S    
C6    C8    T    
C12   C67   S    
C58   C59   A    
C53   C54   A    
C2    H22   S    
C25   H4    S    
C47   H16   S    
C31   C37   A    
C32   C33   A    
Cr3   O4    S    
C60   C61   A    
C57   C74   S    
C62   C63   A    
C34   O25   A    
C11   C16   A    
C44   C56   S    
C47   C48   A    
C53   H18   S    
C48   C49   A    
Cr2   O26   S    
Cr5   O19   S    
C12   O22   A    
C68   H26   S    
C64   C69   A    
O29   C81   S    
C13   H31   S    
C10   H29   S    
C56   O24   A    
C45   O3    A    
C40   C41   A    
C46   H13   S    
C22   C27   A    
C32   H5    S    
C70   C76   S    
C80   H38   S    
C71   O7    A    
C2    C5    A    
Cr5   O9    S    
C3    C4    A    
Cr4   O6    S    
C81   H40   S    
C79   H36   S    
C1    O20   A    
C64   H23   S    
C61   C69   S    
C58   C63   A    
Cr3   O22   S    
C46   C47   A    
Cr6   O19   S    
C1    C20   S    
C48   C55   S    
C80   H37   S    
C68   C69   A    
C40   H10   S    
O27   C79   S    
C49   H19   S    
C39   C43   A    
C75   O16   A    
C73   O11   A    
C38   H6    S    
C52   H15   S    
Cr4   O14   S    
Cr3   O5    S    
C56   O4    A    
C28   C30   T    
C2    C3    A    
C25   C26   A    
C4    C77   A    
O28   C80   S    
C64   C65   A    
C36   H11   S    
C66   C70   A    
Cr6   O10   S    
C14   H32   S    
C33   C35   A    
C12   O21   A    
C22   H2    S    
Cr4   O19   S    
C61   C62   A    
C24   H3    S    
Cr5   O16   S    
C10   C11   A    
C7    C67   T    
C62   O29   S    
C9    C18   T    
Cr5   O15   S    
C26   C29   S    
C49   C50   A    
C31   C45   S    
C13   C16   A    
C72   O9    A    
C27   C28   S    
C34   C58   S    
C14   C15   A    
C71   O8    A    
C5    C78   A    
C13   C14   A    
Cr2   O20   S    
