data_mof_unit_50316.cif
_audit_creation_date              2012-12-10T19:03:39-0500
_audit_creation_method            fapswitch 2.2
_symmetry_space_group_name_H-M    P1
_symmetry_Int_Tables_number       1
_space_group_crystal_system       triclinic
_cell_length_a                    15.91169
_cell_length_b                    10.816196
_cell_length_c                    9.556629
_cell_angle_alpha                 89.897855
_cell_angle_beta                  90.029328
_cell_angle_gamma                 89.785593
_cell_volume                      1644.71932278

loop_
_atom_site_label
_atom_site_type_symbol
_atom_type_description
_atom_site_fract_x
_atom_site_fract_y
_atom_site_fract_z
_atom_type_partial_charge
C1    C     C_R   0.498977 0.262378 0.500095 0.814925
C2    C     C_3   0.950417 0.385804 0.583503 -0.190300
C3    C     C_3   0.916524 0.499580 0.496665 0.084700
C4    C     C_3   0.951670 0.623284 0.564057 -0.039582
C5    C     C_3   0.050573 0.618794 0.560765 -0.401583
C6    C     C_1   0.823913 0.500569 0.498889 -0.124141
C7    C     C_1   0.175753 0.497693 0.498088 -0.037065
C8    C     C_1   0.251057 0.498957 0.499621 -0.124661
C9    C     C_R   0.498891 0.063457 0.625621 0.075096
C10   C     C_R   0.491757 0.129270 0.500551 -0.082599
C11   C     C_R   0.473646 0.064726 0.376621 -0.184222
C12   C     C_R   0.340385 0.499953 0.500001 0.823628
C13   C     C_R   0.473558 0.935802 0.376619 -0.178586
C14   C     C_R   0.491781 0.870667 0.500459 -0.105336
C15   C     C_R   0.499335 0.936129 0.625760 0.053686
C16   C     C_3   0.564095 0.930030 0.739886 -0.083364
C17   C     C_3   0.563703 0.071203 0.738776 -0.458973
C18   C     C_R   0.566978 0.455317 0.074019 0.230147
C19   C     C_R   0.431465 0.539492 0.074064 -0.030549
C20   C     C_R   0.431507 0.539648 0.925568 -0.051086
C21   C     C_R   0.566928 0.454160 0.926482 0.299245
C22   C     C_3   0.655706 0.500812 0.922135 -0.245030
C23   C     C_R   0.498792 0.737557 0.499934 0.796860
C24   C     C_3   0.654802 0.502567 0.080865 -0.538497
C25   C     C_R   0.659528 0.500315 0.499972 0.852564
C26   C     C_3   0.048943 0.388810 0.589645 -0.224432
C27   C     C_3   0.049319 0.485682 0.338990 -0.078963
C28   C     C_3   0.949785 0.493177 0.341619 -0.259199
C29   C     C_1   0.748689 0.500654 0.499835 -0.148400
C30   C     C_3   0.083220 0.495880 0.494608 0.074823
Cu1   Cu    Cu3+1 0.500000 0.499980 0.640670 0.979705
Cu2   Cu    Cu3+1 0.500000 0.500020 0.359330 0.969929
H1    H     H_    0.066290 0.412040 0.699493 0.143617
H2    H     H_    0.928889 0.398555 0.693360 0.109962
H3    H     H_    0.462954 0.113216 0.278922 0.174541
H4    H     H_    0.462702 0.887726 0.278990 0.186599
H5    H     H_    0.537833 0.114512 0.835197 0.205610
H6    H     H_    0.623020 0.113693 0.700638 0.232140
H7    H     H_    0.376711 0.573510 0.128898 0.159548
H8    H     H_    0.376842 0.573944 0.870495 0.156127
H9    H     H_    0.660934 0.594431 0.874577 0.166998
H10   H     H_    0.697958 0.434753 0.131493 0.214353
H11   H     H_    0.658184 0.597634 0.124638 0.219756
H12   H     H_    0.929171 0.580354 0.289719 0.148390
H13   H     H_    0.077019 0.627596 0.668410 0.173377
H14   H     H_    0.078237 0.698405 0.503928 0.225653
N1    N     N_R   0.500530 0.500930 0.147930 -0.192043
N2    N     N_R   0.500530 0.500890 0.852020 -0.211663
O1    O     O_R   0.500000 0.319640 0.618810 -0.560005
O2    O     O_R   0.500010 0.319680 0.381230 -0.583290
O3    O     O_R   0.379430 0.499990 0.618840 -0.589681
O4    O     O_R   0.379440 0.500030 0.381260 -0.575099
O5    O     O_R   0.499990 0.680320 0.618770 -0.584105
O6    O     O_R   0.500000 0.680360 0.381190 -0.577831
O7    O     O_R   0.620560 0.499970 0.618740 -0.564457
O8    O     O_R   0.620570 0.500010 0.381160 -0.582859
C31   C     C_2   0.909975 0.263379 0.543582 0.410602
H15   H     H_    0.852554 0.235609 0.596118 0.100128
O9    O     O_2   0.938161 0.197165 0.451521 -0.512716
C32   C     C_2   0.916087 0.737091 0.489488 0.380358
H16   H     H_    0.848617 0.752446 0.488844 0.102075
O10   O     O_2   0.960681 0.812262 0.429912 -0.503982
C33   C     C_1   0.531260 0.875584 0.869924 0.280768
N3    N     N_1   0.505553 0.832799 0.972325 -0.307347
C34   C     C_1   0.644785 0.874659 0.696785 0.266205
N4    N     N_1   0.708075 0.830932 0.663003 -0.301687
C35   C     C_1   0.090973 0.268202 0.566589 0.320662
N5    N     N_1   0.124182 0.174079 0.549160 -0.220158
C36   C     C_2   0.719008 0.409821 0.865163 0.422653
H17   H     H_    0.785473 0.430658 0.873031 0.088107
O11   O     O_2   0.697050 0.313476 0.810000 -0.565369
C37   C     C_1   0.080650 0.592036 0.254785 0.341395
N6    N     N_1   0.104961 0.674658 0.189367 -0.233139
C38   C     C_2   0.082288 0.367412 0.269926 0.368921
H18   H     H_    0.052959 0.279377 0.291749 0.158531
O12   O     O_2   0.142717 0.368420 0.190891 -0.536466
C39   C     C_1   0.907159 0.398369 0.255318 0.283565
N7    N     N_1   0.873628 0.325094 0.187296 -0.244455
C40   C     C_1   0.923781 0.635452 0.711484 0.210246
N8    N     N_1   0.901988 0.644973 0.826524 -0.273279

loop_
_geom_bond_atom_site_label_1
_geom_bond_atom_site_label_2
_ccdc_geom_bond_type
C18   C21   A    
C24   H10   S    
C19   C20   A    
C25   O8    A    
C3    C6    S    
C18   N1    A    
C2    C31   S    
C7    C8    T    
C39   N7    T    
C38   O12   D    
C18   C24   S    
C26   C35   S    
C3    C28   S    
C20   H8    S    
C19   N1    A    
C31   O9    D    
C22   H9    S    
C15   C16   S    
C32   O10   D    
C36   O11   D    
Cu2   O4    S    
C16   C17   S    
C16   C33   S    
C27   C38   S    
C1    O2    A    
C22   C36   S    
C21   N2    A    
C2    H2    S    
C7    C30   S    
C13   C14   A    
C27   C30   S    
Cu1   O1    S    
Cu2   O6    S    
C12   O4    A    
C23   O5    A    
C25   C29   S    
C38   H18   S    
C35   N5    T    
C4    C40   S    
C4    C5    S    
C5    H13   S    
C28   H12   S    
C40   N8    T    
C32   H16   S    
C14   C23   S    
C26   H1    S    
Cu1   Cu2   S    
C8    C12   S    
C4    C32   S    
C2    C26   S    
C17   H5    S    
Cu1   O5    S    
C28   C39   S    
Cu2   O2    S    
C20   N2    A    
C19   H7    S    
C13   H4    S    
C9    C17   S    
C26   C30   S    
Cu1   N2    S    
Cu2   N1    S    
C22   C24   S    
C3    C4    S    
C12   O3    A    
C23   O6    A    
C5    C30   S    
C9    C10   A    
C1    C10   S    
C25   O7    A    
Cu1   O3    S    
C37   N6    T    
C5    H14   S    
C11   H3    S    
C2    C3    S    
C9    C15   A    
C11   C13   A    
C31   H15   S    
C17   H6    S    
C36   H17   S    
C10   C11   A    
C33   N3    T    
C6    C29   T    
C34   N4    T    
C27   C28   S    
C24   H11   S    
C14   C15   A    
C16   C34   S    
Cu1   O7    S    
C21   C22   S    
C1    O1    A    
Cu2   O8    S    
C27   C37   S    
