data_mof_unit_29563.cif
_audit_creation_date              2012-10-26T17:11:27-0400
_audit_creation_method            fapswitch 2.2
_symmetry_space_group_name_H-M    P1
_symmetry_Int_Tables_number       1
_space_group_crystal_system       triclinic
_cell_length_a                    28.09916
_cell_length_b                    18.724608
_cell_length_c                    16.837102
_cell_angle_alpha                 89.999872
_cell_angle_beta                  62.538077
_cell_angle_gamma                 89.999864
_cell_volume                      7860.54144877

loop_
_atom_site_label
_atom_site_type_symbol
_atom_type_description
_atom_site_fract_x
_atom_site_fract_y
_atom_site_fract_z
_atom_type_partial_charge
C1    C     C_R   0.294677 0.727641 0.329676 0.811814
C2    C     C_R   0.705148 0.272042 0.670209 0.813549
C3    C     C_R   0.705323 0.727640 0.670324 0.811813
C4    C     C_R   0.294852 0.272043 0.329791 0.813549
C5    C     C_R   0.794677 0.227640 0.329676 0.811814
C6    C     C_R   0.205148 0.772041 0.670209 0.813551
C7    C     C_R   0.205323 0.227640 0.670324 0.811810
C8    C     C_R   0.794852 0.772042 0.329791 0.813547
C9    C     C_R   0.410188 0.999992 0.465168 0.066112
C10   C     C_R   0.589812 0.999993 0.534832 0.066114
C11   C     C_R   0.910188 0.499993 0.465168 0.066113
C12   C     C_R   0.089812 0.499993 0.534832 0.066113
C13   C     C_R   0.583156 0.871139 0.547922 -0.241982
C14   C     C_R   0.416849 0.128845 0.452068 -0.238494
C15   C     C_R   0.416844 0.871139 0.452081 -0.241983
C16   C     C_R   0.583152 0.128845 0.547930 -0.238495
C17   C     C_R   0.083156 0.371139 0.547922 -0.241982
C18   C     C_R   0.916849 0.628845 0.452068 -0.238495
C19   C     C_R   0.916844 0.371139 0.452081 -0.241983
C20   C     C_R   0.083152 0.628845 0.547930 -0.238495
C21   C     C_R   0.221767 0.769936 0.952087 -0.036525
C22   C     C_R   0.782131 0.232398 0.041439 -0.045340
C23   C     C_R   0.778230 0.769943 0.047914 -0.036484
C24   C     C_R   0.217866 0.232402 0.958564 -0.045343
C25   C     C_R   0.721770 0.269943 0.952086 -0.036485
C26   C     C_R   0.282130 0.732396 0.041440 -0.045366
C27   C     C_R   0.278227 0.269949 0.047917 -0.036490
C28   C     C_R   0.717869 0.732398 0.958561 -0.045339
C29   C     C_R   0.240396 0.700077 0.947763 -0.363675
C30   C     C_R   0.763425 0.302567 0.045479 -0.361039
C31   C     C_R   0.759597 0.700086 0.052246 -0.363683
C32   C     C_R   0.236571 0.302571 0.954524 -0.361042
C33   C     C_R   0.740403 0.200085 0.947754 -0.363684
C34   C     C_R   0.263427 0.802566 0.045471 -0.360977
C35   C     C_R   0.259596 0.200090 0.052248 -0.363669
C36   C     C_R   0.736575 0.802567 0.954520 -0.361039
C37   C     C_R   0.272933 0.681538 0.987623 0.469493
C38   C     C_R   0.735312 0.322121 0.998378 0.468739
C39   C     C_R   0.727062 0.681544 0.012385 0.469492
C40   C     C_R   0.264684 0.322126 0.001626 0.468740
C41   C     C_R   0.772938 0.181543 0.987615 0.469491
C42   C     C_R   0.235314 0.822117 0.998369 0.468677
C43   C     C_R   0.227060 0.181548 0.012387 0.469499
C44   C     C_R   0.764687 0.822121 0.001622 0.468738
C45   C     C_R   0.144367 0.830058 0.944104 -0.133107
C46   C     C_R   0.858630 0.173620 0.053481 -0.152686
C47   C     C_R   0.855630 0.830064 0.055898 -0.133083
C48   C     C_R   0.141369 0.173621 0.946519 -0.152700
C49   C     C_R   0.644370 0.330064 0.944102 -0.133085
C50   C     C_R   0.358629 0.673620 0.053481 -0.152679
C51   C     C_R   0.355628 0.330069 0.055900 -0.133084
C52   C     C_R   0.641370 0.673620 0.946518 -0.152686
C53   C     C_R   0.117772 0.852067 0.895162 -0.094149
C54   C     C_R   0.883299 0.149214 0.104174 -0.085355
C55   C     C_R   0.882227 0.852070 0.104839 -0.094134
C56   C     C_R   0.116701 0.149214 0.895826 -0.085351
C57   C     C_R   0.617773 0.352069 0.895161 -0.094135
C58   C     C_R   0.383299 0.649214 0.104174 -0.085356
C59   C     C_R   0.382226 0.352072 0.104840 -0.094132
C60   C     C_R   0.616701 0.649214 0.895825 -0.085355
C61   C     C_R   0.136541 0.829831 0.806816 -0.232541
C62   C     C_R   0.863215 0.169700 0.193310 -0.229798
C63   C     C_R   0.863458 0.829833 0.193185 -0.232520
C64   C     C_R   0.136785 0.169700 0.806690 -0.229798
C65   C     C_R   0.636542 0.329833 0.806815 -0.232519
C66   C     C_R   0.363215 0.669701 0.193309 -0.229799
C67   C     C_R   0.363458 0.329833 0.193185 -0.232517
C68   C     C_R   0.636785 0.669700 0.806690 -0.229799
C69   C     C_R   0.182686 0.788202 0.765726 -0.065821
C70   C     C_R   0.817202 0.211627 0.233714 -0.069536
C71   C     C_R   0.817312 0.788206 0.234275 -0.065813
C72   C     C_R   0.182798 0.211627 0.766286 -0.069538
C73   C     C_R   0.682688 0.288206 0.765725 -0.065814
C74   C     C_R   0.317202 0.711628 0.233713 -0.069535
C75   C     C_R   0.317312 0.288208 0.234275 -0.065812
C76   C     C_R   0.682798 0.711627 0.766286 -0.069536
C77   C     C_R   0.209660 0.767215 0.814359 -0.230809
C78   C     C_R   0.790989 0.233252 0.183615 -0.208250
C79   C     C_R   0.790336 0.767223 0.185643 -0.230821
C80   C     C_R   0.209010 0.233255 0.816386 -0.208246
C81   C     C_R   0.709664 0.267223 0.814356 -0.230819
C82   C     C_R   0.290989 0.733253 0.183615 -0.208245
C83   C     C_R   0.290334 0.267227 0.185645 -0.230822
C84   C     C_R   0.709011 0.733252 0.816385 -0.208249
C85   C     C_R   0.196704 0.631657 0.526866 0.810942
C86   C     C_R   0.803295 0.368341 0.473138 0.810492
C87   C     C_R   0.803296 0.631657 0.473134 0.810943
C88   C     C_R   0.196705 0.368341 0.526862 0.810491
C89   C     C_R   0.696704 0.131657 0.526866 0.810942
C90   C     C_R   0.303294 0.868341 0.473138 0.810493
C91   C     C_R   0.303296 0.131657 0.473134 0.810943
C92   C     C_R   0.696705 0.868341 0.526862 0.810491
C93   C     C_R   0.190921 0.788452 0.903531 0.127818
C94   C     C_R   0.811276 0.213488 0.093204 0.131232
C95   C     C_R   0.809075 0.788461 0.096472 0.127814
C96   C     C_R   0.188723 0.213490 0.906797 0.131233
C97   C     C_R   0.690925 0.288460 0.903528 0.127814
C98   C     C_R   0.311275 0.713488 0.093204 0.131228
C99   C     C_R   0.309072 0.288466 0.096474 0.127816
C100  C     C_R   0.688724 0.713488 0.906796 0.131231
C101  C     C_R   0.926581 0.903093 0.066589 0.813447
C102  C     C_R   0.072953 0.097448 0.933736 0.808797
C103  C     C_R   0.073418 0.903092 0.933411 0.813455
C104  C     C_R   0.927047 0.097448 0.066264 0.808796
C105  C     C_R   0.426581 0.403093 0.066589 0.813446
C106  C     C_R   0.572953 0.597448 0.933736 0.808796
C107  C     C_R   0.573419 0.403093 0.933411 0.813449
C108  C     C_R   0.427047 0.597448 0.066264 0.808793
C109  C     C_R   0.041443 0.629378 0.524731 0.095742
C110  C     C_R   0.958553 0.370603 0.475277 0.096269
C111  C     C_R   0.958557 0.629378 0.475266 0.095743
C112  C     C_R   0.041446 0.370603 0.524725 0.096269
C113  C     C_R   0.541443 0.129378 0.524731 0.095742
C114  C     C_R   0.458553 0.870603 0.475277 0.096267
C115  C     C_R   0.458557 0.129378 0.475266 0.095743
C116  C     C_R   0.541446 0.870603 0.524725 0.096269
C117  C     C_R   0.019979 0.694096 0.513683 -0.197192
C118  C     C_R   0.980018 0.305884 0.486321 -0.204995
C119  C     C_R   0.980021 0.694096 0.486312 -0.197192
C120  C     C_R   0.019981 0.305884 0.513683 -0.204994
C121  C     C_R   0.519979 0.194096 0.513684 -0.197192
C122  C     C_R   0.480018 0.805884 0.486321 -0.204996
C123  C     C_R   0.480021 0.194096 0.486312 -0.197192
C124  C     C_R   0.519981 0.805884 0.513683 -0.204996
C125  C     C_R   0.978462 0.564603 0.489292 0.030038
C126  C     C_R   0.021539 0.435378 0.510705 0.029488
C127  C     C_R   0.021538 0.564603 0.510706 0.030039
C128  C     C_R   0.978461 0.435378 0.489296 0.029488
C129  C     C_R   0.478462 0.064603 0.489292 0.030039
C130  C     C_R   0.521539 0.935378 0.510705 0.029488
C131  C     C_R   0.521538 0.064603 0.510706 0.030039
C132  C     C_R   0.478461 0.935378 0.489297 0.029487
C133  C     C_R   0.456186 0.999991 0.479825 -0.051178
C134  C     C_R   0.543814 0.999991 0.520174 -0.051177
C135  C     C_R   0.956186 0.499991 0.479825 -0.051177
C136  C     C_R   0.043814 0.499991 0.520174 -0.051177
C137  C     C_R   0.387361 0.934348 0.458108 0.049013
C138  C     C_R   0.612637 0.065640 0.541898 0.049046
C139  C     C_R   0.612639 0.934348 0.541893 0.049012
C140  C     C_R   0.387363 0.065639 0.458101 0.049044
C141  C     C_R   0.887361 0.434348 0.458108 0.049013
C142  C     C_R   0.112637 0.565640 0.541898 0.049046
C143  C     C_R   0.112639 0.434348 0.541893 0.049012
C144  C     C_R   0.887363 0.565639 0.458101 0.049045
C145  C     C_R   0.335952 0.934528 0.459145 -0.111638
C146  C     C_R   0.664047 0.065466 0.540859 -0.111098
C147  C     C_R   0.664048 0.934528 0.540855 -0.111638
C148  C     C_R   0.335953 0.065466 0.459141 -0.111098
C149  C     C_R   0.835952 0.434528 0.459145 -0.111638
C150  C     C_R   0.164047 0.565466 0.540859 -0.111098
C151  C     C_R   0.164048 0.434528 0.540855 -0.111638
C152  C     C_R   0.835953 0.565466 0.459141 -0.111098
C153  C     C_R   0.311898 0.999997 0.458794 -0.281354
C154  C     C_R   0.688102 0.999997 0.541206 -0.281354
C155  C     C_R   0.811898 0.499997 0.458794 -0.281354
C156  C     C_R   0.188102 0.499997 0.541206 -0.281354
Cu1   Cu    Cu3+1 0.209920 0.785290 0.495070 0.928587
Cu2   Cu    Cu3+1 0.790080 0.214710 0.504930 0.922466
Cu3   Cu    Cu3+1 0.790080 0.785290 0.504930 0.928587
Cu4   Cu    Cu3+1 0.209920 0.214710 0.495070 0.922466
Cu5   Cu    Cu3+1 0.709920 0.285290 0.495070 0.928586
Cu6   Cu    Cu3+1 0.290080 0.714710 0.504930 0.922465
Cu7   Cu    Cu3+1 0.290080 0.285290 0.504930 0.928586
Cu8   Cu    Cu3+1 0.709920 0.714710 0.495070 0.922465
Cu9   Cu    Cu3+1 0.495240 0.500000 0.924150 0.925327
Cu10  Cu    Cu3+1 0.504760 0.500000 0.075850 0.925329
Cu11  Cu    Cu3+1 0.995240 0.000000 0.924150 0.925327
Cu12  Cu    Cu3+1 0.004760 0.000000 0.075850 0.925327
H1    H     H_    0.535216 0.755284 0.523563 0.134144
H2    H     H_    0.464788 0.244696 0.476428 0.135805
H3    H     H_    0.464783 0.755284 0.476442 0.134144
H4    H     H_    0.535213 0.244697 0.523566 0.135805
H5    H     H_    0.035216 0.255284 0.523563 0.134144
H6    H     H_    0.964788 0.744696 0.476428 0.135805
H7    H     H_    0.964783 0.255284 0.476442 0.134144
H8    H     H_    0.035213 0.744697 0.523566 0.135805
H9    H     H_    0.272436 0.999998 0.462251 0.188765
H10   H     H_    0.727563 0.999998 0.537749 0.188764
H11   H     H_    0.772437 0.499998 0.462251 0.188764
H12   H     H_    0.227563 0.499998 0.537749 0.188764
H13   H     H_    0.590401 0.821406 0.572408 0.176483
H14   H     H_    0.409601 0.178578 0.427583 0.176554
H15   H     H_    0.409598 0.821405 0.427595 0.176484
H16   H     H_    0.590399 0.178579 0.572413 0.176555
H17   H     H_    0.090401 0.321406 0.572408 0.176483
H18   H     H_    0.909601 0.678578 0.427583 0.176554
H19   H     H_    0.909598 0.321405 0.427595 0.176484
H20   H     H_    0.090399 0.678579 0.572413 0.176555
H21   H     H_    0.229768 0.659679 0.912693 0.160529
H22   H     H_    0.771855 0.342939 0.083370 0.165726
H23   H     H_    0.770223 0.659689 0.087322 0.160527
H24   H     H_    0.228141 0.342943 0.916633 0.165725
H25   H     H_    0.729777 0.159689 0.912679 0.160527
H26   H     H_    0.271862 0.842941 0.083352 0.165750
H27   H     H_    0.270223 0.159694 0.087322 0.160538
H28   H     H_    0.728145 0.842939 0.916629 0.165726
H29   H     H_    0.129747 0.846632 0.013068 0.177002
H30   H     H_    0.875872 0.160422 0.983279 0.164214
H31   H     H_    0.870252 0.846637 0.986933 0.177008
H32   H     H_    0.124128 0.160422 0.016722 0.164213
H33   H     H_    0.629748 0.346636 0.013067 0.177008
H34   H     H_    0.375871 0.660420 0.983279 0.164212
H35   H     H_    0.370248 0.346643 0.986936 0.177006
H36   H     H_    0.624128 0.660421 0.016721 0.164214
H37   H     H_    0.116350 0.847308 0.768798 0.177934
H38   H     H_    0.882456 0.150860 0.232254 0.176668
H39   H     H_    0.883651 0.847307 0.231202 0.177928
H40   H     H_    0.117545 0.150859 0.767745 0.176667
H41   H     H_    0.616349 0.347307 0.768798 0.177928
H42   H     H_    0.382456 0.650861 0.232254 0.176667
H43   H     H_    0.383651 0.347306 0.231201 0.177926
H44   H     H_    0.617544 0.650860 0.767745 0.176668
H45   H     H_    0.246455 0.736632 0.782051 0.151079
H46   H     H_    0.754053 0.263570 0.215355 0.155816
H47   H     H_    0.753540 0.736642 0.217952 0.151083
H48   H     H_    0.245945 0.263574 0.784646 0.155816
H49   H     H_    0.746460 0.236642 0.782048 0.151082
H50   H     H_    0.254054 0.763572 0.215354 0.155816
H51   H     H_    0.253538 0.236647 0.217954 0.151083
H52   H     H_    0.745946 0.763570 0.784645 0.155816
O1    O     O_R   0.255040 0.869590 0.478480 -0.582523
O2    O     O_R   0.744960 0.130410 0.521520 -0.583230
O3    O     O_R   0.744960 0.869590 0.521520 -0.582522
O4    O     O_R   0.255040 0.130410 0.478480 -0.583231
O5    O     O_R   0.755040 0.369590 0.478480 -0.582522
O6    O     O_R   0.244960 0.630410 0.521520 -0.583231
O7    O     O_R   0.244960 0.369590 0.521520 -0.582522
O8    O     O_R   0.755040 0.630410 0.478480 -0.583231
O9    O     O_R   0.182050 0.796550 0.624440 -0.593039
O10   O     O_R   0.817950 0.203450 0.375560 -0.592934
O11   O     O_R   0.817950 0.796550 0.375560 -0.593038
O12   O     O_R   0.182050 0.203450 0.624440 -0.592934
O13   O     O_R   0.682050 0.296550 0.624440 -0.593038
O14   O     O_R   0.317950 0.703450 0.375560 -0.592933
O15   O     O_R   0.317950 0.296550 0.375560 -0.593039
O16   O     O_R   0.682050 0.703450 0.624440 -0.592934
O17   O     O_R   0.250530 0.763330 0.367210 -0.588273
O18   O     O_R   0.749470 0.236670 0.632790 -0.591659
O19   O     O_R   0.749470 0.763330 0.632790 -0.588274
O20   O     O_R   0.250530 0.236670 0.367210 -0.591659
O21   O     O_R   0.750530 0.263330 0.367210 -0.588275
O22   O     O_R   0.249470 0.736670 0.632790 -0.591659
O23   O     O_R   0.249470 0.263330 0.632790 -0.588274
O24   O     O_R   0.750530 0.736670 0.367210 -0.591659
O25   O     O_R   0.177260 0.690030 0.513710 -0.598669
O26   O     O_R   0.822740 0.309970 0.486290 -0.599522
O27   O     O_R   0.822740 0.690030 0.486290 -0.598667
O28   O     O_R   0.177260 0.309970 0.513710 -0.599522
O29   O     O_R   0.677260 0.190030 0.513710 -0.598669
O30   O     O_R   0.322740 0.809970 0.486290 -0.599522
O31   O     O_R   0.322740 0.190030 0.486290 -0.598668
O32   O     O_R   0.677260 0.809970 0.513710 -0.599521
O33   O     O_R   0.051640 0.926880 0.885090 -0.587098
O34   O     O_R   0.948360 0.073120 0.114910 -0.588120
O35   O     O_R   0.948360 0.926880 0.114910 -0.587098
O36   O     O_R   0.051640 0.073120 0.885090 -0.588122
O37   O     O_R   0.551640 0.426880 0.885090 -0.587097
O38   O     O_R   0.448360 0.573120 0.114910 -0.588120
O39   O     O_R   0.448360 0.426880 0.114910 -0.587097
O40   O     O_R   0.551640 0.573120 0.885090 -0.588121
O41   O     O_R   0.940620 0.926560 0.986760 -0.593808
O42   O     O_R   0.059380 0.073440 0.013240 -0.602818
O43   O     O_R   0.059380 0.926560 0.013240 -0.593806
O44   O     O_R   0.940620 0.073440 0.986760 -0.602814
O45   O     O_R   0.440620 0.426560 0.986760 -0.593811
O46   O     O_R   0.559380 0.573440 0.013240 -0.602814
O47   O     O_R   0.559380 0.426560 0.013240 -0.593808
O48   O     O_R   0.440620 0.573440 0.986760 -0.602814
O49   O     O_3   0.220105 0.892303 0.998987 -0.613900
C157  C     C_3   0.263824 0.932772 0.936062 0.062817
H53   H     H_    0.300608 0.901033 0.893633 0.120003
H54   H     H_    0.275025 0.972959 0.973059 0.182972
C158  C     C_3   0.246603 0.971871 0.874190 -0.715937
H55   H     H_    0.209521 0.003126 0.913851 0.282031
H56   H     H_    0.278880 0.008821 0.829949 0.204621
H57   H     H_    0.238738 0.932843 0.831983 0.231043
O50   O     O_3   0.793008 0.112696 0.978370 -0.589986
C159  C     C_3   0.828926 0.099918 0.886970 0.013959
H58   H     H_    0.859110 0.143633 0.858411 0.130281
H59   H     H_    0.807076 0.094869 0.846493 0.146970
C160  C     C_3   0.858974 0.030372 0.877716 -0.737398
H60   H     H_    0.831871 0.984607 0.887725 0.275224
H61   H     H_    0.893246 0.026401 0.809453 0.181229
H62   H     H_    0.874362 0.027787 0.927596 0.275126
O51   O     O_3   0.779910 0.892304 0.000981 -0.613918
C161  C     C_3   0.736183 0.932814 0.063816 0.062754
H63   H     H_    0.699360 0.901115 0.106160 0.120001
H64   H     H_    0.725065 0.973032 0.026746 0.183052
C162  C     C_3   0.753341 0.971863 0.125800 -0.715880
H65   H     H_    0.790452 0.003089 0.086222 0.281968
H66   H     H_    0.721063 0.008836 0.169983 0.204630
H67   H     H_    0.761131 0.932805 0.168060 0.231028
O52   O     O_3   0.206993 0.112700 0.021631 -0.589982
C163  C     C_3   0.171077 0.099918 0.113032 0.013998
H68   H     H_    0.140890 0.143628 0.141594 0.130272
H69   H     H_    0.192929 0.094871 0.153506 0.146986
C164  C     C_3   0.141034 0.030368 0.122284 -0.737447
H70   H     H_    0.168147 0.984607 0.112240 0.275285
H71   H     H_    0.106775 0.026381 0.190558 0.181236
H72   H     H_    0.125629 0.027791 0.072427 0.275093
O53   O     O_3   0.720089 0.392304 0.999019 -0.613919
C165  C     C_3   0.763816 0.432813 0.936183 0.062756
H73   H     H_    0.800640 0.401114 0.893837 0.119999
H74   H     H_    0.774935 0.473032 0.973254 0.183049
C166  C     C_3   0.746657 0.471864 0.874201 -0.715874
H75   H     H_    0.709546 0.503090 0.913781 0.281968
H76   H     H_    0.778935 0.508836 0.830017 0.204630
H77   H     H_    0.738864 0.432807 0.831941 0.231027
O54   O     O_3   0.293003 0.612691 0.978380 -0.589985
C167  C     C_3   0.328921 0.599912 0.886980 0.013958
H78   H     H_    0.359104 0.643629 0.858420 0.130275
H79   H     H_    0.307071 0.594861 0.846503 0.146967
C168  C     C_3   0.358972 0.530369 0.877727 -0.737375
H80   H     H_    0.331872 0.484602 0.887724 0.275214
H81   H     H_    0.393247 0.526402 0.809467 0.181225
H82   H     H_    0.374354 0.527781 0.927614 0.275130
O55   O     O_3   0.279905 0.392310 0.000986 -0.613919
C169  C     C_3   0.236176 0.432819 0.063820 0.062773
H83   H     H_    0.199351 0.401120 0.106157 0.119992
H84   H     H_    0.225062 0.473042 0.026748 0.183056
C170  C     C_3   0.253330 0.471862 0.125813 -0.715873
H85   H     H_    0.290444 0.503086 0.086242 0.281962
H86   H     H_    0.221052 0.508834 0.169995 0.204628
H87   H     H_    0.261117 0.432800 0.168075 0.231024
O56   O     O_3   0.706993 0.612696 0.021630 -0.589987
C171  C     C_3   0.671075 0.599918 0.113030 0.013955
H88   H     H_    0.640890 0.643632 0.141588 0.130282
H89   H     H_    0.692924 0.594869 0.153507 0.146970
C172  C     C_3   0.641027 0.530372 0.122283 -0.737398
H90   H     H_    0.668131 0.484607 0.112273 0.275226
H91   H     H_    0.606756 0.526399 0.190547 0.181231
H92   H     H_    0.625639 0.527785 0.072404 0.275124

loop_
_geom_bond_atom_site_label_1
_geom_bond_atom_site_label_2
_ccdc_geom_bond_type
C85   O25   A    
C22   C94   S    
C34   C42   A    
C16   C113  A    
C110  C118  A    
C39   O56   S    
C80   H48   S    
O53   C165  S    
C160  H62   S    
C90   O30   A    
C27   C99   S    
C13   C139  A    
C117  C119  A    
C46   H30   S    
C88   O7    A    
C8    O24   A    
C158  H57   S    
C30   C38   A    
C109  C127  A    
C111  C125  A    
C102  O42   A    
C67   H43   S    
C171  H88   S    
Cu5   O21   S    
C169  C170  S    
C34   H26   S    
C143  C151  A    
C126  C136  A    
C19   C141  A    
C92   C147  S    
C82   C98   A    
C78   H46   S    
C130  C134  A    
Cu4   O28   S    
Cu7   O7    S    
C73   C81   A    
C14   H14   S    
C153  H9    S    
C7    O12   A    
C50   H34   S    
C167  H79   S    
C115  C123  A    
C77   H45   S    
C84   C100  A    
Cu4   Cu7   S    
C127  C136  A    
C128  C135  A    
C112  C120  A    
C27   C35   A    
C21   C29   A    
Cu3   O11   S    
C24   C32   A    
C5    C70   S    
C2    O13   A    
C146  C154  A    
Cu12  O34   S    
C171  C172  S    
Cu10  O46   S    
Cu2   O18   S    
C129  C133  A    
Cu4   O4    S    
C63   C71   A    
C43   O52   S    
C157  H54   S    
C36   C44   A    
C148  C153  A    
C32   C40   A    
C137  C145  A    
C8    C71   S    
C48   C96   A    
C161  C162  S    
C16   C138  A    
C16   H16   S    
C87   O27   A    
C52   C100  A    
C24   C96   S    
C149  C155  A    
C161  H64   S    
C156  H12   S    
C21   C93   S    
C78   C94   A    
Cu7   O31   S    
Cu9   O37   S    
C118  C120  A    
C121  C123  A    
C49   C97   A    
C21   C42   A    
C164  H70   S    
Cu5   O13   S    
C87   O8    A    
C125  C127  A    
C24   C43   A    
C4    O15   A    
C10   C138  A    
C91   O4    A    
Cu12  O42   S    
Cu1   Cu6   S    
C62   H38   S    
C110  C128  A    
C15   C137  A    
C9    C133  A    
C6    C69   S    
Cu11  O33   S    
C69   C77   A    
C45   C93   A    
C71   C79   A    
Cu1   O9    S    
C44   O51   S    
C62   C70   A    
C1    C74   S    
C101  O35   A    
C119  H6    S    
C9    C140  A    
C168  H81   S    
C20   H20   S    
C45   H29   S    
C66   C74   A    
C49   C57   A    
C111  C119  A    
C108  O48   A    
C169  H84   S    
C52   C60   A    
C59   C67   A    
C53   C61   A    
C23   C95   S    
C166  H76   S    
C55   C63   A    
C56   C64   A    
Cu7   O23   S    
C66   H42   S    
C35   C43   A    
C45   C53   A    
O50   C159  S    
Cu1   O1    S    
C164  H71   S    
C47   H31   S    
Cu6   O6    S    
C92   O32   A    
C49   H33   S    
C50   C98   A    
Cu2   O2    S    
C90   O1    A    
C7    C72   S    
C1    O17   A    
Cu9   O48   S    
C36   H28   S    
O52   C163  S    
C25   C38   A    
C88   O28   A    
C83   H51   S    
C46   C94   A    
C27   C40   A    
C170  H87   S    
C81   H49   S    
C162  H65   S    
C116  C130  A    
C11   C141  A    
C60   C68   A    
C2    C73   S    
C25   C97   S    
C14   C140  A    
C170  H85   S    
C13   H13   S    
C87   C152  S    
C88   C151  S    
C67   C75   A    
C122  C124  A    
C68   H44   S    
C60   C106  S    
C126  C128  A    
C22   C30   A    
C160  H61   S    
C104  O44   A    
C12   C143  A    
C107  O37   A    
C56   C102  S    
C72   C80   A    
C165  H74   S    
Cu5   O29   S    
C125  C135  A    
C138  C146  A    
C158  H56   S    
C102  O36   A    
C30   H22   S    
C123  H2    S    
Cu7   O15   S    
C121  H4    S    
C113  C121  A    
C122  H3    S    
C12   C136  A    
C3    O19   A    
C86   O5    A    
C159  H58   S    
C6    O22   A    
C83   C99   A    
Cu1   O25   S    
C61   H37   S    
Cu8   O16   S    
C131  C134  A    
C76   C84   A    
C109  C117  A    
C91   O31   A    
C59   C105  S    
C89   O29   A    
C48   H32   S    
Cu10  O38   S    
C54   C104  S    
C90   C145  S    
C163  H68   S    
C8    O11   A    
C22   C41   A    
C14   C115  A    
C31   H23   S    
C162  H67   S    
C32   H24   S    
Cu11  O41   S    
C85   C150  S    
C4    C75   S    
Cu2   Cu5   S    
C19   H19   S    
C9    C137  A    
C124  H1    S    
C17   H17   S    
C159  C160  S    
C15   H15   S    
Cu10  O47   S    
Cu6   O22   S    
C113  C131  A    
C112  C126  A    
C35   H27   S    
C33   H25   S    
C63   H39   S    
O49   C157  S    
C157  C158  S    
C140  C148  A    
C74   C82   A    
C155  H11   S    
C51   H35   S    
C106  O46   A    
C141  C149  A    
C50   C58   A    
C163  C164  S    
Cu11  Cu12  S    
C54   C62   A    
C28   C39   A    
C23   C44   A    
C52   H36   S    
C130  C132  A    
C79   C95   A    
O51   C161  S    
C11   C135  A    
C3    O16   A    
C152  C155  A    
C1    O14   A    
C46   C54   A    
C4    O20   A    
C151  C156  A    
C18   C111  A    
Cu1   O17   S    
C154  H10   S    
C103  O33   A    
C68   C76   A    
C10   C139  A    
Cu8   O24   S    
C167  H78   S    
C38   O53   S    
Cu11  O36   S    
C116  C124  A    
Cu8   O32   S    
C92   O3    A    
C57   C65   A    
C26   C37   A    
C5    O10   A    
C17   C143  A    
C33   C41   A    
C142  C150  A    
C18   C144  A    
C75   C83   A    
C168  H80   S    
C53   C103  S    
C77   C93   A    
C12   C142  A    
C58   C108  S    
O56   C171  S    
C13   C116  A    
Cu6   O14   S    
C28   C36   A    
C144  C152  A    
C166  H75   S    
C29   C37   A    
Cu3   O19   S    
C157  H53   S    
C105  O45   A    
C23   C31   A    
C167  C168  S    
Cu9   Cu10  S    
C101  O41   A    
C70   C78   A    
C172  H90   S    
C108  O38   A    
Cu2   O10   S    
C104  O34   A    
O54   C167  S    
C64   H40   S    
C165  C166  S    
C139  C147  A    
C161  H63   S    
C65   C73   A    
C147  C154  A    
C26   C34   A    
C132  C133  A    
C170  H86   S    
C80   C96   A    
C84   H52   S    
C11   C144  A    
C65   H41   S    
C145  C153  A    
C28   C100  S    
C79   H47   S    
C86   O26   A    
Cu9   O45   S    
C106  O40   A    
C91   C148  S    
C58   C66   A    
Cu5   O5    S    
C51   C99   A    
C89   C146  S    
C20   C142  A    
C41   O50   S    
C86   C149  S    
C89   O2    A    
C2    O18   A    
C168  H82   S    
C164  H72   S    
C160  H60   S    
Cu12  O35   S    
C18   H18   S    
C169  H83   S    
C82   H50   S    
C166  H77   S    
Cu4   O12   S    
C158  H55   S    
C172  H91   S    
C15   C114  A    
Cu8   O8    S    
C3    C76   S    
Cu3   O27   S    
C26   C98   S    
C117  H8    S    
C57   C107  S    
C118  H7    S    
C107  O47   A    
C172  H92   S    
C159  H59   S    
C51   C59   A    
C7    O23   A    
C17   C112  A    
C47   C55   A    
C115  C129  A    
C19   C110  A    
C61   C69   A    
C48   C56   A    
C165  H73   S    
C47   C95   A    
Cu4   O20   S    
Cu3   Cu8   S    
C114  C132  A    
C10   C134  A    
C171  H89   S    
C55   C101  S    
Cu9   O40   S    
C37   O54   S    
Cu10  O39   S    
C42   O49   S    
Cu6   O30   S    
C163  H69   S    
C81   C97   A    
Cu3   O3    S    
C162  H66   S    
C31   C39   A    
C29   H21   S    
Cu11  O44   S    
C64   C72   A    
O55   C169  S    
Cu12  O43   S    
C20   C109  A    
C114  C122  A    
C120  H5    S    
C105  O39   A    
C6    O9    A    
C25   C33   A    
C103  O43   A    
C150  C156  A    
C85   O6    A    
Cu2   O26   S    
C5    O21   A    
C40   O55   S    
C129  C131  A    
