data_mof_unit_34949.cif
_audit_creation_date              2012-12-10T18:00:16-0500
_audit_creation_method            fapswitch 2.2
_symmetry_space_group_name_H-M    P1
_symmetry_Int_Tables_number       1
_space_group_crystal_system       triclinic
_cell_length_a                    10.765677
_cell_length_b                    9.540604
_cell_length_c                    10.649811
_cell_angle_alpha                 90.333214
_cell_angle_beta                  90.242914
_cell_angle_gamma                 90.080728
_cell_volume                      1093.82393486

loop_
_atom_site_label
_atom_site_type_symbol
_atom_type_description
_atom_site_fract_x
_atom_site_fract_y
_atom_site_fract_z
_atom_type_partial_charge
C1    C     C_R   0.871352 0.500160 0.500047 -0.329181
C2    C     C_R   0.128648 0.499839 0.499953 -0.329181
C3    C     C_R   0.262491 0.499928 0.499844 0.945342
C4    C     C_R   0.737509 0.500072 0.500156 0.945342
C5    C     C_R   0.497876 0.499386 0.259397 0.892122
C6    C     C_R   0.502124 0.500614 0.740602 0.892122
C7    C     C_3   0.411171 0.587139 0.040701 0.176228
C8    C     C_3   0.588829 0.412861 0.959299 0.176228
C9    C     C_3   0.524489 0.630743 0.961988 0.190388
C10   C     C_3   0.475511 0.369257 0.038012 0.190387
C11   C     C_3   0.389268 0.458571 0.954256 -0.235325
C12   C     C_3   0.610732 0.541429 0.045744 -0.235325
C13   C     C_3   0.503107 0.502187 0.877224 -0.190310
C14   C     C_3   0.496893 0.497813 0.122776 -0.190310
C15   C     C_R   0.410547 0.073741 0.436707 0.034077
C16   C     C_R   0.589453 0.926259 0.563293 0.034077
C17   C     C_R   0.589299 0.074861 0.563548 0.036456
C18   C     C_R   0.410701 0.925139 0.436452 0.036456
C19   C     C_R   0.064126 0.435593 0.400085 0.307064
C20   C     C_R   0.935874 0.564407 0.599915 0.307064
C21   C     C_R   0.934691 0.435742 0.400134 0.307546
C22   C     C_R   0.065309 0.564258 0.599866 0.307546
Cu1   Cu    Cu3+1 0.500000 0.640660 0.500000 1.038692
Cu2   Cu    Cu3+1 0.500000 0.359340 0.500000 1.038692
H1    H     H_    0.338739 0.129000 0.385924 0.179418
H2    H     H_    0.661261 0.871000 0.614076 0.179418
H3    H     H_    0.660824 0.130985 0.614762 0.155490
H4    H     H_    0.339176 0.869015 0.385238 0.155490
H5    H     H_    0.298467 0.424729 0.914529 0.225945
H6    H     H_    0.701533 0.575271 0.085470 0.225945
N1    N     N_R   0.500000 0.852070 0.500000 -0.183791
N2    N     N_R   0.500000 0.147930 0.500000 -0.183791
O1    O     O_R   0.319640 0.618740 0.499990 -0.565548
O2    O     O_R   0.680360 0.381260 0.500010 -0.565548
O3    O     O_R   0.680360 0.618740 0.500010 -0.572633
O4    O     O_R   0.319640 0.381260 0.499990 -0.572633
O5    O     O_R   0.499970 0.618770 0.316850 -0.587501
O6    O     O_R   0.500030 0.381230 0.683150 -0.587501
O7    O     O_R   0.500030 0.618770 0.683150 -0.546917
O8    O     O_R   0.499970 0.381230 0.316850 -0.546917
I1    I     I_    0.265407 0.721130 0.105205 -0.120114
I2    I     I_    0.734592 0.278870 0.894795 -0.120113
I3    I     I_    0.573021 0.839027 0.908124 -0.158718
I4    I     I_    0.426978 0.160973 0.091876 -0.158718
Cl1   Cl    Cl    0.145056 0.359836 0.272226 -0.507144
Cl2   Cl    Cl    0.854944 0.640164 0.727774 -0.507144
Cl3   Cl    Cl    0.852212 0.360081 0.272354 -0.491586
Cl4   Cl    Cl    0.147788 0.639918 0.727645 -0.491586

loop_
_geom_bond_atom_site_label_1
_geom_bond_atom_site_label_2
_ccdc_geom_bond_type
C2    C22   A    
C15   C18   A    
C22   Cl4   S    
Cu1   Cu2   S    
Cu2   N2    S    
C1    C21   A    
C8    C13   S    
C5    O5    A    
Cu2   O6    S    
C8    C12   S    
C1    C4    S    
C12   H6    S    
C19   Cl1   S    
C2    C3    S    
C12   C14   S    
C4    O3    A    
C15   N2    A    
C16   N1    A    
C7    C11   S    
C11   C13   S    
C5    C14   S    
Cu2   O4    S    
C3    O4    A    
Cu1   O7    S    
C19   C21   A    
C8    I2    S    
Cu1   O3    S    
C7    I1    S    
C16   H2    S    
C9    C12   S    
C4    O2    A    
C15   H1    S    
C9    I3    S    
C10   C11   S    
C3    O1    A    
C10   I4    S    
C17   H3    S    
C20   Cl2   S    
C18   H4    S    
C11   H5    S    
C8    C10   S    
C10   C14   S    
C5    O8    A    
C7    C9    S    
C17   N2    A    
C9    C13   S    
C6    O7    A    
Cu2   O8    S    
C1    C20   A    
C18   N1    A    
C21   Cl3   S    
C2    C19   A    
Cu1   O5    S    
C6    O6    A    
C7    C14   S    
Cu2   O2    S    
Cu1   O1    S    
C20   C22   A    
C16   C17   A    
C6    C13   S    
Cu1   N1    S    
