data_mof_unit_8620.cif
_audit_creation_date              2012-12-10T19:44:59-0500
_audit_creation_method            fapswitch 2.2
_symmetry_space_group_name_H-M    P1
_symmetry_Int_Tables_number       1
_space_group_crystal_system       triclinic
_cell_length_a                    15.044302
_cell_length_b                    10.805913
_cell_length_c                    13.822141
_cell_angle_alpha                 89.474798
_cell_angle_beta                  92.097015
_cell_angle_gamma                 88.951667
_cell_volume                      2245.04029933

loop_
_atom_site_label
_atom_site_type_symbol
_atom_type_description
_atom_site_fract_x
_atom_site_fract_y
_atom_site_fract_z
_atom_type_partial_charge
C1    C     C_R   0.498156 0.262494 0.499973 0.785091
C2    C     C_R   0.592908 0.873791 0.660447 0.064110
C3    C     C_R   0.447814 0.137431 0.249967 0.137702
C4    C     C_R   0.552185 0.862580 0.750033 0.137695
C5    C     C_R   0.404553 0.203180 0.173756 -0.257520
C6    C     C_R   0.595453 0.796854 0.826250 -0.257533
C7    C     C_R   0.320828 0.259012 0.185504 0.124799
C8    C     C_R   0.679184 0.741041 0.814508 0.124789
C9    C     C_R   0.460748 0.935142 0.422971 -0.223891
C10   C     C_R   0.539247 0.064858 0.577029 -0.223894
C11   C     C_R   0.503250 0.871472 0.500487 -0.093132
C12   C     C_R   0.501842 0.737505 0.500027 0.785093
C13   C     C_R   0.496747 0.128528 0.499513 -0.093134
C14   C     C_R   0.543513 0.936676 0.578248 0.093365
C15   C     C_R   0.456483 0.063325 0.421751 0.093369
C16   C     C_R   0.329019 0.503034 0.498652 0.820544
C17   C     C_R   0.670981 0.496965 0.501348 0.820542
C18   C     C_R   0.562858 0.430183 0.797729 0.297487
C19   C     C_R   0.437143 0.569820 0.202270 0.297486
C20   C     C_R   0.438533 0.568677 0.790462 -0.002808
C21   C     C_R   0.561469 0.431326 0.209538 -0.002811
C22   C     C_R   0.438766 0.571772 0.892579 -0.044688
C23   C     C_R   0.059366 0.332888 0.615198 -0.204252
C24   C     C_R   0.561237 0.428233 0.107421 -0.044691
C25   C     C_R   0.500078 0.498343 0.948413 -0.003819
C26   C     C_R   0.499924 0.501662 0.051586 -0.003823
C27   C     C_R   0.561710 0.422366 0.901041 -0.002535
C28   C     C_R   0.438292 0.577639 0.098959 -0.002544
C29   C     C_R   0.379465 0.649466 0.939136 -0.224894
C30   C     C_R   0.620537 0.350538 0.060864 -0.224899
C31   C     C_R   0.378946 0.655983 0.040663 0.189215
C32   C     C_R   0.621056 0.344022 0.959337 0.189217
C33   C     C_R   0.809484 0.581612 0.449479 -0.271608
C34   C     C_R   0.940637 0.667052 0.384767 -0.204254
C35   C     C_R   0.190518 0.418359 0.550507 -0.271596
C36   C     C_R   0.767674 0.492242 0.503390 -0.052105
C37   C     C_R   0.232326 0.507742 0.496606 -0.052101
C38   C     C_R   0.817355 0.396529 0.551619 0.119949
C39   C     C_R   0.182640 0.603443 0.448371 0.119918
C40   C     C_R   0.911830 0.405870 0.559600 0.092096
C41   C     C_R   0.088168 0.594081 0.440379 0.092112
C42   C     C_R   0.953267 0.497073 0.501536 -0.008806
C43   C     C_R   0.046732 0.502879 0.498442 -0.008790
C44   C     C_R   0.901232 0.582472 0.445752 0.076641
C45   C     C_R   0.278188 0.244823 0.274123 0.206934
C46   C     C_R   0.098769 0.417482 0.554225 0.076635
C47   C     C_R   0.967112 0.328613 0.621947 0.177258
C48   C     C_R   0.032890 0.671320 0.378019 0.177248
C49   C     C_3   0.316541 0.751841 0.081676 -0.835301
C50   C     C_3   0.683461 0.248163 0.918324 -0.835304
C51   C     C_3   0.771322 0.276355 0.574175 -0.888594
C52   C     C_3   0.228658 0.723632 0.425826 -0.888589
C53   C     C_3   0.932952 0.251746 0.704125 -0.860622
C54   C     C_3   0.067056 0.748143 0.295820 -0.860636
C55   C     C_3   0.273659 0.152903 0.444107 -0.845569
C56   C     C_R   0.721819 0.755217 0.725886 0.206919
C57   C     C_3   0.726333 0.847087 0.555886 -0.845571
C58   C     C_R   0.320523 0.176255 0.350968 0.125220
C59   C     C_R   0.679474 0.823755 0.649032 0.125220
C60   C     C_R   0.407088 0.126212 0.339551 0.064096
Cu1   Cu    Cu3+1 0.500010 0.499980 0.597420 0.934197
Cu2   Cu    Cu3+1 0.499990 0.500020 0.402580 0.934195
H1    H     H_    0.769673 0.649421 0.407848 0.149677
H2    H     H_    0.898527 0.728247 0.339507 0.148213
H3    H     H_    0.436980 0.211678 0.105377 0.155730
H4    H     H_    0.563029 0.788364 0.894631 0.155728
H5    H     H_    0.615918 0.319962 0.693981 0.263526
H6    H     H_    0.681968 0.441369 0.734512 0.236247
H7    H     H_    0.384079 0.680037 0.306019 0.263526
H8    H     H_    0.318036 0.558625 0.265488 0.236232
H9    H     H_    0.260779 0.706028 0.117273 0.242290
H10   H     H_    0.353480 0.812194 0.133175 0.242891
H11   H     H_    0.286187 0.813906 0.024556 0.218081
H12   H     H_    0.230331 0.350554 0.592139 0.149675
H13   H     H_    0.646520 0.187809 0.866826 0.242891
H14   H     H_    0.739223 0.293975 0.882725 0.242288
H15   H     H_    0.713815 0.186099 0.975444 0.218082
H16   H     H_    0.704679 0.270232 0.537721 0.213446
H17   H     H_    0.810210 0.197063 0.546076 0.240112
H18   H     H_    0.762295 0.264965 0.652627 0.243123
H19   H     H_    0.295293 0.729774 0.462296 0.213448
H20   H     H_    0.237700 0.735027 0.347377 0.243117
H21   H     H_    0.189747 0.802911 0.453913 0.240123
H22   H     H_    0.884168 0.306650 0.745103 0.232859
H23   H     H_    0.428675 0.885068 0.364150 0.147914
H24   H     H_    0.904164 0.164445 0.677058 0.241015
H25   H     H_    0.987141 0.224576 0.757315 0.226268
H26   H     H_    0.115866 0.693231 0.254883 0.232855
H27   H     H_    0.012873 0.775246 0.242602 0.226280
H28   H     H_    0.095818 0.835477 0.322860 0.241017
H29   H     H_    0.274135 0.420391 0.127212 0.215980
H30   H     H_    0.315638 0.324258 0.045433 0.226122
H31   H     H_    0.725891 0.579689 0.872831 0.215981
H32   H     H_    0.684392 0.675852 0.954592 0.226116
H33   H     H_    0.196120 0.395401 0.277636 0.218058
H34   H     H_    0.571320 0.114932 0.635850 0.147916
H35   H     H_    0.148379 0.266356 0.232073 0.239248
H36   H     H_    0.803914 0.604668 0.722418 0.218070
H37   H     H_    0.851633 0.733762 0.767926 0.239248
H38   H     H_    0.204714 0.190920 0.442753 0.265183
H39   H     H_    0.269919 0.051645 0.457377 0.227312
H40   H     H_    0.311215 0.195205 0.505457 0.215583
H41   H     H_    0.795280 0.809078 0.557243 0.265183
H42   H     H_    0.688777 0.804763 0.494547 0.215584
H43   H     H_    0.730065 0.948342 0.542600 0.227312
H44   H     H_    0.528269 0.020512 0.179102 0.216513
H45   H     H_    0.390611 0.624166 0.747923 0.138673
H46   H     H_    0.576951 0.151980 0.216997 0.213037
H47   H     H_    0.471736 0.979505 0.820893 0.216514
H48   H     H_    0.423053 0.848033 0.783016 0.213037
H49   H     H_    0.609392 0.375838 0.252077 0.138672
H50   H     H_    0.333631 0.707208 0.895451 0.138067
H51   H     H_    0.666371 0.292796 0.104548 0.138068
H52   H     H_    0.101478 0.271686 0.660448 0.148211
N1    N     N_R   0.499960 0.499900 0.743810 -0.193160
N2    N     N_3   0.466221 0.917759 0.763277 -0.585977
N3    N     N_R   0.500040 0.500100 0.256190 -0.193158
N4    N     N_3   0.636279 0.374000 0.751875 -0.627223
N5    N     N_3   0.363721 0.625999 0.248124 -0.627228
N6    N     N_3   0.277381 0.327521 0.107063 -0.596043
N7    N     N_3   0.722643 0.672567 0.892959 -0.596043
N8    N     N_3   0.191748 0.299532 0.286258 -0.592566
N9    N     N_3   0.808268 0.700534 0.713759 -0.592571
N10   N     N_3   0.533778 0.082252 0.236724 -0.585976
O1    O     O_R   0.500000 0.319630 0.582270 -0.598599
O2    O     O_R   0.500000 0.680370 0.417730 -0.598597
O3    O     O_R   0.499990 0.319660 0.417730 -0.570856
O4    O     O_R   0.500010 0.680340 0.582270 -0.570856
O5    O     O_R   0.370260 0.499960 0.582280 -0.585965
O6    O     O_R   0.629740 0.500040 0.417720 -0.585966
O7    O     O_R   0.370250 0.499990 0.417740 -0.589198
O8    O     O_R   0.629750 0.500010 0.582260 -0.589192

loop_
_geom_bond_atom_site_label_1
_geom_bond_atom_site_label_2
_ccdc_geom_bond_type
C40   C47   A    
C57   H43   S    
C35   H12   S    
C22   C29   A    
C15   C60   S    
Cu2   O6    S    
C29   H50   S    
C8    C56   A    
C39   C41   A    
C48   C54   S    
C55   H40   S    
C43   C46   A    
C53   H22   S    
C7    C45   A    
C35   C37   A    
C1    O1    A    
C54   H28   S    
Cu2   O3    S    
C11   C14   A    
C8    N7    S    
C57   C59   S    
C12   O2    A    
C58   C60   A    
C33   C36   A    
C22   C25   A    
Cu2   O2    S    
C16   O7    A    
C51   H18   S    
Cu2   N3    S    
C21   N3    A    
H47   N2    S    
C9    H23   S    
C49   H10   S    
C55   H38   S    
Cu1   N1    S    
C53   H24   S    
C17   C36   S    
C18   N4    S    
Cu1   O8    S    
Cu1   O5    S    
C16   C37   S    
C47   C53   S    
C20   H45   S    
H6    N4    S    
C3    C60   A    
C40   C42   A    
C39   C52   S    
C17   O6    A    
C19   N5    S    
C23   C46   A    
C17   O8    A    
C41   C43   A    
Cu1   Cu2   S    
C42   C44   A    
C31   C49   S    
C7    N6    S    
C21   H49   S    
C51   H17   S    
H36   N9    S    
C57   H41   S    
C45   C58   A    
C23   C47   A    
C56   N9    S    
C34   C44   A    
C54   H27   S    
C4    C6    A    
C10   C14   A    
C5    C7    A    
C2    C59   A    
C6    C8    A    
C38   C51   S    
C25   C26   A    
H7    N5    S    
C52   H21   S    
C2    C4    A    
H35   N8    S    
C16   O5    A    
C50   H14   S    
C10   H34   S    
H8    N5    S    
C33   H1    S    
C34   H2    S    
C53   H25   S    
C52   H20   S    
C19   C28   A    
C9    C11   A    
C32   C50   S    
H33   N8    S    
C5    H3    S    
C20   C22   A    
C13   C15   A    
C49   H11   S    
C21   C24   A    
C1    C13   S    
C42   C43   A    
C50   H15   S    
H48   N2    S    
C3    N10   S    
H37   N9    S    
C57   H42   S    
C27   C32   A    
C33   C44   A    
Cu2   O7    S    
C4    N2    S    
C28   C31   A    
C18   C27   A    
C1    O3    A    
H31   N7    S    
C3    C5    A    
C10   C13   A    
C18   N1    A    
C20   N1    A    
C11   C12   S    
C12   O4    A    
C45   N8    S    
C25   C27   A    
C55   H39   S    
C26   C28   A    
C56   C59   A    
C54   H26   S    
C36   C38   A    
H30   N6    S    
C51   H16   S    
C37   C39   A    
C50   H13   S    
C23   H52   S    
C30   C32   A    
C24   C26   A    
C38   C40   A    
C41   C48   A    
H46   N10   S    
Cu1   O4    S    
C9    C15   A    
C52   H19   S    
C2    C14   S    
H5    N4    S    
C24   C30   A    
H32   N7    S    
C6    H4    S    
C34   C48   A    
C19   N3    A    
C29   C31   A    
C49   H9    S    
C55   C58   S    
H44   N10   S    
H29   N6    S    
Cu1   O1    S    
C35   C46   A    
C30   H51   S    
