data_mof_unit_38534.cif
_audit_creation_date              2013-03-05T15:42:29-0500
_audit_creation_method            fapswitch 2.2
_symmetry_space_group_name_H-M    P1
_symmetry_Int_Tables_number       1
_space_group_crystal_system       triclinic
_cell_length_a                    7.795445
_cell_length_b                    8.545446
_cell_length_c                    23.386124
_cell_angle_alpha                 91.179011
_cell_angle_beta                  84.783773
_cell_angle_gamma                 93.984746
_cell_volume                      1547.51809498

loop_
_atom_site_label
_atom_site_type_symbol
_atom_site_description
_atom_site_fract_x
_atom_site_fract_y
_atom_site_fract_z
_atom_type_partial_charge
O1    O     O_R   0.389250 0.738570 0.503790 -0.599197
O2    O     O_R   0.610750 0.261430 0.496210 -0.599542
O3    O     O_R   0.678390 0.711620 0.493890 -0.577886
O4    O     O_R   0.321610 0.288380 0.506110 -0.577671
C1    C     C_R   0.545916 0.794690 0.498451 0.953601
C2    C     C_R   0.454083 0.205309 0.501558 0.952574
O5    O     O_R   0.355400 0.513520 0.588790 -0.622379
O6    O     O_R   0.644600 0.486480 0.411210 -0.625747
O7    O     O_R   0.644550 0.486570 0.578900 -0.610079
O8    O     O_R   0.355450 0.513430 0.421100 -0.610384
C3    C     C_R   0.500444 0.498450 0.610539 0.873999
C4    C     C_R   0.499543 0.500667 0.389365 0.877047
Zn1   Zn    Zn3+2 0.306930 0.518000 0.506610 1.095062
Zn2   Zn    Zn3+2 0.693070 0.482000 0.493390 1.093525
C5    C     C_R   0.453380 0.361829 0.121807 0.548077
C6    C     C_R   0.569854 0.603669 0.876571 0.527346
N1    N     N_R   0.508215 0.499592 0.147068 -0.347074
N2    N     N_R   0.513027 0.466816 0.851180 -0.349811
C7    C     C_R   0.574228 0.626538 0.116019 0.494167
C8    C     C_R   0.469500 0.333108 0.881380 0.508836
C9    C     C_R   0.581666 0.620484 0.056310 -0.021425
C10   C     C_R   0.470691 0.335910 0.940987 -0.043409
C11   C     C_R   0.523730 0.480893 0.028825 -0.052323
C12   C     C_R   0.526496 0.475820 0.968604 -0.057543
C13   C     C_R   0.461994 0.347274 0.061530 -0.081613
C14   C     C_R   0.583568 0.610863 0.936070 -0.059742
C15   C     C_R   0.645949 0.751102 0.023945 -0.254042
C16   C     C_R   0.415630 0.202319 0.973073 -0.229245
C17   C     C_R   0.648401 0.748081 0.964254 0.209160
C18   C     C_R   0.409270 0.205767 0.033148 0.212561
O9    O     O_2   0.390693 0.240706 0.155392 -0.524261
O10   O     O_2   0.610412 0.731773 0.844005 -0.508340
O11   O     O_2   0.630361 0.758750 0.143192 -0.565375
O12   O     O_2   0.421742 0.199095 0.853682 -0.548117
H1    H     H_    0.695552 0.856938 0.044860 0.182915
H2    H     H_    0.377806 0.094532 0.951091 0.205971
C19   C     C_R   0.636283 0.408484 0.754881 -0.158520
C20   C     C_R   0.657633 0.499050 0.233424 -0.159943
H3    H     H_    0.742285 0.357760 0.772888 0.150115
H4    H     H_    0.778056 0.490225 0.206992 0.151193
C21   C     C_R   0.637081 0.421013 0.695909 -0.179200
C22   C     C_R   0.656262 0.497389 0.292605 -0.195147
H5    H     H_    0.743905 0.377616 0.668668 0.185485
H6    H     H_    0.777535 0.489496 0.311245 0.179225
C23   C     C_R   0.500534 0.488098 0.672535 -0.054379
C24   C     C_R   0.499865 0.504074 0.327045 -0.055958
C25   C     C_R   0.362209 0.540975 0.708628 -0.264174
C26   C     C_R   0.344933 0.514362 0.301536 -0.244160
H7    H     H_    0.255640 0.591990 0.690812 0.181962
H8    H     H_    0.223417 0.519921 0.327726 0.182911
C27   C     C_R   0.361096 0.529040 0.768065 0.265443
C28   C     C_R   0.345958 0.517957 0.241856 0.261681
C29   C     C_R   0.500633 0.464216 0.790893 0.296397
C30   C     C_R   0.503645 0.508551 0.208003 0.300547
C31   C     C_2   0.569860 0.958401 0.497064 -0.329892
C32   C     C_2   0.430135 0.041599 0.502962 -0.329682
H9    H     H_    0.701559 0.009739 0.490870 0.247626
H10   H     H_    0.298434 0.990260 0.509157 0.247424
N3    N     N_2   0.950330 0.457950 0.484560 0.031230
N4    N     N_2   0.049670 0.542050 0.515440 0.033320
N5    N     N_2   0.717198 0.883778 0.933458 -0.248729
H11   H     H_    0.690283 0.987751 0.954478 0.218773
C33   C     C_3   0.898560 0.880756 0.914057 -0.655377
H12   H     H_    0.940616 0.987496 0.888820 0.246209
H13   H     H_    0.921937 0.776470 0.886130 0.253865
H14   H     H_    0.976796 0.878064 0.951370 0.205236
N6    N     N_2   0.357980 0.066635 0.064975 -0.248104
H15   H     H_    0.457508 0.016522 0.082408 0.264796
C34   C     C_3   0.227927 0.955872 0.044256 -0.749681
H16   H     H_    0.176487 0.875954 0.079497 0.254253
H17   H     H_    0.284948 0.883687 0.008315 0.223245
H18   H     H_    0.119063 0.018605 0.030332 0.245393
N7    N     N_2   0.222183 0.585186 0.804749 -0.299944
H19   H     H_    0.169224 0.680525 0.788589 0.247465
C35   C     C_3   0.091113 0.464267 0.823365 -0.770343
H20   H     H_    0.984899 0.516970 0.850341 0.230630
H21   H     H_    0.145498 0.376162 0.849397 0.270145
H22   H     H_    0.037409 0.404942 0.785568 0.239669
N8    N     N_2   0.188598 0.525534 0.215918 -0.306278
H23   H     H_    0.083053 0.472253 0.239508 0.229630
C36   C     C_3   0.155702 0.680833 0.198008 -0.732038
H24   H     H_    0.036473 0.674600 0.175227 0.245675
H25   H     H_    0.263809 0.729962 0.168149 0.265570
H26   H     H_    0.137948 0.760227 0.236017 0.257350
N9    N     N_R   0.000953 0.307171 0.474198 0.304929
O13   O     O_R   0.971311 0.203616 0.514533 -0.370723
O14   O     O_R   0.037593 0.260207 0.421555 -0.387955
N10   N     N_R   0.999189 0.692908 0.525717 0.304831
O15   O     O_R   0.028614 0.796190 0.485281 -0.370052
O16   O     O_R   0.963123 0.740257 0.578345 -0.381579

loop_
_geom_bond_atom_site_label_1
_geom_bond_atom_site_label_2
_geom_bond_distance
_ccdc_geom_bond_type
C31   C32   1.336850 D    
C33   H13   1.109476 S    
C15   C17   1.394068 A    
C21   H5    1.083306 S    
N7    H19   1.031895 S    
O7    Zn2   2.001223 S    
C36   H24   1.110187 S    
N4    N10   1.383869 S    
C25   H7    1.083768 S    
Zn1   N4    2.021626 S    
N9    O13   1.300975 A    
O5    C3    1.296616 A    
Zn2   N3    2.021625 S    
O1    C1    1.276888 A    
C7    C9    1.392334 A    
C12   C14   1.418377 A    
C20   C22   1.383439 A    
C5    C13   1.408474 A    
N5    C33   1.446824 S    
C22   C24   1.402715 A    
C23   C25   1.402103 A    
O4    Zn1   1.973196 S    
C34   H17   1.110591 S    
N2    C29   1.421530 S    
C11   C12   1.406365 A    
C28   N8    1.422982 S    
C18   N6    1.429574 S    
C8    O12   1.350457 S    
N5    H11   1.031632 S    
C26   H8    1.083637 S    
C9    C15   1.399260 A    
C33   H14   1.110610 S    
N3    N4    1.280890 D    
C10   C16   1.399681 A    
N7    C35   1.446424 S    
O2    C2    1.276898 A    
C22   H6    1.083191 S    
C36   H25   1.109037 S    
C28   C30   1.406566 A    
C17   N5    1.424298 S    
N9    O14   1.299991 A    
C6    C14   1.404982 A    
C24   C26   1.403660 A    
N6    H15   1.030748 S    
O4    C2    1.288598 A    
C7    O11   1.350590 S    
C2    C32   1.399122 S    
N8    C36   1.446408 S    
C25   C27   1.395021 A    
C15   H1    1.083650 S    
N8    H23   1.031671 S    
C27   C29   1.405913 A    
C34   H18   1.110977 S    
C35   H20   1.109747 S    
N3    N9    1.383856 S    
C35   H21   1.107861 S    
C20   C30   1.395095 A    
O5    Zn1   1.993713 S    
O6    C4    1.296530 A    
O7    C3    1.296671 A    
O3    Zn2   1.973195 S    
O8    C4    1.298664 A    
C4    C24   1.458088 S    
N10   O16   1.299975 A    
C31   H9    1.086473 S    
C10   C12   1.408129 A    
C3    C23   1.454444 S    
O1    Zn1   1.948897 S    
C36   H26   1.111510 S    
C13   C18   1.420997 A    
C5    N1    1.365646 A    
O6    Zn2   1.993713 S    
C1    C31   1.399116 S    
C27   N7    1.423085 S    
C8    C10   1.394560 A    
O3    C1    1.288603 A    
O8    Zn1   2.001223 S    
C5    O9    1.349214 S    
C6    O10   1.349367 S    
C9    C11   1.409399 A    
C19   C29   1.394934 A    
C19   H3    1.081021 S    
C20   H4    1.082340 S    
C16   C18   1.401070 A    
N1    C7    1.362265 A    
C32   H10   1.086497 S    
N2    C8    1.362060 A    
C11   C13   1.418811 A    
C19   C21   1.384900 A    
C34   H16   1.109702 S    
O2    Zn2   1.948897 S    
C35   H22   1.110381 S    
C33   H12   1.110511 S    
C26   C28   1.395922 A    
N10   O15   1.300987 A    
C16   H2    1.081634 S    
C14   C17   1.418176 A    
C6    N2    1.365184 A    
C21   C23   1.401411 A    
N6    C34   1.447614 S    
N1    C30   1.422864 S    
