data_mof_unit_34592.cif
_audit_creation_date              2012-12-11T14:27:02-0500
_audit_creation_method            fapswitch 2.2
_symmetry_space_group_name_H-M    P1
_symmetry_Int_Tables_number       1
_space_group_crystal_system       triclinic
_cell_length_a                    15.234834
_cell_length_b                    14.892899
_cell_length_c                    14.80531
_cell_angle_alpha                 108.844189
_cell_angle_beta                  109.378423
_cell_angle_gamma                 110.067576
_cell_volume                      2589.61528187

loop_
_atom_site_label
_atom_site_type_symbol
_atom_type_description
_atom_site_fract_x
_atom_site_fract_y
_atom_site_fract_z
_atom_type_partial_charge
C1    C     C_R   0.008081 0.805126 0.100942 -0.097150
C2    C     C_R   0.220766 0.757984 0.314667 -0.112221
C3    C     C_R   0.915181 0.406993 0.212545 -0.061507
C4    C     C_R   0.794014 0.194583 0.704221 -0.091073
C5    C     C_R   0.298487 0.590218 0.996179 -0.073948
C6    C     C_R   0.956652 0.497133 0.312689 0.089240
C7    C     C_R   0.300849 0.497702 0.938155 0.088733
C8    C     C_R   0.322667 0.789869 0.325934 0.131938
C9    C     C_R   0.009755 0.182140 0.006939 0.013131
C10   C     C_3   0.490077 0.443401 0.827246 -0.119074
C11   C     C_3   0.375703 0.424820 0.815396 -0.038983
C12   C     C_R   0.700902 0.132398 0.703081 0.051497
C13   C     C_3   0.531885 0.432245 0.018443 -0.361397
C14   C     C_3   0.596899 0.617539 0.017818 0.029286
C15   C     C_3   0.574759 0.495072 0.956573 0.016171
C16   C     C_R   0.023154 0.594508 0.781970 -0.077179
C17   C     C_3   0.396170 0.493369 0.936779 0.100063
C18   C     C_3   0.439076 0.453907 0.021819 -0.312196
C19   C     C_3   0.489267 0.613861 0.987182 -0.491071
C20   C     C_2   0.433106 0.873880 0.524956 -0.087316
C21   C     C_2   0.425222 0.855841 0.427128 -0.151550
C22   C     C_2   0.529134 0.968544 0.626582 -0.105560
C23   C     C_R   0.945367 0.506351 0.678609 0.041587
C24   C     C_2   0.624300 0.014598 0.631205 -0.128362
C25   C     C_2   0.825749 0.431853 0.479270 0.205038
C26   C     C_2   0.891953 0.518281 0.582499 -0.199611
C27   C     C_2   0.838030 0.441093 0.387232 -0.078385
C28   C     C_R   0.687344 0.407541 0.939836 -0.022086
C29   C     C_2   0.937040 0.497804 0.402577 -0.191169
C30   C     C_2   0.130068 0.117064 0.060193 -0.190931
C31   C     C_2   0.029442 0.100554 0.025990 0.207879
C32   C     C_2   0.155768 0.035025 0.071393 -0.054011
C33   C     C_2   0.120533 0.987591 0.123972 -0.152010
C34   C     C_R   0.675480 0.498893 0.965820 -0.001337
C35   C     C_R   0.933678 0.412180 0.687229 -0.010736
C36   C     C_R   0.777433 0.591765 0.031261 0.011242
C37   C     C_R   0.702654 0.198666 0.794230 -0.091462
C38   C     C_R   0.099136 0.805255 0.010903 -0.121822
C39   C     C_R   0.076055 0.870133 0.078102 0.149236
C40   C     C_2   0.828802 0.294439 0.167973 0.990388
C41   C     C_2   0.480711 0.339419 0.744359 1.072351
C42   C     C_2   0.323711 0.460302 0.735775 1.046821
C43   C     C_2   0.841997 0.151564 0.641783 0.988909
C44   C     C_2   0.496360 0.308938 0.968174 1.046348
C45   C     C_R   0.009309 0.589588 0.306556 -0.092974
C46   C     C_2   0.361758 0.378874 0.044573 1.041060
C47   C     C_2   0.619160 0.479598 0.138806 1.073056
C48   C     C_2   0.926541 0.631185 0.596699 1.011168
C49   C     C_R   0.206451 0.408122 0.904522 -0.080739
C50   C     C_R   0.312168 0.757464 0.222588 -0.109043
C51   C     C_R   0.949814 0.223469 0.038245 -0.064556
C52   C     C_R   0.042404 0.226575 0.947826 -0.105098
H1    H     H_    0.987072 0.833783 0.163244 0.123349
H2    H     H_    0.498015 0.671630 0.063349 0.199128
H3    H     H_    0.479487 0.530822 0.101231 0.194436
H4    H     H_    0.362430 0.832420 0.530250 0.134395
H5    H     H_    0.051058 0.680168 0.808118 0.151119
H6    H     H_    0.493926 0.898999 0.420003 0.158121
H7    H     H_    0.514424 0.010603 0.689764 0.131656
H8    H     H_    0.639389 0.968043 0.571240 0.187162
H9    H     H_    0.767547 0.393374 0.305655 0.182588
H10   H     H_    0.007973 0.544143 0.483656 0.159151
H11   H     H_    0.192978 0.188483 0.070571 0.155558
H12   H     H_    0.174670 0.322724 0.853391 0.178538
H13   H     H_    0.182062 0.999519 0.016851 0.146491
H14   H     H_    0.627649 0.322192 0.891185 0.135036
H15   H     H_    0.096901 0.027117 0.179638 0.171458
H16   H     H_    0.880517 0.328332 0.622938 0.134191
H17   H     H_    0.800800 0.677295 0.064630 0.119521
H18   H     H_    0.653910 0.172114 0.829395 0.136224
H19   H     H_    0.162429 0.833857 0.991758 0.103206
H20   H     H_    0.036249 0.673066 0.363634 0.123473
H21   H     H_    0.696975 0.156666 0.034593 0.330802
H22   H     H_    0.448288 0.182420 0.690455 0.328097
H23   H     H_    0.375736 0.771135 0.202242 0.116244
H24   H     H_    0.260248 0.553576 0.706366 0.340417
H25   H     H_    0.977597 0.169050 0.637415 0.351282
H26   H     H_    0.533330 0.191806 0.973850 0.335130
H27   H     H_    0.308822 0.369975 0.151899 0.318644
H28   H     H_    0.656575 0.524358 0.296926 0.362467
H29   H     H_    0.048036 0.783249 0.657030 0.342362
H30   H     H_    0.908803 0.198660 0.079915 0.140605
H31   H     H_    0.083423 0.205646 0.904683 0.167820
H32   H     H_    0.200810 0.774234 0.379414 0.101054
H33   H     H_    0.350556 0.674823 0.021803 0.110649
H34   H     H_    0.640814 0.671113 0.992565 0.166690
H35   H     H_    0.473959 0.647482 0.930559 0.221904
I1    I     I_    0.557858 0.566458 0.775784 -0.264908
I2    I     I_    0.248352 0.250535 0.722900 -0.238139
I3    I     I_    0.705098 0.727071 0.195931 -0.331920
I4    I     I_    0.701984 0.278582 0.437783 -0.279225
I5    I     I_    0.888672 0.955870 0.978400 -0.349538
N1    N     N_R   0.993980 0.704500 0.053430 -0.056940
N2    N     N_R   0.053690 0.556380 0.849240 -0.056000
N3    N     N_R   0.790390 0.443640 0.997160 -0.023227
N4    N     N_R   0.998260 0.443670 0.792970 -0.037409
N5    N     N_R   0.845830 0.556350 0.053430 -0.044019
N6    N     N_R   0.792820 0.295510 0.849240 -0.052141
N7    N     N_R   0.051260 0.704510 0.997160 -0.055933
N8    N     N_R   0.001740 0.556330 0.207030 -0.057679
N9    N     N_R   0.154170 0.443650 0.946570 -0.046318
N10   N     N_R   0.207180 0.704490 0.150760 -0.053936
N11   N     N_R   0.948740 0.295490 0.002840 -0.050371
N12   N     N_R   0.006020 0.295500 0.946570 -0.042651
N13   N     N_R   0.149890 0.704480 0.207030 -0.052571
N14   N     N_R   0.946310 0.443620 0.150760 -0.068190
N15   N     N_R   0.209610 0.556360 0.002840 -0.054222
N16   N     N_R   0.850110 0.295520 0.792970 -0.068189
Ni1   Ni    Ni4+2 0.997880 0.629240 0.129060 0.241473
Ni2   Ni    Ni4+2 0.002120 0.370760 0.870940 0.274013
Ni3   Ni    Ni4+2 0.129260 0.629260 0.000000 0.227750
Ni4   Ni    Ni4+2 0.870740 0.370740 0.000000 0.282407
O1    O     O_2   0.826735 0.253651 0.227394 -0.610357
O2    O     O_R   0.567057 0.274683 0.012082 -0.791074
O3    O     O_2   0.294954 0.282848 0.975970 -0.626061
O4    O     O_R   0.365558 0.423833 0.145733 -0.750644
O5    O     O_2   0.709762 0.495350 0.160913 -0.615773
O6    O     O_R   0.593318 0.496239 0.223030 -0.756077
O7    O     O_2   0.858594 0.652058 0.552729 -0.585580
O8    O     O_R   0.035791 0.711190 0.655204 -0.824911
O9    O     O_R   0.750908 0.233448 0.056400 -0.798229
O10   O     O_2   0.498569 0.339527 0.669666 -0.563008
O11   O     O_R   0.450396 0.242631 0.749779 -0.785401
O12   O     O_2   0.304524 0.416099 0.640556 -0.566166
O13   O     O_R   0.294874 0.539939 0.768074 -0.816945
O14   O     O_2   0.784623 0.071243 0.549657 -0.609729
O15   O     O_R   0.953922 0.205002 0.687859 -0.817196
O16   O     O_2   0.404682 0.238264 0.895756 -0.514523

loop_
_geom_bond_atom_site_label_1
_geom_bond_atom_site_label_2
_ccdc_geom_bond_type
N9    N15   A    
C30   C32   S    
C6    C45   A    
C16   N2    A    
C27   C29   D    
C2    H32   S    
C9    C51   A    
C20   H4    S    
C3    C6    A    
C42   O12   D    
C48   O8    S    
N14   Ni4   S    
C35   N4    A    
C40   O9    S    
C4    N16   A    
H29   O8    S    
C10   I1    S    
C33   C39   S    
C46   O3    D    
C11   C42   S    
C28   N3    A    
C19   H35   S    
N3    Ni4   S    
C49   N9    A    
C30   C31   D    
C51   N11   A    
N2    Ni3   S    
N6    N16   A    
N10   N13   A    
C23   C26   S    
C12   C37   A    
C1    H1    S    
C14   I3    S    
C27   H9    S    
C42   O13   S    
C29   H10   S    
C47   O6    S    
C52   N12   A    
C7    C17   S    
C36   N5    A    
C4    C12   A    
N1    N7    A    
C15   C34   S    
H25   O15   S    
C26   C48   S    
C5    H33   S    
H22   O11   S    
C44   O2    S    
N8    Ni1   S    
C49   H12   S    
C37   H18   S    
C10   C41   S    
H24   O13   S    
N10   Ni3   S    
H26   O2    S    
C9    C52   A    
C18   C46   S    
C43   O14   D    
C37   N6    A    
C8    C21   S    
C48   O7    D    
C3    N14   A    
H28   O6    S    
C25   I4    S    
N6    Ni4   S    
C7    C49   A    
C43   O15   S    
C22   H7    S    
C13   C47   S    
C1    C39   A    
C25   C26   D    
N4    Ni2   S    
N11   Ni4   S    
C41   O10   D    
C52   H31   S    
C28   H14   S    
N5    Ni1   S    
C11   I2    S    
C40   O1    D    
C24   H8    S    
N7    Ni3   S    
C17   C18   S    
N2    N4    A    
C51   H30   S    
C14   H34   S    
C18   H3    S    
C13   C18   S    
C19   H2    S    
C20   C22   S    
C3    C40   S    
C50   N10   A    
C16   C23   A    
H21   O9    S    
C13   C15   S    
C22   C24   D    
C8    C50   A    
C36   H17   S    
C33   H15   S    
C5    C7    A    
C5    N15   A    
N13   Ni1   S    
C38   H19   S    
C44   O16   D    
N15   Ni3   S    
C14   C19   S    
C2    C8    A    
C38   N7    A    
C45   N8    A    
C11   C17   S    
N3    N5    A    
C4    C43   S    
C25   C27   S    
C12   C24   S    
C2    N13   A    
N8    N14   A    
C46   O4    S    
C10   C15   S    
C32   C33   D    
C41   O11   S    
N9    Ni2   S    
C21   H6    S    
C50   H23   S    
N12   Ni2   S    
C38   C39   A    
C35   H16   S    
H27   O4    S    
C17   C19   S    
N16   Ni2   S    
C34   C36   A    
C16   H5    S    
C23   C35   A    
C10   C11   S    
C9    C31   S    
C28   C34   A    
C47   O5    D    
C6    C29   S    
C20   C21   D    
C1    N1    A    
C31   I5    S    
N11   N12   A    
C14   C15   S    
C30   H11   S    
C13   C44   S    
N1    Ni1   S    
C32   H13   S    
C45   H20   S    
