data_mof_unit_32500.cif
_audit_creation_date              2012-12-10T19:01:18-0500
_audit_creation_method            fapswitch 2.2
_symmetry_space_group_name_H-M    P1
_symmetry_Int_Tables_number       1
_space_group_crystal_system       triclinic
_cell_length_a                    9.567433
_cell_length_b                    10.847033
_cell_length_c                    15.434455
_cell_angle_alpha                 88.879732
_cell_angle_beta                  74.726157
_cell_angle_gamma                 90.566573
_cell_volume                      1544.70000034

loop_
_atom_site_label
_atom_site_type_symbol
_atom_type_description
_atom_site_fract_x
_atom_site_fract_y
_atom_site_fract_z
_atom_type_partial_charge
C1    C     C_R   0.998273 0.262454 0.502549 0.816293
C2    C     C_R   0.674837 0.491325 0.909008 0.104145
C3    C     C_R   0.773366 0.527325 0.958464 0.075890
C4    C     C_R   0.525293 0.470760 0.954538 0.067003
C5    C     C_R   0.477733 0.489305 0.048952 0.052811
C6    C     C_R   0.582369 0.517541 0.095818 -0.179681
C7    C     C_R   0.726581 0.537285 0.051122 -0.170352
C8    C     C_R   0.421445 0.433368 0.909216 -0.161157
C9    C     C_R   0.276361 0.415868 0.954506 -0.172747
C10   C     C_R   0.227903 0.437838 0.045980 0.140575
C11   C     C_R   0.327313 0.477265 0.093771 0.094213
C12   C     C_R   0.918824 0.502593 0.672354 0.822793
C13   C     C_R   0.080472 0.420677 0.090387 -0.212905
C14   C     C_R   0.030113 0.442764 0.181984 -0.130867
C15   C     C_R   0.272143 0.504447 0.184970 -0.232731
C16   C     C_R   0.118672 0.065652 0.511757 0.115064
C17   C     C_R   0.992556 0.129587 0.514543 -0.241675
C18   C     C_R   0.860068 0.064125 0.536988 -0.157646
C19   C     C_R   0.857482 0.935061 0.543826 0.399610
C20   C     C_R   0.990985 0.870433 0.521506 -0.210855
C21   C     C_R   0.118284 0.938858 0.514846 0.045315
C22   C     C_3   0.264885 0.934951 0.450276 -0.470521
C23   C     C_R   0.997785 0.737592 0.505694 0.826174
C24   C     C_3   0.263440 0.074639 0.445521 0.239508
C25   C     C_R   0.605998 0.538352 0.425458 0.212241
C26   C     C_R   0.545315 0.449623 0.569517 -0.026746
C27   C     C_R   0.397487 0.447086 0.569416 0.560971
C28   C     C_R   0.458845 0.536583 0.424953 0.140305
C29   C     C_3   0.472679 0.659293 0.379042 -0.516049
C30   C     C_3   0.629842 0.663524 0.382029 0.192960
C31   C     C_R   0.081347 0.497618 0.327829 0.817703
C32   C     C_R   0.874584 0.508803 0.771341 -0.130427
C33   C     C_R   0.126292 0.484486 0.229768 -0.038228
C34   C     C_R   0.918531 0.554445 0.914990 -0.250623
C35   C     C_R   0.969422 0.547642 0.822094 0.391407
C36   C     C_R   0.729565 0.480009 0.815523 -0.291895
Cu1   Cu    Cu3+1 0.140670 0.499980 0.500000 1.005829
Cu2   Cu    Cu3+1 0.859330 0.500020 0.500000 0.985646
H1    H     H_    0.802285 0.561472 0.089551 0.196980
H2    H     H_    0.004533 0.388199 0.054473 0.144251
H3    H     H_    0.758466 0.112447 0.548315 0.213715
H4    H     H_    0.346157 0.900196 0.484133 0.245380
H5    H     H_    0.263635 0.891464 0.385817 0.169671
H6    H     H_    0.259384 0.113416 0.379000 0.113584
H7    H     H_    0.576885 0.408616 0.625773 0.158488
H8    H     H_    0.457230 0.654900 0.310435 0.216127
H9    H     H_    0.340253 0.542232 0.223246 0.143445
H10   H     H_    0.405045 0.726422 0.422500 0.193435
H11   H     H_    0.653827 0.735482 0.426601 0.181563
H12   H     H_    0.917046 0.425006 0.215564 0.185913
H13   H     H_    0.201061 0.386045 0.917223 0.178842
H14   H     H_    0.992244 0.584518 0.953293 0.180556
H15   H     H_    0.660920 0.450396 0.774718 0.165140
H16   H     H_    0.557498 0.523705 0.167726 0.170505
H17   H     H_    0.447913 0.415408 0.838506 0.169971
N1    N     N_R   0.648210 0.500930 0.499430 -0.250878
N2    N     N_R   0.352300 0.500890 0.499430 -0.232814
O1    O     O_R   0.118810 0.319640 0.500000 -0.581928
O2    O     O_R   0.881230 0.319680 0.499990 -0.575889
O3    O     O_R   0.055580 0.499970 0.629840 -0.527274
O4    O     O_R   0.818000 0.500010 0.629830 -0.611607
O5    O     O_R   0.118770 0.680320 0.500010 -0.565578
O6    O     O_R   0.881190 0.680360 0.500000 -0.569944
O7    O     O_R   0.182000 0.499990 0.370170 -0.589268
O8    O     O_R   0.944420 0.500030 0.370160 -0.540334
O9    O     O_3   0.723867 0.876883 0.569704 -0.697546
H18   H     H_    0.732200 0.805069 0.608582 0.337206
Cl1   Cl    Cl    0.396935 0.144388 0.491585 -0.600438
O10   O     O_3   0.303162 0.387807 0.640946 -0.683375
H19   H     H_    0.229426 0.345571 0.617798 0.378061
Cl2   Cl    Cl    0.753473 0.662847 0.273179 -0.649594
Cl3   Cl    Cl    0.149918 0.596578 0.773839 -0.577714

loop_
_geom_bond_atom_site_label_1
_geom_bond_atom_site_label_2
_ccdc_geom_bond_type
C16   C21   A    
C19   C20   A    
C9    H13   S    
C25   N1    A    
C15   H9    S    
C4    C8    A    
C14   C33   A    
C30   Cl2   S    
C14   H12   S    
C28   N2    A    
C25   C28   A    
C26   C27   A    
Cu1   Cu2   S    
C32   C36   A    
C28   C29   S    
C5    C11   A    
C3    C7    A    
C1    O2    A    
C5    C6    A    
C16   C17   A    
C19   O9    S    
C34   C35   A    
C13   H2    S    
C36   H15   S    
C26   H7    S    
C11   C15   A    
C23   O5    A    
C8    C9    A    
C31   C33   S    
C9    C10   A    
Cu1   O1    S    
C27   O10   S    
Cu2   O4    S    
C23   O6    A    
O9    H18   S    
C16   C24   S    
C21   C22   S    
C12   C32   S    
C6    H16   S    
C8    H17   S    
Cu1   O5    S    
C29   H10   S    
C32   C35   A    
C27   N2    A    
C18   H3    S    
C18   C19   A    
C3    C34   A    
C20   C23   S    
C2    C4    A    
C29   C30   S    
C22   H5    S    
Cu2   O8    S    
C17   C18   A    
C30   H11   S    
C35   Cl3   S    
C24   H6    S    
C22   C24   S    
Cu1   O7    S    
Cu2   O6    S    
C2    C36   A    
C25   C30   S    
C31   O8    A    
C34   H14   S    
C31   O7    A    
C4    C5    A    
C10   C13   A    
C26   N1    A    
C6    C7    A    
C1    C17   S    
C29   H8    S    
C2    C3    A    
C1    O1    A    
C12   O4    A    
C22   H4    S    
O10   H19   S    
Cu1   O3    S    
C10   C11   A    
C24   Cl1   S    
Cu2   O2    S    
C12   O3    A    
Cu2   N1    S    
C20   C21   A    
C7    H1    S    
C13   C14   A    
C15   C33   A    
Cu1   N2    S    
