data_mof_unit_12835.cif
_audit_creation_date              2013-03-05T16:48:40-0500
_audit_creation_method            fapswitch 2.2
_symmetry_space_group_name_H-M    P1
_symmetry_Int_Tables_number       1
_space_group_crystal_system       triclinic
_cell_length_a                    27.780332
_cell_length_b                    8.985909
_cell_length_c                    8.088526
_cell_angle_alpha                 90.000126
_cell_angle_beta                  90.013313
_cell_angle_gamma                 89.894836
_cell_volume                      2019.14770836

loop_
_atom_site_label
_atom_site_type_symbol
_atom_site_description
_atom_site_fract_x
_atom_site_fract_y
_atom_site_fract_z
_atom_type_partial_charge
O1    O     O_R   0.500000 0.285350 0.636850 -0.617382
O2    O     O_R   0.500000 0.714650 0.363150 -0.598168
O3    O     O_R   0.500000 0.714650 0.636850 -0.617367
O4    O     O_R   0.500000 0.285350 0.363150 -0.598119
C1    C     C_R   0.499948 0.217833 0.500001 0.952060
C2    C     C_R   0.500051 0.782167 0.500002 0.952075
O5    O     O_R   0.428760 0.500000 0.636860 -0.579230
O6    O     O_R   0.571240 0.500000 0.363140 -0.589628
O7    O     O_R   0.571240 0.500000 0.636860 -0.579338
O8    O     O_R   0.428760 0.500000 0.363140 -0.589745
C3    C     C_R   0.405740 0.503428 0.500012 0.944183
C4    C     C_R   0.594259 0.496506 0.500057 0.944204
Zn1   Zn    Zn3+2 0.500000 0.500000 0.682780 1.122431
Zn2   Zn    Zn3+2 0.500000 0.500000 0.317220 1.126872
C5    C     C_R   0.177195 0.371608 0.467115 0.581808
C6    C     C_R   0.822827 0.627439 0.467946 0.581802
C7    C     C_R   0.176505 0.635911 0.435779 0.579954
C8    C     C_R   0.823481 0.363138 0.436575 0.579968
O9    O     O_2   0.202135 0.243087 0.480556 -0.505549
O10   O     O_2   0.797904 0.755981 0.481485 -0.505608
O11   O     O_2   0.200460 0.766460 0.432349 -0.511018
O12   O     O_2   0.799510 0.232616 0.433188 -0.510934
N1    N     N_R   0.201004 0.504703 0.457039 -0.340232
N2    N     N_R   0.799002 0.494370 0.457862 -0.340242
C9    C     C_R   0.279950 0.577647 0.349132 -0.127067
C10   C     C_R   0.720050 0.421654 0.349690 -0.127240
C11   C     C_R   0.275149 0.441731 0.606692 -0.119091
C12   C     C_R   0.724859 0.557449 0.607337 -0.118940
C13   C     C_R   0.329772 0.588284 0.364969 0.269319
C14   C     C_R   0.670216 0.411280 0.365282 0.269303
C15   C     C_R   0.325122 0.442197 0.620433 0.261660
C16   C     C_R   0.674883 0.557237 0.620841 0.261748
C17   C     C_R   0.252479 0.506913 0.470351 0.153530
C18   C     C_R   0.747527 0.492240 0.471050 0.153544
C19   C     C_R   0.101271 0.501133 0.437767 -0.069925
C20   C     C_R   0.898728 0.497860 0.438344 -0.069920
C21   C     C_R   0.126887 0.367953 0.462467 -0.103222
C22   C     C_R   0.873133 0.631053 0.463164 -0.103217
C23   C     C_R   0.126393 0.635833 0.420529 -0.103540
C24   C     C_R   0.873589 0.363174 0.421206 -0.103551
C25   C     C_R   0.101774 0.235380 0.488130 -0.232389
C26   C     C_R   0.898266 0.763609 0.488741 -0.232339
C27   C     C_R   0.101071 0.766570 0.385134 -0.228991
C28   C     C_R   0.898887 0.232421 0.385721 -0.229045
C29   C     C_R   0.353036 0.514232 0.497898 -0.283896
C30   C     C_R   0.646959 0.485458 0.498104 -0.283977
H1    H     H_    0.253785 0.389266 0.702314 0.194496
H2    H     H_    0.746227 0.609760 0.703085 0.194450
H3    H     H_    0.262114 0.629440 0.244806 0.205162
H4    H     H_    0.737888 0.369802 0.245435 0.205162
H5    H     H_    0.120626 0.133356 0.518682 0.219106
H6    H     H_    0.879436 0.865640 0.519393 0.219089
H7    H     H_    0.119849 0.869285 0.358027 0.216971
H8    H     H_    0.880089 0.129714 0.358706 0.216989
C31   C     C_R   0.974974 0.362986 0.418882 -0.058600
C32   C     C_R   0.025012 0.635985 0.418722 -0.058635
C33   C     C_R   0.974519 0.635783 0.442119 -0.054131
C34   C     C_R   0.025485 0.363188 0.441953 -0.054095
C35   C     C_R   0.949523 0.499002 0.432432 -0.066515
C36   C     C_R   0.050472 0.499973 0.432118 -0.066519
C37   C     C_R   0.948855 0.233171 0.379041 0.747567
C38   C     C_R   0.051100 0.765802 0.378712 0.747594
C39   C     C_R   0.948251 0.765392 0.483599 0.738388
C40   C     C_R   0.051785 0.233581 0.483257 0.738367
C41   C     C_1   0.499981 0.065061 0.499992 -0.091993
C42   C     C_1   0.500017 0.934939 0.499992 -0.092064
N3    N     N_1   0.500000 0.500000 0.073640 0.025912
N4    N     N_1   0.500000 0.500000 0.926360 0.029333
N5    N     N_R   0.346718 0.364332 0.756130 0.216422
O13   O     O_R   0.337540 0.223668 0.776924 -0.324967
O14   O     O_R   0.365507 0.439228 0.877579 -0.311130
N6    N     N_R   0.653297 0.635055 0.756553 0.216462
O15   O     O_R   0.662484 0.775703 0.777433 -0.324964
O16   O     O_R   0.634512 0.560106 0.877944 -0.311172
N7    N     N_R   0.355752 0.680416 0.250112 0.244750
O17   O     O_R   0.341005 0.692859 0.098012 -0.308098
O18   O     O_R   0.388220 0.772697 0.304021 -0.365363
N8    N     N_R   0.644217 0.319232 0.250340 0.244803
O19   O     O_R   0.611661 0.227217 0.304133 -0.365495
O20   O     O_R   0.659040 0.306472 0.098382 -0.308095
F1    F     F_    0.970844 0.111761 0.315112 -0.542244
F2    F     F_    0.029067 0.887201 0.314899 -0.542241
F3    F     F_    0.970379 0.889085 0.540486 -0.545126
F4    F     F_    0.029698 0.109876 0.540261 -0.545126

loop_
_geom_bond_atom_site_label_1
_geom_bond_atom_site_label_2
_geom_bond_distance
_ccdc_geom_bond_type
C31   C35   1.415130 A    
N6    O16   1.300583 A    
C20   C35   1.411982 A    
C16   N6    1.432592 S    
C11   C17   1.397919 A    
O5    C3    1.278569 A    
C7    N1    1.371089 A    
C2    C42   1.372788 S    
C8    N2    1.371061 A    
C19   C21   1.405469 A    
C22   C26   1.397172 A    
C10   H4    1.083097 S    
N8    O20   1.301341 A    
C33   C35   1.414959 A    
C34   C36   1.414968 A    
C32   C33   1.415463 A    
C7    C23   1.397541 A    
N5    O14   1.300550 A    
O7    Zn1   2.013705 S    
C40   F4    1.351802 S    
C20   C24   1.405266 A    
C8    C24   1.397572 A    
C5    O9    1.350044 S    
C27   H7    1.083471 S    
C5    C21   1.398530 A    
N1    C17   1.434190 S    
Zn2   N3    1.970203 S    
O3    Zn1   1.964277 S    
O6    C4    1.279052 A    
O3    C2    1.262272 A    
C5    N1    1.370181 A    
C38   F2    1.352213 S    
C12   C18   1.397873 A    
C6    N2    1.370176 A    
C21   C25   1.397175 A    
O2    C2    1.262293 A    
C10   C18   1.396408 A    
C33   C39   1.413679 A    
C9    C13   1.393419 A    
C11   C15   1.392697 A    
N3    N4    1.191277 T    
C12   C16   1.392654 A    
C1    C41   1.372788 S    
O8    Zn2   2.013708 S    
N8    O19   1.301490 A    
N6    O15   1.300829 A    
C23   C27   1.397792 A    
C34   C40   1.413701 A    
C6    C22   1.398501 A    
N2    C18   1.434167 S    
C32   C36   1.415116 A    
C13   C29   1.419376 A    
C19   C36   1.411985 A    
C19   C23   1.405253 A    
N7    O17   1.301330 A    
C15   N5    1.432604 S    
O5    Zn1   2.013538 S    
C6    O10   1.350050 S    
N7    O18   1.301505 A    
C4    C30   1.467292 S    
C10   C14   1.393464 A    
O1    C1    1.262271 A    
C3    C29   1.467273 S    
O1    Zn1   1.964276 S    
C11   H1    1.083504 S    
C12   H2    1.083482 S    
O6    Zn2   2.013536 S    
C8    O12   1.350075 S    
C16   C30   1.415928 A    
C14   C30   1.419383 A    
O4    C1    1.262294 A    
C13   N7    1.439401 S    
C28   C37   1.389240 A    
C20   C22   1.405465 A    
C37   F1    1.352202 S    
C31   C37   1.412102 A    
C32   C38   1.412077 A    
O4    Zn2   1.964278 S    
N5    O13   1.300843 A    
O2    Zn2   1.964275 S    
O7    C4    1.278517 A    
C9    H3    1.083121 S    
C9    C17   1.396378 A    
O8    C3    1.278992 A    
C14   N8    1.439465 S    
C28   H8    1.083481 S    
C24   C28   1.397787 A    
C41   C42   1.169268 T    
C15   C29   1.415925 A    
C31   C34   1.415525 A    
C39   F3    1.351811 S    
C25   C40   1.389385 A    
C26   C39   1.389357 A    
C25   H5    1.083525 S    
C27   C38   1.389214 A    
C26   H6    1.083512 S    
Zn1   N4    1.970203 S    
C7    O11   1.350066 S    
