data_mof_unit_55917.cif
_audit_creation_date              2012-12-10T18:47:01-0500
_audit_creation_method            fapswitch 2.2
_symmetry_space_group_name_H-M    P1
_symmetry_Int_Tables_number       1
_space_group_crystal_system       triclinic
_cell_length_a                    10.617834
_cell_length_b                    10.040784
_cell_length_c                    14.939315
_cell_angle_alpha                 88.489442
_cell_angle_beta                  93.289017
_cell_angle_gamma                 91.581095
_cell_volume                      1588.98213198

loop_
_atom_site_label
_atom_site_type_symbol
_atom_type_description
_atom_site_fract_x
_atom_site_fract_y
_atom_site_fract_z
_atom_type_partial_charge
C1    C     C_R   0.260695 0.499045 0.498768 0.847457
C2    C     C_R   0.739480 0.501466 0.500776 0.846533
C3    C     C_R   0.377698 0.289728 0.046107 -0.220894
C4    C     C_R   0.624768 0.706465 0.954506 -0.221383
C5    C     C_R   0.067434 0.411469 0.556375 -0.217437
C6    C     C_R   0.933481 0.594845 0.445586 -0.207255
C7    C     C_R   0.938646 0.412930 0.557083 -0.188062
C8    C     C_R   0.062643 0.592034 0.443789 -0.197214
C9    C     C_R   0.872448 0.504070 0.501642 0.005796
C10   C     C_R   0.128143 0.498970 0.498444 -0.002136
C11   C     C_R   0.572333 0.069336 0.561812 0.100307
C12   C     C_R   0.418065 0.927856 0.442622 0.131247
C13   C     C_R   0.413596 0.071026 0.445927 0.149366
C14   C     C_R   0.589611 0.931156 0.549029 0.096355
C15   C     C_R   0.499791 0.501093 0.327230 0.876750
C16   C     C_R   0.500083 0.498621 0.672861 0.875266
C17   C     C_R   0.560876 0.601833 0.815166 -0.261931
C18   C     C_R   0.437422 0.397321 0.185438 -0.270116
C19   C     C_R   0.501066 0.496600 0.768847 -0.053554
C20   C     C_R   0.499812 0.501530 0.231468 -0.061426
C21   C     C_R   0.440728 0.391771 0.813947 -0.282569
C22   C     C_R   0.565156 0.602580 0.186506 -0.257827
C23   C     C_R   0.440180 0.391537 0.906719 0.118434
C24   C     C_R   0.564802 0.603084 0.093847 0.121105
C25   C     C_R   0.501763 0.497251 0.953761 0.059034
C26   C     C_R   0.501674 0.498241 0.046852 0.057476
C27   C     C_R   0.562905 0.602433 0.907643 0.123184
C28   C     C_R   0.438591 0.394348 0.092995 0.122965
C29   C     C_R   0.378839 0.288119 0.953103 -0.221114
C30   C     C_R   0.626302 0.706391 0.047554 -0.227256
H1    H     H_    0.606426 0.683002 0.779410 0.138679
H2    H     H_    0.387730 0.318943 0.221628 0.139615
H3    H     H_    0.392896 0.311963 0.776829 0.145693
H4    H     H_    0.617174 0.679518 0.223666 0.143825
H5    H     H_    0.331497 0.206647 0.917486 0.146228
H6    H     H_    0.674600 0.787254 0.083226 0.146441
H7    H     H_    0.329481 0.209425 0.081338 0.146250
H8    H     H_    0.672007 0.787403 0.919220 0.143712
H9    H     H_    0.119500 0.343326 0.601068 0.136413
H10   H     H_    0.881335 0.665207 0.402600 0.138005
H11   H     H_    0.891695 0.344247 0.601352 0.128180
H12   H     H_    0.111212 0.660978 0.399705 0.132090
N1    N     N_R   0.500000 0.857200 0.500000 -0.133402
N2    N     N_R   0.500000 0.142800 0.500000 -0.135744
O1    O     O_R   0.316770 0.614620 0.499990 -0.631873
O2    O     O_R   0.683230 0.385380 0.500010 -0.617151
O3    O     O_R   0.683230 0.614620 0.500010 -0.634899
O4    O     O_R   0.316770 0.385380 0.499990 -0.647658
O5    O     O_R   0.499980 0.614680 0.367850 -0.637890
O6    O     O_R   0.500020 0.385320 0.632150 -0.637028
O7    O     O_R   0.500020 0.614680 0.632150 -0.619310
O8    O     O_R   0.499980 0.385320 0.367850 -0.631272
Zn1   Zn    Zn3+2 0.500000 0.653120 0.500000 0.916350
Zn2   Zn    Zn3+2 0.500000 0.346880 0.500000 0.912323
C31   C     C_3   0.587834 0.110989 0.658753 -0.347271
C32   C     C_3   0.711773 0.186796 0.682992 -0.320696
C33   C     C_3   0.737241 0.193191 0.784413 -0.913773
H13   H     H_    0.657926 0.240198 0.815728 0.280247
H14   H     H_    0.749978 0.091415 0.813944 0.258008
H15   H     H_    0.824777 0.253445 0.799549 0.252174
H16   H     H_    0.792552 0.138192 0.654816 0.206698
H17   H     H_    0.706788 0.289668 0.655720 0.251209
H18   H     H_    0.504785 0.166067 0.676520 0.211050
H19   H     H_    0.581612 0.021167 0.703451 0.168637
C34   C     C_3   0.345511 0.858002 0.365895 -0.383971
C35   C     C_3   0.407963 0.886408 0.276835 -0.367811
C36   C     C_3   0.330735 0.824656 0.198385 -0.875659
H20   H     H_    0.316265 0.715847 0.210311 0.269919
H21   H     H_    0.237303 0.871855 0.189547 0.250717
H22   H     H_    0.381239 0.841018 0.135807 0.259513
H23   H     H_    0.418288 0.995251 0.263129 0.208475
H24   H     H_    0.504258 0.846125 0.281171 0.236499
H25   H     H_    0.337186 0.751096 0.377505 0.257915
H26   H     H_    0.246001 0.886313 0.359153 0.187675
C37   C     C_3   0.299473 0.139766 0.401352 -0.385623
C38   C     C_3   0.188331 0.141436 0.463759 -0.302037
C39   C     C_3   0.109283 0.012370 0.468297 -0.921123
H27   H     H_    0.068417 0.986638 0.400687 0.254247
H28   H     H_    0.166334 0.929625 0.497969 0.274103
H29   H     H_    0.029886 0.026384 0.512112 0.248094
H30   H     H_    0.223873 0.164471 0.533150 0.236486
H31   H     H_    0.124058 0.221150 0.438638 0.225010
H32   H     H_    0.325683 0.242013 0.381412 0.221774
H33   H     H_    0.266710 0.098342 0.336019 0.168338
C40   C     C_3   0.725498 0.887614 0.560211 -0.343392
C41   C     C_3   0.759684 0.812739 0.648771 -0.326190
C42   C     C_3   0.902105 0.796632 0.662536 -0.902613
H34   H     H_    0.939053 0.744485 0.605410 0.285173
H35   H     H_    0.950540 0.895719 0.668774 0.258842
H36   H     H_    0.923577 0.737153 0.724992 0.252761
H37   H     H_    0.727828 0.867234 0.706484 0.204488
H38   H     H_    0.714316 0.712637 0.649026 0.252865
H39   H     H_    0.750012 0.831984 0.501218 0.215166
H40   H     H_    0.789254 0.976780 0.555638 0.165399

loop_
_geom_bond_atom_site_label_1
_geom_bond_atom_site_label_2
_ccdc_geom_bond_type
C31   C32   S    
C16   O7    A    
C42   H34   S    
C37   H32   S    
C6    C9    A    
C40   C41   S    
C2    O2    A    
O4    Zn2   S    
O6    Zn2   S    
C23   C29   A    
C3    C28   A    
C19   C21   A    
C24   C26   A    
C12   N1    A    
C41   H37   S    
C11   C14   A    
C37   H33   S    
C33   H14   S    
C21   H3    S    
C34   H25   S    
C32   C33   S    
C3    C29   A    
C40   H39   S    
N1    Zn1   S    
C35   H24   S    
C13   C37   S    
C31   H18   S    
O3    Zn1   S    
C32   H17   S    
C7    H11   S    
C35   C36   S    
O1    Zn1   S    
O8    Zn2   S    
C39   H28   S    
C15   C20   S    
C22   H4    S    
C36   H20   S    
C17   C27   A    
C6    H10   S    
C18   C28   A    
C38   C39   S    
C38   H31   S    
C5    C7    A    
C41   C42   S    
C33   H15   S    
C6    C8    A    
C25   C26   A    
C39   H27   S    
C34   H26   S    
C36   H21   S    
C37   C38   S    
C40   H40   S    
C35   H23   S    
C31   H19   S    
O2    Zn2   S    
C11   N2    A    
C15   O8    A    
C20   C22   A    
C21   C23   A    
C17   H1    S    
C22   C24   A    
C18   H2    S    
C4    C27   A    
C11   C31   S    
C39   H29   S    
C7    C9    A    
C1    C10   S    
C14   C40   S    
C8    H12   S    
C38   H30   S    
C1    O4    A    
C2    O3    A    
C25   C27   A    
C12   C34   S    
C29   H5    S    
C26   C28   A    
C30   H6    S    
C36   H22   S    
C5    H9    S    
C5    C10   A    
C41   H38   S    
C1    O1    A    
C33   H13   S    
C16   C19   S    
O5    Zn1   S    
C17   C19   A    
C18   C20   A    
C15   O5    A    
C16   O6    A    
C24   C30   A    
N2    Zn2   S    
C23   C25   A    
C12   C13   A    
C3    H7    S    
C8    C10   A    
C34   C35   S    
C42   H36   S    
C42   H35   S    
C32   H16   S    
O7    Zn1   S    
C4    H8    S    
C2    C9    S    
C13   N2    A    
C4    C30   A    
C14   N1    A    
