data_mof_unit_14479.cif
_audit_creation_date              2012-12-11T17:02:14-0500
_audit_creation_method            fapswitch 2.2
_symmetry_space_group_name_H-M    P1
_symmetry_Int_Tables_number       1
_space_group_crystal_system       triclinic
_cell_length_a                    21.676921
_cell_length_b                    7.079246
_cell_length_c                    14.921994
_cell_angle_alpha                 90.114806
_cell_angle_beta                  107.384975
_cell_angle_gamma                 90.310062
_cell_volume                      2185.22125256

loop_
_atom_site_label
_atom_site_type_symbol
_atom_type_description
_atom_site_fract_x
_atom_site_fract_y
_atom_site_fract_z
_atom_type_partial_charge
O1    O     O_R   0.585850 0.505770 0.002130 -0.560457
O2    O     O_R   0.414150 0.005770 0.997870 -0.560753
O3    O     O_R   0.467530 0.173560 0.861970 -0.539659
O4    O     O_R   0.532470 0.673560 0.138030 -0.536726
C1    C     C_R   0.457599 0.344816 0.824640 0.738955
C2    C     C_R   0.542788 0.845202 0.175430 0.706191
O5    O     O_R   0.588690 0.175900 0.993250 -0.489476
O6    O     O_R   0.411310 0.675900 0.006750 -0.489856
O7    O     O_R   0.536170 0.007950 0.130090 -0.535969
O8    O     O_R   0.463830 0.507950 0.869910 -0.525046
C3    C     C_R   0.614674 0.345221 0.995913 0.748013
C4    C     C_R   0.385199 0.844447 0.003814 0.753556
O9    O     O_3   0.482630 0.339970 0.044740 -0.373964
O10   O     O_3   0.517370 0.839970 0.955260 -0.368181
V1    V     V_3+5 0.503220 0.064200 0.991700 1.523463
V2    V     V_3+5 0.496780 0.564200 0.008300 1.543124
C5    C     C_R   0.274825 0.991094 0.956012 -0.044945
C6    C     C_R   0.725645 0.491325 0.044924 0.015433
C7    C     C_R   0.316813 0.851556 0.005646 -0.148318
C8    C     C_R   0.682906 0.353220 0.993751 -0.187890
C9    C     C_R   0.291641 0.716327 0.055687 0.365262
C10   C     C_R   0.707012 0.219016 0.942331 0.370092
C11   C     C_R   0.226450 0.730446 0.058880 0.240161
C12   C     C_R   0.773048 0.226423 0.943096 0.223921
C13   C     C_R   0.185410 0.877157 0.008929 -0.191981
C14   C     C_R   0.815219 0.370822 0.994604 -0.200533
C15   C     C_R   0.211248 0.003730 0.958465 0.037615
C16   C     C_R   0.789825 0.500583 0.043889 0.082378
C17   C     C_3   0.213341 0.213788 0.965343 -0.414313
C18   C     C_3   0.788939 0.709166 0.032268 -0.431281
C19   C     C_3   0.282408 0.201326 0.961567 -0.225725
C20   C     C_3   0.719594 0.700930 0.034035 -0.170953
H1    H     H_    0.210116 0.265030 0.034257 0.207880
H2    H     H_    0.793074 0.750621 0.962570 0.165941
H3    H     H_    0.178638 0.281148 0.903421 0.181304
H4    H     H_    0.823548 0.781813 0.093073 0.194649
H5    H     H_    0.318910 0.248527 0.027483 0.171762
H6    H     H_    0.684114 0.742828 0.966458 0.150491
C21   C     C_R   0.921607 0.888269 0.724049 -0.039082
C22   C     C_R   0.078464 0.391714 0.276399 -0.045510
C23   C     C_R   0.565899 0.857234 0.278792 -0.091693
C24   C     C_R   0.434426 0.356307 0.721427 -0.099772
C25   C     C_R   0.925846 0.961620 0.568416 -0.145783
C26   C     C_R   0.074396 0.469795 0.431913 -0.147715
C27   C     C_R   0.957343 0.928610 0.662698 -0.166769
C28   C     C_R   0.042870 0.434968 0.337547 -0.163560
C29   C     C_R   0.853973 0.875186 0.690516 -0.180940
C30   C     C_R   0.146071 0.379000 0.310375 -0.208585
C31   C     C_R   0.820479 0.914180 0.595292 0.096855
C32   C     C_R   0.179643 0.420293 0.405696 0.097053
C33   C     C_R   0.858051 0.959873 0.534879 0.100138
C34   C     C_R   0.142183 0.467213 0.465919 0.107294
C35   C     C_R   0.751380 0.913984 0.558194 0.030575
C36   C     C_R   0.248742 0.420214 0.443059 0.033427
C37   C     C_R   0.722157 0.951329 0.461650 0.002854
C38   C     C_R   0.278217 0.456749 0.539964 0.005231
C39   C     C_R   0.760853 0.032014 0.409066 -0.010126
C40   C     C_R   0.239664 0.535227 0.593303 -0.022187
C41   C     C_R   0.828060 0.020346 0.443654 -0.205655
C42   C     C_R   0.172363 0.526393 0.557712 -0.224626
C43   C     C_R   0.710275 0.889285 0.614629 -0.189494
C44   C     C_R   0.289590 0.395744 0.386354 -0.201883
C45   C     C_R   0.642617 0.896446 0.577515 0.004503
C46   C     C_R   0.357242 0.400185 0.423250 0.006380
C47   C     C_R   0.612638 0.893861 0.478029 -0.015662
C48   C     C_R   0.387325 0.396196 0.522648 -0.013734
C49   C     C_R   0.655135 0.909709 0.421091 0.107032
C50   C     C_R   0.345174 0.414478 0.580109 0.087342
C51   C     C_R   0.543863 0.875001 0.430475 0.000528
C52   C     C_R   0.455974 0.373853 0.569573 0.002855
C53   C     C_R   0.522619 0.864393 0.331193 -0.133045
C54   C     C_R   0.477436 0.360089 0.668636 -0.142590
C55   C     C_R   0.631351 0.872421 0.324404 -0.152332
C56   C     C_R   0.369284 0.378737 0.676825 -0.132635
H7    H     H_    0.857629 0.073453 0.401898 0.160890
H8    H     H_    0.142985 0.579098 0.599705 0.154630
H9    H     H_    0.664409 0.854026 0.283993 0.129897
H10   H     H_    0.337049 0.367447 0.718833 0.171631
H11   H     H_    0.471446 0.856945 0.293568 0.179480
H12   H     H_    0.528562 0.349717 0.705838 0.183187
H13   H     H_    0.954520 0.997712 0.522471 0.120345
H14   H     H_    0.045768 0.507183 0.477657 0.120755
H15   H     H_    0.009516 0.941546 0.688595 0.113508
H16   H     H_    0.990771 0.448168 0.311463 0.119898
H17   H     H_    0.829132 0.841719 0.741248 0.114247
H18   H     H_    0.170850 0.343183 0.259927 0.119076
H19   H     H_    0.729799 0.879588 0.689938 0.143473
H20   H     H_    0.269926 0.387852 0.310970 0.140620
O11   O     O_R   0.036080 0.231270 0.130120 -0.539536
O12   O     O_R   0.963920 0.731270 0.869880 -0.540385
O13   O     O_R   0.911300 0.558970 0.006750 -0.545044
O14   O     O_R   0.088700 0.058970 0.993250 -0.538641
C57   C     C_R   0.884095 0.388744 0.997116 0.746363
C58   C     C_R   0.115923 0.890381 0.003229 0.710872
O15   O     O_R   0.032450 0.561140 0.138040 -0.541324
O16   O     O_R   0.967550 0.061140 0.861960 -0.535056
O17   O     O_R   0.085870 0.728910 0.002130 -0.530260
O18   O     O_R   0.914130 0.228910 0.997870 -0.546023
C59   C     C_R   0.046606 0.393410 0.174981 0.703001
C60   C     C_R   0.953497 0.892562 0.825160 0.697657
O19   O     O_3   0.017320 0.394650 0.955270 -0.368886
O20   O     O_3   0.982680 0.894650 0.044730 -0.382576
V3    V     V_3+5 0.996780 0.670490 0.008300 1.432575
V4    V     V_3+5 0.003220 0.170490 0.991700 1.444360
O21   O     O_3   0.333432 0.582268 0.107478 -0.641188
H21   H     H_    0.310344 0.498131 0.139683 0.323128
O22   O     O_3   0.664088 0.088706 0.887882 -0.633482
H22   H     H_    0.687038 0.001918 0.856931 0.322185
C61   C     C_2   0.608212 0.911601 0.648445 0.847002
O23   O     O_2   0.576472 0.052031 0.651288 -0.566184
O24   O     O_R   0.614777 0.769071 0.715365 -0.641377
H23   H     H_    0.588783 0.794804 0.760360 0.305354
C62   C     C_2   0.391542 0.412631 0.352034 0.842479
O25   O     O_2   0.424169 0.551994 0.348888 -0.567536
O26   O     O_R   0.383638 0.269087 0.284930 -0.641722
H24   H     H_    0.409413 0.293365 0.239454 0.304640
C63   C     C_2   0.733800 0.160342 0.327828 0.746461
O27   O     O_2   0.763760 0.190389 0.271525 -0.554378
O28   O     O_R   0.675752 0.255256 0.318455 -0.663144
H25   H     H_    0.662944 0.340136 0.261272 0.294260
C64   C     C_2   0.267223 0.656084 0.678052 0.793509
O29   O     O_2   0.238856 0.671496 0.737318 -0.551687
O30   O     O_R   0.324284 0.758629 0.688142 -0.659622
H26   H     H_    0.337761 0.836355 0.748097 0.298595
C65   C     C_2   0.490218 0.872541 0.475074 0.863760
O31   O     O_2   0.439007 0.949622 0.434989 -0.523234
O32   O     O_R   0.494475 0.772335 0.556791 -0.657479
H27   H     H_    0.454434 0.785222 0.578142 0.305792
C66   C     C_2   0.509446 0.372557 0.524677 0.864914
O33   O     O_2   0.560836 0.450625 0.564868 -0.521676
O34   O     O_R   0.504793 0.272712 0.442488 -0.656964
H28   H     H_    0.544825 0.286269 0.421080 0.306600
O35   O     O_3   0.206140 0.606812 0.115989 -0.669219
H29   H     H_    0.174695 0.671949 0.141516 0.288716
O36   O     O_3   0.792363 0.107899 0.883380 -0.663711
H30   H     H_    0.829657 0.035423 0.921814 0.291728
C67   C     C_2   0.291198 0.287450 0.874057 0.831832
O37   O     O_2   0.330896 0.413765 0.882152 -0.536578
O38   O     O_R   0.254194 0.230425 0.783977 -0.661242
H31   H     H_    0.222173 0.125615 0.783489 0.281279
C68   C     C_2   0.710012 0.799010 0.117651 0.805131
O39   O     O_2   0.743538 0.761476 0.197265 -0.556053
O40   O     O_R   0.663574 0.939281 0.102220 -0.646280
H32   H     H_    0.665564 0.016470 0.159822 0.283802

loop_
_geom_bond_atom_site_label_1
_geom_bond_atom_site_label_2
_ccdc_geom_bond_type
C48   C50   A    
C1    C24   S    
C45   C47   A    
C45   C61   S    
C15   C17   S    
O14   C58   A    
O24   H23   S    
O1    C3    A    
O2    C4    A    
C22   C59   S    
C53   H11   S    
O35   H29   S    
O30   H26   S    
C29   C31   A    
C47   C51   A    
C22   C28   A    
C67   O38   S    
C32   C36   A    
O11   C59   A    
C29   H17   S    
C21   C29   A    
C7    C9    A    
C12   C14   A    
C62   O25   D    
C26   H14   S    
C63   O28   S    
O15   C59   A    
C39   C41   A    
C40   C42   A    
O40   H32   S    
C17   H1    S    
C43   C45   A    
C51   C53   A    
C44   C46   A    
C34   C42   A    
C35   C43   A    
O15   V3    S    
C47   C49   A    
C2    C23   S    
C32   C34   A    
O22   H22   S    
C49   C55   A    
C20   H6    S    
C19   C67   S    
C43   H19   S    
C6    C8    A    
C23   C53   A    
C26   C34   A    
C14   C57   S    
O5    V1    S    
C51   C65   S    
C13   C58   S    
O6    V2    S    
C27   H15   S    
C68   O39   D    
C2    O7    A    
O12   C60   A    
C26   C28   A    
C35   C37   A    
C9    C11   A    
C30   C32   A    
C36   C38   A    
C3    C8    S    
C24   C56   A    
C11   O35   S    
C5    C15   A    
O36   H30   S    
C6    C16   A    
O4    C2    A    
C18   H2    S    
C36   C44   A    
C58   O17   A    
C31   C33   A    
C38   C50   A    
C44   H20   S    
C42   H8    S    
C52   C66   S    
C19   H5    S    
C62   O26   S    
C68   O40   S    
C46   C48   A    
O4    V2    S    
O5    C3    A    
O13   C57   A    
O6    C4    A    
C24   C54   A    
C20   C68   S    
O1    V2    S    
O28   H25   S    
O20   V4    S    
O2    V1    S    
C25   C27   A    
C64   O29   D    
O17   V3    S    
C28   H16   S    
C12   O36   S    
C8    C10   A    
O19   V4    S    
C37   C39   A    
O11   V4    S    
C65   O31   D    
C5    C19   S    
C10   C12   A    
C6    C20   S    
O34   H28   S    
C41   H7    S    
O3    V1    S    
C39   C63   S    
C66   O33   D    
C67   O37   D    
C22   C30   A    
O16   V4    S    
C40   C64   S    
C46   C62   S    
C25   H13   S    
O13   V3    S    
O3    C1    A    
C37   C49   A    
O38   H31   S    
O32   H27   S    
C18   H4    S    
C13   C15   A    
O21   H21   S    
C17   H3    S    
C14   C16   A    
O19   V3    S    
C21   C27   A    
C61   O24   S    
O7    V1    S    
C1    O8    A    
C54   H12   S    
O8    V2    S    
C63   O27   D    
C18   C20   S    
C25   C33   A    
C21   C60   S    
C48   C52   A    
O18   V4    S    
O16   C60   A    
C4    C7    S    
C16   C18   S    
C5    C7    A    
C38   C40   A    
C30   H18   S    
C11   C13   A    
O20   V3    S    
O12   V3    S    
C64   O30   S    
C31   C35   A    
O14   V4    S    
C23   C55   A    
C33   C41   A    
C17   C19   S    
C56   H10   S    
O9    V2    S    
C65   O32   S    
C55   H9    S    
O10   V1    S    
C52   C54   A    
O26   H24   S    
C61   O23   D    
C50   C56   A    
C57   O18   A    
C9    O21   S    
C10   O22   S    
C66   O34   S    
