data_mof_unit_60923.cif
_audit_creation_date              2012-12-10T16:55:27-0500
_audit_creation_method            fapswitch 2.2
_symmetry_space_group_name_H-M    P1
_symmetry_Int_Tables_number       1
_space_group_crystal_system       triclinic
_cell_length_a                    11.697859
_cell_length_b                    10.923837
_cell_length_c                    9.797099
_cell_angle_alpha                 88.203342
_cell_angle_beta                  89.870529
_cell_angle_gamma                 90.960411
_cell_volume                      1251.13113498

loop_
_atom_site_label
_atom_site_type_symbol
_atom_type_description
_atom_site_fract_x
_atom_site_fract_y
_atom_site_fract_z
_atom_type_partial_charge
C1    C     C_R   0.504265 0.265909 0.502108 0.871203
C2    C     C_2   0.481398 0.864665 0.491514 -0.036717
C3    C     C_2   0.527842 0.069549 0.397491 -0.133768
C4    C     C_2   0.519266 0.134873 0.509617 -0.291070
C5    C     C_2   0.458415 0.411243 0.927206 0.006739
C6    C     C_2   0.436893 0.427560 0.077264 0.206021
C7    C     C_R   0.284307 0.500053 0.500145 0.846091
C8    C     C_R   0.498763 0.734204 0.497901 0.826937
C9    C     C_R   0.715704 0.500276 0.499847 0.812009
C10   C     C_1   0.162512 0.500181 0.500306 -0.098247
C11   C     C_1   0.059960 0.500288 0.500063 0.052787
C12   C     C_1   0.940068 0.500378 0.499693 0.047780
C13   C     C_1   0.837510 0.500375 0.499579 -0.113452
C14   C     C_2   0.547114 0.938383 0.409624 0.114324
Cu1   Cu    Cu3+1 0.500020 0.500020 0.638630 1.028062
Cu2   Cu    Cu3+1 0.499980 0.499980 0.361370 1.053593
H1    H     H_    0.529652 0.113344 0.296370 0.191660
H2    H     H_    0.527445 0.091110 0.610263 0.175268
H3    H     H_    0.496871 0.585151 0.885327 0.236472
N1    N     N_2   0.498780 0.498660 0.846910 -0.292635
N2    N     N_2   0.498750 0.498630 0.153040 -0.119747
O1    O     O_R   0.500020 0.321960 0.617040 -0.574599
O2    O     O_R   0.499980 0.321920 0.382900 -0.572164
O3    O     O_R   0.337220 0.500030 0.617070 -0.533028
O4    O     O_R   0.337180 0.499990 0.382930 -0.559208
O5    O     O_R   0.500020 0.678080 0.617100 -0.569326
O6    O     O_R   0.499980 0.678040 0.382960 -0.545850
O7    O     O_R   0.662820 0.500010 0.617070 -0.566886
O8    O     O_R   0.662780 0.499970 0.382930 -0.540716
I1    I     I_    0.691186 0.877181 0.299393 -0.269736
I2    I     I_    0.329670 0.919971 0.593333 -0.278557
C15   C     C_2   0.422791 0.293032 0.872039 0.515707
H4    H     H_    0.471541 0.211591 0.896343 0.039687
O9    O     O_2   0.334892 0.284636 0.805741 -0.489674
I3    I     I_    0.298443 0.319919 0.162918 -0.244400
I4    I     I_    0.658403 0.567288 0.083024 -0.194560

loop_
_geom_bond_atom_site_label_1
_geom_bond_atom_site_label_2
_ccdc_geom_bond_type
C7    C10   S    
C11   C12   S    
C1    O2    A    
Cu2   N2    S    
C8    O5    A    
H3    N1    S    
C7    O4    A    
C9    O8    A    
C1    C4    S    
C4    H2    S    
C15   H4    S    
C5    C15   S    
Cu2   O6    S    
C1    O1    A    
C5    N1    D    
C6    I3    S    
Cu1   O7    S    
C5    C6    S    
C3    C14   S    
C14   I1    S    
Cu1   Cu2   S    
Cu1   O3    S    
C3    H1    S    
Cu2   O2    S    
Cu1   N1    S    
C2    C14   D    
C10   C11   T    
C7    O3    A    
C12   C13   T    
Cu2   O4    S    
N2    I4    S    
C8    O6    A    
C9    C13   S    
Cu1   O5    S    
Cu2   O8    S    
C6    N2    D    
Cu1   O1    S    
C2    C8    S    
C3    C4    D    
C9    O7    A    
C2    I2    S    
C15   O9    D    
