data_mof_unit_36193.cif
_audit_creation_date              2013-03-05T15:45:32-0500
_audit_creation_method            fapswitch 2.2
_symmetry_space_group_name_H-M    P1
_symmetry_Int_Tables_number       1
_space_group_crystal_system       triclinic
_cell_length_a                    27.603475
_cell_length_b                    10.662577
_cell_length_c                    9.97295
_cell_angle_alpha                 92.463773
_cell_angle_beta                  90.250329
_cell_angle_gamma                 90.152392
_cell_volume                      2932.52703797

loop_
_atom_site_label
_atom_site_type_symbol
_atom_site_description
_atom_site_fract_x
_atom_site_fract_y
_atom_site_fract_z
_atom_type_partial_charge
O1    O     O_R   0.499990 0.319060 0.613040 -0.618220
O2    O     O_R   0.500010 0.319100 0.386900 -0.609620
C1    C     C_R   0.500242 0.261982 0.496488 0.930972
O3    O     O_R   0.428750 0.500000 0.613050 -0.612929
O4    O     O_R   0.428760 0.500040 0.386920 -0.623527
C2    C     C_R   0.405840 0.499811 0.499516 0.900009
Zn1   Zn    Zn3+2 0.499990 0.499970 0.650990 0.959603
Zn2   Zn    Zn3+2 0.500010 0.500030 0.349010 0.972175
O5    O     O_R   0.499990 0.680900 0.613100 -0.607157
O6    O     O_R   0.500010 0.680940 0.386960 -0.584452
O7    O     O_R   0.571240 0.499960 0.613080 -0.572851
O8    O     O_R   0.571250 0.500000 0.386950 -0.598951
C3    C     C_R   0.504538 0.737676 0.503472 0.923464
C4    C     C_R   0.594001 0.498697 0.499886 0.882791
C5    C     C_R   0.178261 0.358906 0.503097 0.602681
O9    O     O_2   0.204964 0.259926 0.539295 -0.530764
N1    N     N_R   0.200432 0.469998 0.477011 -0.341421
C6    C     C_R   0.174777 0.570635 0.434992 0.478936
C7    C     C_R   0.275755 0.475018 0.610399 0.530989
C8    C     C_R   0.326408 0.481566 0.614934 -0.322169
C9    C     C_R   0.328438 0.503750 0.373665 -0.211192
C10   C     C_R   0.278413 0.494636 0.368320 -0.182695
C11   C     C_R   0.251981 0.479376 0.485739 0.221346
C12   C     C_R   0.100762 0.449789 0.448358 -0.055221
C13   C     C_R   0.127894 0.347209 0.490822 -0.119680
C14   C     C_R   0.104521 0.234016 0.514475 -0.238658
C15   C     C_R   0.124635 0.561597 0.417241 0.004679
C16   C     C_R   0.352866 0.496392 0.496717 -0.098838
H1    H     H_    0.347950 0.515068 0.280959 0.173173
H2    H     H_    0.260001 0.498536 0.272442 0.163612
H3    H     H_    0.125126 0.151602 0.538795 0.206202
C17   C     C_R   0.646348 0.482624 0.496664 -0.156700
C18   C     C_R   0.974770 0.334021 0.493096 0.043339
C19   C     C_R   0.972230 0.531775 0.374080 0.045574
C20   C     C_R   0.948141 0.431940 0.435684 0.066718
C21   C     C_R   0.949566 0.246200 0.568970 -0.170680
C22   C     C_R   0.899393 0.248427 0.578428 -0.180030
C23   C     C_R   0.872709 0.340105 0.515009 -0.022309
C24   C     C_R   0.896992 0.431999 0.443085 -0.055547
C25   C     C_R   0.870142 0.525730 0.381124 -0.022355
C26   C     C_R   0.819759 0.526755 0.393639 0.509973
N2    N     N_R   0.797160 0.438338 0.466400 -0.346133
C27   C     C_R   0.822187 0.345284 0.525738 0.520140
C28   C     C_R   0.715833 0.386499 0.386966 -0.101456
C29   C     C_R   0.666184 0.404704 0.394024 -0.312430
C30   C     C_R   0.676914 0.544330 0.591713 0.449959
C31   C     C_R   0.726804 0.523231 0.585464 -0.208885
C32   C     C_R   0.746065 0.445906 0.482389 0.267603
O10   O     O_2   0.798241 0.259082 0.595509 -0.562918
C33   C     C_R   0.025859 0.331474 0.479329 -0.083569
C34   C     C_R   0.049777 0.440977 0.437821 0.012899
C35   C     C_R   0.023169 0.541882 0.386094 0.080375
C36   C     C_R   0.054225 0.223439 0.502789 0.469069
H4    H     H_    0.643260 0.358623 0.318430 0.180306
H5    H     H_    0.730977 0.328446 0.305907 0.148281
H6    H     H_    0.881676 0.179295 0.638000 0.193098
H7    H     H_    0.968015 0.178885 0.628454 0.208990
O11   O     O_2   0.197842 0.679100 0.410676 -0.571628
C37   C     C_R   0.098111 0.661588 0.369077 -0.154153
H8    H     H_    0.344871 0.472816 0.710115 0.172958
H9    H     H_    0.115690 0.748431 0.343942 0.182967
C38   C     C_R   0.944275 0.620217 0.306255 -0.220244
C39   C     C_R   0.894067 0.616933 0.309669 -0.134837
O12   O     O_2   0.793448 0.616061 0.335027 -0.578544
C40   C     C_R   0.048367 0.651320 0.351957 -0.219181
H10   H     H_    0.960225 0.692320 0.248046 0.140799
H11   H     H_    0.874102 0.687886 0.258078 0.188346
H12   H     H_    0.750772 0.571654 0.656846 0.151338
H13   H     H_    0.030307 0.732725 0.316548 0.128264
C41   C     C_2   0.527692 0.928556 0.402366 -0.190481
C42   C     C_2   0.520505 0.866650 0.514930 -0.019699
H14   H     H_    0.525671 0.881161 0.303832 0.186506
C43   C     C_2   0.531275 0.064211 0.405598 0.212728
C44   C     C_2   0.499948 0.128734 0.485135 -0.323458
H15   H     H_    0.472993 0.081729 0.544284 0.139638
C45   C     C_2   0.521093 0.586576 0.929257 -0.272865
N3    N     N_2   0.500520 0.501330 0.852150 -0.201279
H16   H     H_    0.535887 0.667943 0.882200 0.173485
H17   H     H_    0.490197 0.419171 0.894067 0.158958
C46   C     C_2   0.526751 0.577410 0.080719 0.507126
N4    N     N_2   0.500540 0.501360 0.147810 -0.213023
H18   H     H_    0.474382 0.448883 0.097750 0.104317
O13   O     O_3   0.249547 0.452303 0.724752 -0.619486
C47   C     C_3   0.247727 0.563045 0.807305 0.058169
H19   H     H_    0.231286 0.641143 0.751858 0.157176
H20   H     H_    0.284681 0.591014 0.842845 0.138665
C48   C     C_3   0.216395 0.538524 0.929557 -0.322808
H21   H     H_    0.179198 0.511954 0.895610 0.234841
H22   H     H_    0.231898 0.459166 0.984265 0.230907
C49   C     C_3   0.213607 0.653890 0.025195 -0.920865
H23   H     H_    0.250304 0.680128 0.063232 0.270131
H24   H     H_    0.190353 0.632727 0.112023 0.279723
H25   H     H_    0.197663 0.734239 0.973273 0.270413
O14   O     O_3   0.658820 0.629621 0.686855 -0.641022
C50   C     C_3   0.662304 0.751552 0.636654 0.058277
H26   H     H_    0.629599 0.770022 0.575009 0.146074
H27   H     H_    0.695099 0.764606 0.573247 0.149689
C51   C     C_3   0.665185 0.847778 0.754363 -0.344564
H28   H     H_    0.632073 0.841718 0.816465 0.212004
H29   H     H_    0.696981 0.826315 0.818074 0.233870
C52   C     C_3   0.670486 0.981009 0.705922 -0.906819
H30   H     H_    0.705330 0.991078 0.652063 0.282732
H31   H     H_    0.670090 0.049011 0.793406 0.267483
H32   H     H_    0.640249 0.003471 0.637346 0.265435
C53   C     C_3   0.532379 0.921286 0.654958 -0.890129
H33   H     H_    0.555310 0.854569 0.708945 0.242012
H34   H     H_    0.553091 0.010430 0.654293 0.254738
H35   H     H_    0.498450 0.936326 0.712732 0.243144
C54   C     C_3   0.569273 0.124176 0.320684 -0.860075
H36   H     H_    0.593041 0.051793 0.272064 0.226330
H37   H     H_    0.552005 0.177448 0.240216 0.252023
H38   H     H_    0.592328 0.187654 0.384949 0.228760
O15   O     O_3   0.556417 0.660042 0.155266 -0.610848
C55   C     C_3   0.600367 0.684736 0.089505 0.060281
H39   H     H_    0.594729 0.761140 0.018761 0.134411
H40   H     H_    0.614796 0.599511 0.034504 0.156299
C56   C     C_3   0.637779 0.728599 0.195048 -0.330915
H41   H     H_    0.623404 0.810741 0.254590 0.216434
H42   H     H_    0.644603 0.651871 0.264550 0.237258
C57   C     C_3   0.685511 0.765322 0.130836 -0.900119
H43   H     H_    0.700279 0.685270 0.068961 0.279457
H44   H     H_    0.712245 0.792093 0.210604 0.286974
H45   H     H_    0.679987 0.846829 0.066874 0.249900
O16   O     O_3   0.033508 0.105537 0.509031 -0.663043
C58   C     C_3   0.038969 0.038560 0.384259 0.077537
H46   H     H_    0.037247 0.937272 0.404425 0.170770
H47   H     H_    0.074876 0.054248 0.336675 0.135191
C59   C     C_3   0.997728 0.068855 0.287218 -0.358129
H48   H     H_    0.962316 0.048956 0.334617 0.240321
H49   H     H_    0.998975 0.169801 0.264404 0.223627
C60   C     C_3   0.001715 0.991767 0.155308 -0.941764
H50   H     H_    0.036826 0.010776 0.105989 0.271023
H51   H     H_    0.971868 0.017610 0.086876 0.273006
H52   H     H_    0.998828 0.890112 0.173184 0.251864

loop_
_geom_bond_atom_site_label_1
_geom_bond_atom_site_label_2
_geom_bond_distance
_ccdc_geom_bond_type
C48   H21   1.111886 S    
C59   C60   1.525490 S    
C26   N2    1.365334 A    
C52   H30   1.110879 S    
C17   C29   1.404305 A    
C20   C24   1.414149 A    
C50   H26   1.112766 S    
C12   C15   1.407561 A    
C60   H52   1.108728 S    
C59   H48   1.111541 S    
N4    H18   1.026829 S    
C50   C51   1.527177 S    
C57   H43   1.110983 S    
Zn1   O7    2.004378 S    
C53   H34   1.108192 S    
N1    C11   1.428214 S    
C25   C39   1.396385 A    
C21   C22   1.388763 A    
C45   H16   1.083751 S    
C54   H37   1.109564 S    
C23   C24   1.408890 A    
O7    C4    1.293912 A    
C5    C13   1.399902 A    
C5    O9    1.349832 S    
C19   C38   1.412965 A    
C18   C21   1.412615 A    
C5    N1    1.367240 A    
C19   C20   1.417322 A    
C43   C44   1.346290 D    
C1    C44   1.420409 S    
O5    C3    1.278780 A    
C22   H6    1.083404 S    
C47   H19   1.115611 S    
C6    O11   1.350278 S    
C2    C16   1.462741 S    
C38   C39   1.386877 A    
C31   C32   1.397647 A    
C58   C59   1.534975 S    
C47   C48   1.529147 S    
C42   C53   1.523816 S    
C41   C42   1.341723 D    
C8    H8    1.083110 S    
C57   H45   1.110397 S    
Zn1   N3    2.005577 S    
C12   C34   1.413380 A    
C14   H3    1.083665 S    
C52   H31   1.110315 S    
C9    C10   1.384652 A    
O3    Zn1   2.000922 S    
C7    O13   1.382970 S    
C57   H44   1.110463 S    
C33   C34   1.417872 A    
N3    H17   1.026931 S    
C53   H35   1.110129 S    
C39   H11   1.083522 S    
C37   H9    1.083668 S    
C33   C36   1.421667 A    
C44   H15   1.086296 S    
C38   H10   1.077358 S    
C34   C35   1.418367 A    
C12   C13   1.406407 A    
O3    C2    1.294411 A    
C21   H7    1.078121 S    
C56   C57   1.524998 S    
C24   C25   1.408185 A    
C27   O10   1.349685 S    
C8    C16   1.404029 A    
C18   C33   1.417715 A    
C9    H1    1.083074 S    
O6    C3    1.292155 A    
Zn2   N4    2.007335 S    
O1    C1    1.288727 A    
C7    C11   1.405848 A    
C22   C23   1.396787 A    
C49   H24   1.110716 S    
O13   C47   1.411282 S    
C30   O14   1.381733 S    
Zn2   O8    2.000925 S    
C41   C43   1.448517 S    
N1    C6    1.366977 A    
N2    C32   1.422167 S    
C45   N3    1.293578 D    
C43   C54   1.508926 S    
C25   C26   1.396907 A    
C9    C16   1.402913 A    
O8    C4    1.287777 A    
C29   H4    1.082836 S    
C52   H32   1.109884 S    
C51   H29   1.111349 S    
C48   H22   1.111927 S    
C58   H46   1.107958 S    
C54   H38   1.109385 S    
N2    C27   1.364721 A    
C60   H50   1.110855 S    
C14   C36   1.396570 A    
C31   H12   1.083306 S    
C28   C29   1.386348 A    
C49   H25   1.110848 S    
O15   C55   1.411145 S    
Zn1   O5    1.981717 S    
C30   C31   1.397204 A    
C10   H2    1.083335 S    
O1    Zn1   1.949716 S    
C17   C30   1.407041 A    
O2    Zn2   1.981718 S    
C6    C15   1.397162 A    
C45   C46   1.525227 S    
C4    C17   1.455865 S    
C46   N4    1.294781 D    
C60   H51   1.110380 S    
C36   O16   1.383664 S    
C59   H49   1.110131 S    
O4    Zn2   2.004375 S    
C55   H40   1.116358 S    
C50   H27   1.118320 S    
C55   H39   1.111220 S    
C51   C52   1.526883 S    
C3    C42   1.442674 S    
C53   H33   1.108583 S    
C19   C35   1.414092 A    
C7    C8    1.400192 A    
C56   H42   1.110710 S    
O2    C1    1.273814 A    
C13   C14   1.396517 A    
C23   C27   1.400216 A    
C15   C37   1.395915 A    
C54   H36   1.111086 S    
C37   C40   1.386399 A    
C28   H5    1.082923 S    
C49   H23   1.110963 S    
O4    C2    1.291376 A    
C40   H13   1.074120 S    
C18   C20   1.417762 A    
O14   C50   1.416292 S    
C55   C56   1.529286 S    
C46   O15   1.390724 S    
Zn2   O6    1.949715 S    
C51   H28   1.109603 S    
C48   C49   1.526122 S    
C58   H47   1.116061 S    
C10   C11   1.397605 A    
C47   H20   1.114075 S    
C41   H14   1.086655 S    
C26   O12   1.350458 S    
C56   H41   1.111910 S    
C35   C40   1.411811 A    
C28   C32   1.393455 A    
O16   C58   1.416663 S    
