data_mof_unit_62563.cif
_audit_creation_date              2012-10-26T18:03:25-0400
_audit_creation_method            fapswitch 2.2
_symmetry_space_group_name_H-M    P1
_symmetry_Int_Tables_number       1
_space_group_crystal_system       triclinic
_cell_length_a                    38.972316
_cell_length_b                    32.235533
_cell_length_c                    21.759765
_cell_angle_alpha                 89.996601
_cell_angle_beta                  124.2161
_cell_angle_gamma                 90.004645
_cell_volume                      22605.2924569

loop_
_atom_site_label
_atom_site_type_symbol
_atom_type_description
_atom_site_fract_x
_atom_site_fract_y
_atom_site_fract_z
_atom_type_partial_charge
C1    C     C_R   0.920412 0.000001 0.420441 0.555226
C2    C     C_R   0.970892 0.979703 0.251929 0.061128
C3    C     C_1   0.499999 0.338294 0.999995 -0.048261
C4    C     C_1   0.999999 0.875769 0.999997 -0.013367
C5    C     C_1   0.499998 0.375769 0.999997 -0.013354
C6    C     C_1   0.499999 0.124086 0.999995 -0.013932
C7    C     C_1   0.999999 0.624086 0.999995 -0.013988
C8    C     C_R   0.475610 0.771836 0.933056 -0.098122
C9    C     C_R   0.524394 0.771833 0.066951 -0.097993
C10   C     C_R   0.973402 0.271835 0.933849 -0.097883
C11   C     C_R   0.026589 0.271834 0.066157 -0.098153
C12   C     C_R   0.934219 0.043336 0.618484 -0.095226
C13   C     C_R   0.529153 0.479766 0.748111 0.061085
C14   C     C_R   0.065789 0.043328 0.381537 -0.095305
C15   C     C_R   0.434131 0.543190 0.618369 -0.095316
C16   C     C_R   0.566038 0.542932 0.381853 -0.095182
C17   C     C_R   0.500002 0.793712 0.000005 0.039827
C18   C     C_R   0.999996 0.293712 0.000004 0.039829
C19   C     C_R   0.026589 0.228384 0.066157 -0.099842
C20   C     C_R   0.973404 0.228385 0.933848 -0.099780
C21   C     C_R   0.524393 0.728383 0.066949 -0.099822
C22   C     C_R   0.475611 0.728386 0.933053 -0.099855
C23   C     C_R   0.999997 0.206510 0.000002 0.039403
C24   C     C_R   0.470731 0.479934 0.251782 0.060988
C25   C     C_R   0.500002 0.706510 0.000000 0.039479
C26   C     C_1   0.500002 0.838508 0.000006 -0.044451
C27   C     C_1   0.999997 0.338508 0.000004 -0.044322
C28   C     C_1   1.000000 0.161720 0.000002 -0.053394
C29   C     C_1   0.500002 0.661719 0.999999 -0.053374
C30   C     C_R   0.905878 0.068431 0.620840 -0.114699
C31   C     C_R   0.094149 0.068408 0.379200 -0.114836
C32   C     C_R   0.405725 0.568216 0.620649 -0.114885
C33   C     C_R   0.594602 0.567792 0.379745 -0.114661
C34   C     C_R   0.909708 0.074616 0.687637 -0.117257
C35   C     C_R   0.029219 0.981400 0.811722 -0.122288
C36   C     C_R   0.090334 0.074584 0.312414 -0.117313
C37   C     C_R   0.409542 0.574422 0.687430 -0.117426
C38   C     C_R   0.590853 0.573994 0.313022 -0.117357
C39   C     C_R   0.940919 0.054464 0.751845 -0.090793
C40   C     C_R   0.059117 0.054442 0.248194 -0.090808
C41   C     C_R   0.440805 0.554356 0.751700 -0.090891
C42   C     C_R   0.559480 0.554101 0.248626 -0.090879
C43   C     C_R   0.968933 0.027305 0.750163 0.021762
C44   C     C_R   0.031085 0.027298 0.249857 0.021768
C45   C     C_R   0.468879 0.527251 0.750093 0.021744
C46   C     C_R   0.970782 0.981408 0.188279 -0.122295
C47   C     C_R   0.531248 0.527140 0.250055 0.021747
C48   C     C_R   0.967047 0.023654 0.683499 0.005902
C49   C     C_R   0.032960 0.023652 0.316514 0.005909
C50   C     C_R   0.467002 0.523588 0.683439 0.005889
C51   C     C_R   0.533090 0.523472 0.316678 0.005907
C52   C     C_R   0.529267 0.481477 0.811765 -0.122327
C53   C     C_R   0.470623 0.481658 0.188133 -0.122273
C54   C     C_R   0.999360 0.004382 0.813369 -0.022671
C55   C     C_R   0.000647 0.004386 0.186639 -0.022682
C56   C     C_R   0.499357 0.504396 0.813359 -0.022746
C57   C     C_R   0.079588 0.000002 0.579558 0.555199
C58   C     C_R   0.500653 0.504430 0.186660 -0.022825
C59   C     C_R   0.728287 0.978046 0.181681 0.108746
C60   C     C_R   0.271721 0.979767 0.819983 0.108713
C61   C     C_R   0.228277 0.479929 0.179873 0.108677
C62   C     C_R   0.771706 0.476972 0.817174 0.108735
C63   C     C_R   0.706327 0.999330 0.205788 0.044006
C64   C     C_R   0.293673 0.999376 0.794257 0.043920
C65   C     C_R   0.206327 0.499381 0.205738 0.043903
C66   C     C_R   0.793673 0.499301 0.794171 0.044051
C67   C     C_R   0.728266 0.020645 0.273715 -0.126507
C68   C     C_R   0.420412 0.500001 0.420443 0.555272
C69   C     C_R   0.271726 0.019015 0.724711 -0.126546
C70   C     C_R   0.228276 0.518863 0.275423 -0.126543
C71   C     C_R   0.771741 0.521660 0.727345 -0.126499
C72   C     C_R   0.771686 0.020830 0.317359 -0.112299
C73   C     C_R   0.228306 0.019188 0.681057 -0.112388
C74   C     C_R   0.271697 0.519034 0.319079 -0.112417
C75   C     C_R   0.728321 0.521851 0.683708 -0.112274
C76   C     C_R   0.793566 0.999699 0.293442 0.015613
C77   C     C_R   0.206433 0.999721 0.706580 0.015601
C78   C     C_R   0.293567 0.499722 0.293418 0.015594
C79   C     C_R   0.579588 0.500002 0.579558 0.555228
C80   C     C_R   0.706434 0.499684 0.706531 0.015629
C81   C     C_R   0.771781 0.978351 0.225634 -0.072157
C82   C     C_R   0.228226 0.980050 0.776009 -0.072203
C83   C     C_R   0.271771 0.480209 0.223849 -0.072179
C84   C     C_R   0.728212 0.477290 0.773235 -0.072126
C85   C     C_R   0.999564 0.000011 0.618502 0.559754
C86   C     C_R   0.000428 0.000012 0.381491 0.559761
C87   C     C_R   0.499571 0.500010 0.618507 0.559796
C88   C     C_R   0.500414 0.500014 0.381481 0.559878
C89   C     C_1   0.661507 0.999645 0.161578 -0.014273
C90   C     C_R   0.997932 0.000384 0.683563 0.011272
C91   C     C_1   0.338493 0.999668 0.838438 -0.014342
C92   C     C_1   0.161507 0.499671 0.161559 -0.014370
C93   C     C_1   0.838493 0.499632 0.838403 -0.014260
C94   C     C_1   0.838334 0.999888 0.338379 -0.039782
C95   C     C_1   0.161665 0.999898 0.661631 -0.039793
C96   C     C_1   0.338335 0.499896 0.338370 -0.039730
C97   C     C_1   0.661665 0.499883 0.661605 -0.039790
C98   C     C_1   0.875803 0.999975 0.375876 -0.001221
C99   C     C_1   0.124196 0.999981 0.624127 -0.001232
C100  C     C_1   0.375804 0.499977 0.375874 -0.001122
C101  C     C_R   0.002064 0.000389 0.316434 0.011279
C102  C     C_1   0.624196 0.499977 0.624116 -0.001247
C103  C     C_1   0.624027 0.999847 0.124314 0.007466
C104  C     C_1   0.375972 0.999856 0.875688 0.007422
C105  C     C_1   0.124028 0.499857 0.124311 0.007390
C106  C     C_1   0.875973 0.499843 0.875681 0.007462
C107  C     C_1   0.500001 0.875995 0.000006 -0.006395
C108  C     C_1   0.999998 0.375995 0.000003 -0.006246
C109  C     C_R   0.999999 0.920397 0.999999 0.561900
C110  C     C_R   0.499999 0.420397 0.999999 0.561980
C111  C     C_R   0.999854 0.002158 0.880812 0.542905
C112  C     C_R   0.497938 0.500383 0.683563 0.011304
C113  C     C_R   0.000148 0.002164 0.119189 0.542907
C114  C     C_R   0.499853 0.502168 0.880809 0.542893
C115  C     C_R   0.500151 0.502189 0.119196 0.542974
C116  C     C_R   0.000001 0.079601 0.000000 0.540929
C117  C     C_R   0.500001 0.579601 0.999999 0.540953
C118  C     C_R   0.500000 0.920643 0.000002 0.553466
C119  C     C_R   0.999999 0.420643 0.000001 0.553505
C120  C     C_R   0.579403 0.999985 0.079480 0.550993
C121  C     C_R   0.420596 0.999984 0.920520 0.550886
C122  C     C_R   0.079404 0.499984 0.079480 0.550841
C123  C     C_R   0.502046 0.500399 0.316428 0.011447
C124  C     C_R   0.920596 0.499985 0.920519 0.551023
C125  C     C_1   0.000001 0.124237 0.000002 -0.023443
C126  C     C_1   0.500002 0.624237 0.999999 -0.023403
C127  C     C_R   0.500000 0.079455 0.999998 0.547026
C128  C     C_R   0.000000 0.579455 0.999999 0.546982
C129  C     C_R   0.473609 0.228205 0.013090 -0.100291
C130  C     C_R   0.526389 0.228211 0.986897 -0.100347
C131  C     C_R   0.973785 0.728205 0.013524 -0.100400
C132  C     C_R   0.026213 0.728211 0.986464 -0.100280
C133  C     C_R   0.499999 0.206341 0.999994 0.036951
C134  C     C_R   0.029103 0.979694 0.748064 0.061133
C135  C     C_R   0.999999 0.706341 0.999993 0.036943
C136  C     C_R   0.026212 0.771653 0.986463 -0.099515
C137  C     C_R   0.973786 0.771647 0.013527 -0.099545
C138  C     C_R   0.526388 0.271654 0.986896 -0.099518
C139  C     C_R   0.473610 0.271648 0.013092 -0.099513
C140  C     C_R   1.000000 0.793517 0.999996 0.037656
C141  C     C_R   0.499999 0.293517 0.999994 0.037654
C142  C     C_1   0.499999 0.161563 0.999994 -0.050329
C143  C     C_1   0.999999 0.661563 0.999994 -0.050368
C144  C     C_1   0.999999 0.838293 0.999996 -0.048263
Cu1   Cu    Cu3+1 0.000000 0.041020 0.500000 0.962050
Cu2   Cu    Cu3+1 0.500000 0.000050 0.938220 0.989887
Cu3   Cu    Cu3+1 1.000000 0.500050 0.061780 0.989666
Cu4   Cu    Cu3+1 0.000000 0.500050 0.938220 0.990853
Cu5   Cu    Cu3+1 0.500000 0.541020 0.500000 0.962022
Cu6   Cu    Cu3+1 0.000000 0.958990 0.500000 1.036740
Cu7   Cu    Cu3+1 0.500000 0.458990 0.500000 1.036499
Cu8   Cu    Cu3+1 0.041020 0.999990 0.040980 0.961626
Cu9   Cu    Cu3+1 0.958980 0.999990 0.959020 0.961666
Cu10  Cu    Cu3+1 0.541020 0.499990 0.040980 0.961558
Cu11  Cu    Cu3+1 0.458980 0.499990 0.959020 0.961721
Cu12  Cu    Cu3+1 0.500000 0.000050 0.061780 0.990562
H1    H     H_    0.788179 0.037448 0.369699 0.117010
H2    H     H_    0.070108 0.039424 0.434810 0.129219
H3    H     H_    0.429819 0.539266 0.565106 0.129091
H4    H     H_    0.570293 0.539018 0.435070 0.128960
H5    H     H_    0.881172 0.083574 0.570802 0.115398
H6    H     H_    0.118856 0.083545 0.429247 0.115456
H7    H     H_    0.380980 0.583292 0.570565 0.115444
H8    H     H_    0.619416 0.582745 0.429915 0.115250
H9    H     H_    0.888311 0.095012 0.689701 0.116711
H10   H     H_    0.111748 0.094967 0.310367 0.116652
H11   H     H_    0.388095 0.594771 0.689435 0.116736
H12   H     H_    0.211807 0.034500 0.627456 0.117004
H13   H     H_    0.612432 0.594214 0.311161 0.116750
H14   H     H_    0.052820 0.964338 0.860391 0.161190
H15   H     H_    0.947179 0.964350 0.139607 0.161179
H16   H     H_    0.552906 0.464468 0.860471 0.161229
H17   H     H_    0.446897 0.464763 0.139345 0.161414
H18   H     H_    0.711780 0.037160 0.292953 0.119279
H19   H     H_    0.288206 0.034230 0.704217 0.119364
H20   H     H_    0.211798 0.533957 0.296025 0.119384
H21   H     H_    0.788233 0.538984 0.708964 0.119199
H22   H     H_    0.453061 0.211688 0.023286 0.120610
H23   H     H_    0.288198 0.534224 0.372789 0.116987
H24   H     H_    0.546937 0.211698 0.976701 0.120502
H25   H     H_    0.953373 0.711690 0.024054 0.120429
H26   H     H_    0.046625 0.711700 0.975933 0.120660
H27   H     H_    0.952699 0.211871 0.882333 0.114628
H28   H     H_    0.047295 0.211868 0.117671 0.114543
H29   H     H_    0.456619 0.711871 0.880922 0.114452
H30   H     H_    0.543385 0.711867 0.119080 0.114513
H31   H     H_    0.456615 0.788349 0.880925 0.119109
H32   H     H_    0.543389 0.788345 0.119083 0.119272
H33   H     H_    0.952694 0.288349 0.882336 0.119447
H34   H     H_    0.711834 0.539282 0.632227 0.116936
H35   H     H_    0.047299 0.288346 0.117671 0.119102
H36   H     H_    0.943177 0.061245 0.802602 0.139602
H37   H     H_    0.056873 0.061218 0.197446 0.139616
H38   H     H_    0.443051 0.561160 0.802440 0.139635
H39   H     H_    0.557284 0.560930 0.197940 0.139795
H40   H     H_    0.788549 0.961945 0.206861 0.154022
H41   H     H_    0.211464 0.964936 0.796030 0.154093
H42   H     H_    0.288532 0.465215 0.203722 0.154185
H43   H     H_    0.711438 0.460080 0.791158 0.153977
H44   H     H_    0.953376 0.788159 0.024060 0.122243
H45   H     H_    0.046624 0.788169 0.975931 0.122308
H46   H     H_    0.453063 0.288161 0.023291 0.122281
H47   H     H_    0.546936 0.288171 0.976697 0.122269
H48   H     H_    0.929888 0.039423 0.565206 0.129195
I1    I     I_    0.078679 0.946814 0.755514 -0.331328
I2    I     I_    0.921309 0.946822 0.244462 -0.331304
I3    I     I_    0.578789 0.446980 0.755613 -0.331258
I4    I     I_    0.420959 0.447360 0.244164 -0.331609
I5    I     I_    0.697502 0.945051 0.079739 -0.339752
I6    I     I_    0.302517 0.949368 0.924431 -0.339204
I7    I     I_    0.197478 0.449771 0.075209 -0.339223
I8    I     I_    0.802481 0.442360 0.917408 -0.340189
O1    O     O_R   0.940150 0.034640 0.440170 -0.513360
O2    O     O_R   0.440140 0.999970 0.992380 -0.488596
O3    O     O_R   0.059860 0.499970 0.007620 -0.488554
O4    O     O_R   0.940140 0.499970 0.992380 -0.489241
O5    O     O_R   0.499990 0.059890 0.052110 -0.502370
O6    O     O_R   0.500010 0.059890 0.947890 -0.502488
O7    O     O_R   0.999990 0.559890 0.052110 -0.502567
O8    O     O_R   0.000010 0.559890 0.947890 -0.502367
O9    O     O_R   0.940160 0.965370 0.440130 -0.485992
O10   O     O_R   0.059840 0.965370 0.559870 -0.485959
O11   O     O_R   0.440160 0.465370 0.440130 -0.486011
O12   O     O_R   0.059850 0.034640 0.559830 -0.513321
O13   O     O_R   0.559840 0.465370 0.559870 -0.486016
O14   O     O_R   0.999990 0.034640 0.590170 -0.515232
O15   O     O_R   0.000010 0.034640 0.409830 -0.515215
O16   O     O_R   0.499990 0.534640 0.590170 -0.515185
O17   O     O_R   0.500010 0.534640 0.409830 -0.515120
O18   O     O_R   0.000000 0.965370 0.590130 -0.481513
O19   O     O_R   0.000000 0.965370 0.409870 -0.481559
O20   O     O_R   0.500000 0.465370 0.590130 -0.481607
O21   O     O_R   0.500000 0.465370 0.409870 -0.481671
O22   O     O_R   0.034640 0.940150 0.034570 -0.496286
O23   O     O_R   0.440150 0.534640 0.440170 -0.513282
O24   O     O_R   0.965360 0.940150 0.965430 -0.496300
O25   O     O_R   0.534640 0.440150 0.034570 -0.496272
O26   O     O_R   0.465360 0.440150 0.965430 -0.496259
O27   O     O_R   0.034650 0.999990 0.944440 -0.504548
O28   O     O_R   0.965350 0.999990 0.055560 -0.504548
O29   O     O_R   0.534650 0.499990 0.944440 -0.504611
O30   O     O_R   0.465350 0.499990 0.055560 -0.504605
O31   O     O_R   0.965370 0.000000 0.875180 -0.514107
O32   O     O_R   0.034630 0.000000 0.124820 -0.514143
O33   O     O_R   0.465370 0.500000 0.875180 -0.514130
O34   O     O_R   0.559850 0.534640 0.559830 -0.513356
O35   O     O_R   0.534630 0.500000 0.124820 -0.514207
O36   O     O_R   0.034640 0.059840 0.034640 -0.509797
O37   O     O_R   0.965360 0.059840 0.965360 -0.509753
O38   O     O_R   0.534640 0.559840 0.034640 -0.509738
O39   O     O_R   0.465360 0.559840 0.965360 -0.509722
O40   O     O_R   0.500010 0.940200 0.052220 -0.498485
O41   O     O_R   0.499990 0.940200 0.947780 -0.498451
O42   O     O_R   0.000010 0.440200 0.052220 -0.498338
O43   O     O_R   0.999990 0.440200 0.947780 -0.498389
O44   O     O_R   0.559850 0.000040 0.111990 -0.507988
O45   O     O_R   0.440150 0.000040 0.888010 -0.508213
O46   O     O_R   0.059850 0.500040 0.111990 -0.508240
O47   O     O_R   0.940150 0.500040 0.888010 -0.507846
O48   O     O_R   0.559860 0.999970 0.007620 -0.488982

loop_
_geom_bond_atom_site_label_1
_geom_bond_atom_site_label_2
_ccdc_geom_bond_type
C44   C49   A    
C65   C92   S    
C71   C75   A    
C4    C109  S    
C119  O42   A    
C11   C18   A    
Cu5   O34   S    
C80   C97   S    
C16   H4    S    
C51   C123  A    
C41   C45   A    
C59   I5    S    
Cu2   O48   S    
C103  C120  S    
C3    C141  S    
C16   C51   A    
C91   C104  T    
C72   C76   A    
C9    H32   S    
C52   H16   S    
C7    C143  T    
C117  O39   A    
C110  O25   A    
C53   H17   S    
C21   H30   S    
C37   H11   S    
Cu1   O12   S    
C46   H15   S    
C88   O21   A    
Cu1   O15   S    
Cu10  O25   S    
C11   C19   A    
C133  C142  S    
Cu5   O23   S    
C14   H2    S    
C17   C26   S    
C27   C108  T    
C59   C81   A    
C118  O41   A    
C6    C127  S    
C38   C42   A    
C13   C112  A    
C131  C135  A    
Cu5   Cu7   S    
C22   H29   S    
C49   C101  A    
C16   C33   A    
C95   C99   T    
C47   C58   A    
C114  O33   A    
Cu8   O22   S    
C5    C110  S    
C94   C98   T    
C67   H18   S    
C65   C70   A    
Cu7   O21   S    
C32   H7    S    
C128  O8    A    
C122  O3    A    
C1    O9    A    
C67   C72   A    
C61   I7    S    
C15   C50   A    
C73   C77   A    
C62   C84   A    
Cu7   O11   S    
C76   C94   S    
C60   C82   A    
C78   C83   A    
C122  O46   A    
C113  O28   A    
C74   H23   S    
Cu3   Cu4   S    
Cu11  O26   S    
C78   C96   S    
C22   C25   A    
C77   C82   A    
C46   C55   A    
C70   C74   A    
C26   C107  T    
C8    C22   A    
C137  H44   S    
C79   C102  S    
C69   C73   A    
Cu12  O5    S    
C2    I2    S    
C7    C128  S    
C6    C142  T    
C34   H9    S    
C75   C80   A    
C14   C31   A    
C107  C118  S    
C97   C102  T    
C136  C140  A    
C109  O24   A    
C57   O10   A    
C132  H26   S    
C109  O22   A    
C139  C141  A    
C135  C143  S    
C88   O17   A    
Cu10  O29   S    
C8    H31   S    
C48   C90   A    
C29   C126  T    
C89   C103  T    
C35   C54   A    
C86   O15   A    
Cu6   O10   S    
C108  C119  S    
C63   C89   S    
C42   H39   S    
C73   H12   S    
C116  O36   A    
C35   C134  A    
C50   C112  A    
C136  H45   S    
C115  O35   A    
C40   H37   S    
Cu11  O33   S    
C84   H43   S    
C25   C29   S    
C137  C140  A    
C63   C67   A    
C10   H33   S    
C32   C37   A    
C30   C34   A    
C34   C39   A    
C79   O34   A    
C140  C144  S    
C36   C40   A    
C75   H34   S    
C45   C56   A    
C82   H41   S    
C124  O4    A    
Cu3   O4    S    
C61   C83   A    
C60   I6    S    
C10   C20   A    
C80   C84   A    
C62   C66   A    
C134  I1    S    
C47   C51   A    
C104  C121  S    
C55   C113  S    
C2    C101  A    
C24   C53   A    
C64   C69   A    
Cu9   O37   S    
C77   C95   S    
C24   C123  A    
C2    C46   A    
Cu6   O19   S    
Cu9   O24   S    
C119  O43   A    
Cu2   O6    S    
C19   H28   S    
C19   C23   A    
C120  O44   A    
C66   C71   A    
C15   H3    S    
C41   H38   S    
C131  C137  A    
C68   O23   A    
C93   C106  T    
C13   C52   A    
C88   C123  S    
C138  H47   S    
C43   C54   A    
Cu7   O20   S    
C129  C139  A    
C20   C23   A    
C116  O37   A    
C132  C136  A    
C113  O32   A    
C33   H8    S    
C30   H5    S    
C36   H10   S    
C23   C28   S    
C4    C144  T    
C83   H42   S    
Cu4   O8    S    
C128  O7    A    
Cu10  Cu11  S    
C130  H24   S    
C20   H27   S    
Cu1   O1    S    
C56   C114  S    
C9    C17   A    
Cu7   O13   S    
C121  O45   A    
C87   O16   A    
C116  C125  S    
Cu9   O31   S    
Cu2   O41   S    
Cu12  O2    S    
C58   C115  S    
Cu6   O9    S    
C129  C133  A    
C85   C90   S    
C68   O11   A    
C86   O19   A    
Cu4   O47   S    
C130  C138  A    
Cu4   O3    S    
C28   C125  T    
C127  O5    A    
C38   H13   S    
C43   C48   A    
C105  C122  S    
C35   H14   S    
C21   C25   A    
Cu11  O39   S    
Cu9   O28   S    
C12   C30   A    
C66   C93   S    
C59   C63   A    
C68   C100  S    
C18   C27   S    
Cu1   Cu6   S    
C3    C5    T    
C139  H46   S    
C15   C32   A    
C76   C81   A    
C85   O18   A    
C39   C43   A    
C53   C58   A    
Cu12  O40   S    
Cu8   O32   S    
C87   C112  S    
C117  O38   A    
Cu2   O45   S    
Cu10  O38   S    
C129  H22   S    
Cu3   O42   S    
C110  O26   A    
C33   C38   A    
Cu6   O18   S    
C60   C64   A    
C111  O31   A    
C121  O2    A    
C71   H21   S    
Cu3   O46   S    
C1    C98   S    
Cu5   O17   S    
C124  O47   A    
C120  O48   A    
C85   O14   A    
C8    C17   A    
C1    O1    A    
C39   H36   S    
C131  H25   S    
C44   C55   A    
C9    C21   A    
C87   O20   A    
Cu8   O27   S    
C52   C56   A    
C45   C50   A    
C10   C18   A    
C132  C135  A    
C90   C134  A    
C96   C100  T    
C12   C48   A    
C24   I4    S    
C54   C111  S    
C11   H35   S    
C42   C47   A    
C12   H48   S    
Cu1   O14   S    
C37   C41   A    
C115  O30   A    
C111  O27   A    
Cu8   O36   S    
Cu3   O7    S    
C13   I3    S    
C72   H1    S    
C14   C49   A    
Cu11  O30   S    
C61   C65   A    
C92   C105  T    
C40   C44   A    
C114  O29   A    
Cu2   Cu12  S    
Cu10  O35   S    
Cu4   O43   S    
C31   H6    S    
C74   C78   A    
C106  C124  S    
C130  C133  A    
Cu5   O16   S    
C62   I8    S    
C31   C36   A    
C117  C126  S    
C118  O40   A    
Cu8   Cu9   S    
C69   H19   S    
C64   C91   S    
C86   C101  S    
C70   H20   S    
C79   O13   A    
Cu12  O44   S    
C127  O6    A    
C138  C141  A    
C81   H40   S    
C57   O12   A    
C57   C99   S    
