data_mof_unit_18069.cif
_audit_creation_date              2013-03-05T15:44:53-0500
_audit_creation_method            fapswitch 2.2
_symmetry_space_group_name_H-M    P1
_symmetry_Int_Tables_number       1
_space_group_crystal_system       triclinic
_cell_length_a                    15.521872
_cell_length_b                    15.496937
_cell_length_c                    9.936685
_cell_angle_alpha                 90.000078
_cell_angle_beta                  60.333142
_cell_angle_gamma                 90.000015
_cell_volume                      2076.87453847

loop_
_atom_site_label
_atom_site_type_symbol
_atom_site_description
_atom_site_fract_x
_atom_site_fract_y
_atom_site_fract_z
_atom_type_partial_charge
O1    O     O_R   0.422430 0.089640 0.419570 -0.562996
O2    O     O_R   0.577570 0.910360 0.580430 -0.548171
O3    O     O_R   0.577570 0.089640 0.580430 -0.562992
O4    O     O_R   0.422430 0.910360 0.419570 -0.548171
O5    O     O_R   0.922430 0.589640 0.419570 -0.562996
O6    O     O_R   0.077570 0.410360 0.580430 -0.548171
O7    O     O_R   0.077570 0.589640 0.580430 -0.562992
O8    O     O_R   0.922430 0.410360 0.419570 -0.548171
O9    O     O_R   0.384170 0.089650 0.673910 -0.569472
O10   O     O_R   0.615830 0.910350 0.326090 -0.528355
O11   O     O_R   0.615830 0.089650 0.326090 -0.569469
O12   O     O_R   0.384170 0.910350 0.673910 -0.528354
O13   O     O_R   0.884170 0.589650 0.673910 -0.569472
O14   O     O_R   0.115830 0.410350 0.326090 -0.528355
O15   O     O_R   0.115830 0.589650 0.326090 -0.569469
O16   O     O_R   0.884170 0.410350 0.673910 -0.528354
C1    C     C_R   0.374115 0.120062 0.560736 0.824381
C2    C     C_R   0.631109 0.884592 0.437845 0.852171
C3    C     C_R   0.625885 0.120062 0.439264 0.824384
C4    C     C_R   0.368890 0.884592 0.562155 0.852170
C5    C     C_R   0.874115 0.620062 0.560736 0.824381
C6    C     C_R   0.131109 0.384592 0.437845 0.852171
C7    C     C_R   0.125885 0.620062 0.439264 0.824384
C8    C     C_R   0.868890 0.384592 0.562155 0.852170
C9    C     C_2   0.511834 0.011715 0.915548 0.452492
C10   C     C_2   0.488165 0.011714 0.084453 0.452491
C11   C     C_2   0.011834 0.511715 0.915548 0.452491
C12   C     C_2   0.988165 0.511714 0.084453 0.452492
Cu1   Cu    Cu3+1 0.522650 0.000000 0.349410 1.068002
Cu2   Cu    Cu3+1 0.477350 0.000000 0.650590 1.068003
Cu3   Cu    Cu3+1 0.022650 0.500000 0.349410 1.068002
Cu4   Cu    Cu3+1 0.977350 0.500000 0.650590 1.068003
N1    N     N_2   0.443290 0.000000 0.876860 -0.114395
N2    N     N_2   0.556710 0.000000 0.123140 -0.114393
N3    N     N_2   0.943290 0.500000 0.876860 -0.114395
N4    N     N_2   0.056710 0.500000 0.123140 -0.114393
H1    H     H_    0.622141 0.244238 0.626353 0.167661
H2    H     H_    0.320675 0.819003 0.362685 0.230398
H3    H     H_    0.377857 0.244237 0.373645 0.167661
H4    H     H_    0.679326 0.819004 0.637314 0.230399
H5    H     H_    0.122141 0.744239 0.626353 0.167661
H6    H     H_    0.820675 0.319003 0.362685 0.230398
H7    H     H_    0.877857 0.744237 0.373645 0.167661
H8    H     H_    0.179326 0.319004 0.637314 0.230399
C13   C     C_2   0.285274 0.827818 0.597061 -0.357206
C14   C     C_2   0.697335 0.189232 0.403618 -0.311751
C15   C     C_2   0.714725 0.827817 0.402938 -0.357207
C16   C     C_2   0.302665 0.189233 0.596381 -0.311754
C17   C     C_2   0.785274 0.327818 0.597061 -0.357206
C18   C     C_2   0.197335 0.689232 0.403618 -0.311751
C19   C     C_2   0.214725 0.327817 0.402938 -0.357207
C20   C     C_2   0.802665 0.689232 0.596381 -0.311753
C21   C     C_2   0.269385 0.802003 0.482546 -0.107608
C22   C     C_2   0.687731 0.244503 0.512797 -0.174176
C23   C     C_2   0.730615 0.802003 0.517454 -0.107607
C24   C     C_2   0.312269 0.244502 0.487202 -0.174173
C25   C     C_2   0.769385 0.302003 0.482546 -0.107608
C26   C     C_2   0.187731 0.744503 0.512797 -0.174176
C27   C     C_2   0.230615 0.302003 0.517454 -0.107607
C28   C     C_2   0.812268 0.744502 0.487202 -0.174173
H9    H     H_    0.760811 0.192894 0.287288 0.181773
H10   H     H_    0.235559 0.808527 0.716162 0.163898
H11   H     H_    0.239190 0.192896 0.712712 0.181773
H12   H     H_    0.764439 0.808525 0.283838 0.163897
H13   H     H_    0.260811 0.692894 0.287288 0.181773
H14   H     H_    0.735559 0.308527 0.716162 0.163898
H15   H     H_    0.739190 0.692896 0.712712 0.181773
H16   H     H_    0.264439 0.308525 0.283838 0.163897
N5    N     N_R   0.639908 0.951649 0.023181 0.227087
O17   O     O_R   0.724102 0.967624 0.016734 -0.346161
O18   O     O_R   0.630021 0.879982 0.963592 -0.351930
N6    N     N_R   0.360095 0.951644 0.976816 0.227089
O19   O     O_R   0.275899 0.967618 0.983271 -0.346163
O20   O     O_R   0.369989 0.879974 0.036390 -0.351928
N7    N     N_R   0.139908 0.451648 0.023181 0.227087
O21   O     O_R   0.224102 0.467623 0.016734 -0.346161
O22   O     O_R   0.130021 0.379981 0.963593 -0.351930
N8    N     N_R   0.860095 0.451644 0.976816 0.227089
O23   O     O_R   0.775899 0.467618 0.983271 -0.346163
O24   O     O_R   0.869988 0.379975 0.036391 -0.351928
O25   O     O_3   0.390840 0.021150 0.203074 -0.542000
C29   C     C_3   0.348303 0.098646 0.187587 0.046149
H17   H     H_    0.352990 0.106834 0.073599 0.132519
H18   H     H_    0.386333 0.154792 0.202816 0.118389
C30   C     C_3   0.238609 0.099082 0.308423 -0.652672
H19   H     H_    0.228711 0.094046 0.426586 0.242113
H20   H     H_    0.203224 0.159213 0.299049 0.193123
H21   H     H_    0.201089 0.043287 0.289224 0.266727
O26   O     O_3   0.609159 0.021156 0.796927 -0.541998
C31   C     C_3   0.651692 0.098653 0.812422 0.046147
H22   H     H_    0.647000 0.106841 0.926413 0.132513
H23   H     H_    0.613663 0.154798 0.797189 0.118392
C32   C     C_3   0.761388 0.099090 0.691593 -0.652670
H24   H     H_    0.771291 0.094056 0.573426 0.242112
H25   H     H_    0.796770 0.159220 0.700975 0.193124
H26   H     H_    0.798906 0.043294 0.710793 0.266732
O27   O     O_3   0.890840 0.521150 0.203074 -0.542000
C33   C     C_3   0.848303 0.598646 0.187587 0.046150
H27   H     H_    0.852990 0.606834 0.073599 0.132519
H28   H     H_    0.886333 0.654792 0.202816 0.118388
C34   C     C_3   0.738609 0.599082 0.308423 -0.652672
H29   H     H_    0.728711 0.594046 0.426586 0.242112
H30   H     H_    0.703225 0.659213 0.299049 0.193123
H31   H     H_    0.701089 0.543287 0.289224 0.266727
O28   O     O_3   0.109159 0.521156 0.796927 -0.541998
C35   C     C_3   0.151692 0.598653 0.812421 0.046148
H32   H     H_    0.147000 0.606841 0.926413 0.132513
H33   H     H_    0.113663 0.654798 0.797189 0.118392
C36   C     C_3   0.261388 0.599090 0.691593 -0.652671
H34   H     H_    0.271291 0.594056 0.573426 0.242112
H35   H     H_    0.296770 0.659220 0.700974 0.193124
H36   H     H_    0.298906 0.543294 0.710793 0.266732

loop_
_geom_bond_atom_site_label_1
_geom_bond_atom_site_label_2
_geom_bond_distance
_ccdc_geom_bond_type
C12   O27   1.389312 S    
O6    Cu4   1.939612 S    
C32   H24   1.108939 S    
O2    C2    1.300739 A    
O13   Cu4   1.934928 S    
C1    C16   1.454506 S    
O14   Cu3   1.934928 S    
C2    C15   1.460573 S    
O27   C33   1.415088 S    
C3    C14   1.454504 S    
C30   H19   1.108939 S    
O11   C3    1.298037 A    
C34   H29   1.108939 S    
H5    C26   1.082839 S    
C36   H35   1.108751 S    
N8    O24   1.302908 A    
C35   H32   1.105778 S    
C11   O28   1.389312 S    
H8    C27   1.087704 S    
O6    C6    1.300739 A    
C13   H10   1.086921 S    
C17   C25   1.339215 D    
N5    O18   1.302912 A    
C20   C28   1.331435 D    
N1    N6    1.394975 S    
C10   N2    1.310565 D    
H3    C24   1.082839 S    
O3    C3    1.308035 A    
C4    C13   1.460571 S    
O15   C7    1.298037 A    
C13   C21   1.339216 D    
O16   C8    1.307456 A    
C23   C28   1.453819 S    
C14   C22   1.331434 D    
H6    C25   1.087704 S    
C18   H13   1.087541 S    
O25   C29   1.415088 S    
C30   H20   1.108753 S    
C17   H14   1.086922 S    
C14   H9    1.087541 S    
C18   C26   1.331434 D    
Cu4   N3    2.039121 S    
N6    O20   1.302908 A    
C36   H36   1.110484 S    
C15   H12   1.086921 S    
N8    O23   1.300134 A    
C16   H11   1.087540 S    
C11   N3    1.310565 D    
C9    C10   1.530183 S    
Cu1   N2    2.039121 S    
O3    Cu2   1.939612 S    
N7    O21   1.300136 A    
Cu1   Cu2   2.714363 S    
N4    N7    1.394978 S    
C31   H23   1.103102 S    
Cu3   Cu4   2.714363 S    
H4    C23   1.087704 S    
O12   C4    1.307456 A    
O1    Cu1   1.939611 S    
O13   C5    1.298037 A    
N7    O22   1.302911 A    
N2    N5    1.394978 S    
O11   Cu1   1.934926 S    
C20   H15   1.087541 S    
O9    Cu2   1.934928 S    
H1    C22   1.082838 S    
H7    C28   1.082839 S    
O9    C1    1.298037 A    
C33   H27   1.105776 S    
C32   H26   1.110483 S    
C29   H18   1.103103 S    
C10   O25   1.389313 S    
C19   C27   1.339215 D    
C29   C30   1.522173 S    
C31   C32   1.522172 S    
C15   C23   1.339216 D    
C34   H30   1.108752 S    
C30   H21   1.110486 S    
C8    C17   1.460571 S    
C16   C24   1.331434 D    
O7    Cu4   1.939612 S    
Cu2   N1    2.039121 S    
O12   Cu2   1.934929 S    
O8    Cu3   1.939613 S    
O1    C1    1.308034 A    
O4    Cu1   1.939613 S    
N6    O19   1.300134 A    
C7    C18   1.454504 S    
C21   C26   1.453818 S    
O15   Cu3   1.934926 S    
O16   Cu4   1.934929 S    
C33   C34   1.522172 S    
O28   C35   1.415089 S    
N3    N8    1.394976 S    
C9    O26   1.389312 S    
C24   C27   1.453819 S    
O2    Cu2   1.939612 S    
O14   C6    1.307456 A    
C36   H34   1.108938 S    
O10   Cu1   1.934928 S    
C31   H22   1.105778 S    
H2    C21   1.087704 S    
C35   H33   1.103103 S    
O10   C2    1.307456 A    
O7    C7    1.308035 A    
O8    C8    1.300739 A    
C19   H16   1.086922 S    
N5    O17   1.300136 A    
C33   H28   1.103105 S    
O4    C4    1.300739 A    
O5    C5    1.308034 A    
C12   N4    1.310565 D    
C32   H25   1.108752 S    
C29   H17   1.105777 S    
C11   C12   1.530183 S    
Cu3   N4    2.039121 S    
C34   H31   1.110486 S    
O26   C31   1.415089 S    
C35   C36   1.522172 S    
C5    C20   1.454505 S    
C9    N1    1.310565 D    
C6    C19   1.460573 S    
O5    Cu3   1.939611 S    
C22   C25   1.453819 S    
