data_mof_unit_62760.cif
_audit_creation_date              2013-03-05T16:13:44-0500
_audit_creation_method            fapswitch 2.2
_symmetry_space_group_name_H-M    P1
_symmetry_Int_Tables_number       1
_space_group_crystal_system       triclinic
_cell_length_a                    8.28851
_cell_length_b                    17.567855
_cell_length_c                    18.921624
_cell_angle_alpha                 100.909388
_cell_angle_beta                  92.943757
_cell_angle_gamma                 98.196249
_cell_volume                      2669.06353224

loop_
_atom_site_label
_atom_site_type_symbol
_atom_site_description
_atom_site_fract_x
_atom_site_fract_y
_atom_site_fract_z
_atom_type_partial_charge
P1    P     P_3+3 0.032830 0.432130 0.335280 0.502121
O1    O     O_2   0.865200 0.455450 0.325860 -0.395882
O2    O     O_3   0.117880 0.456770 0.413320 -0.337154
O3    O     O_3   0.657770 0.599920 0.378120 -0.381273
O4    O     O_2   0.787490 0.563738 0.254534 -0.369833
O5    O     O_3   0.986673 0.329831 0.320249 -0.559818
O6    O     O_3   0.600370 0.668613 0.255146 -0.519425
H1    H     H_    0.728366 0.735808 0.348741 0.116304
C1    C     C_3   0.601007 0.808331 0.290596 0.290446
P2    P     P_3+3 0.680690 0.682340 0.566920 0.470306
P3    P     P_3+3 0.132303 0.741849 0.429157 0.421024
O7    O     O_2   0.855570 0.693850 0.546560 -0.386570
O8    O     O_3   0.082050 0.640900 0.416060 -0.378295
O9    O     O_2   0.973679 0.774806 0.449346 -0.432121
O10   O     O_3   0.695595 0.714033 0.660977 -0.559608
O11   O     O_3   0.174555 0.765355 0.345000 -0.609330
C2    C     C_3   0.084250 0.706822 0.290407 0.328767
H2    H     H_    0.953654 0.698943 0.301293 0.139811
H3    H     H_    0.130723 0.650087 0.288054 0.078812
C3    C     C_3   0.094765 0.730221 0.216573 0.204090
H4    H     H_    0.075045 0.792653 0.223295 0.094372
C4    C     C_3   0.215422 0.709843 0.636160 0.409345
H5    H     H_    0.344753 0.717395 0.623377 0.074200
H6    H     H_    0.136286 0.679741 0.587117 0.137452
C5    C     C_3   0.166294 0.790337 0.661882 -0.968465
H7    H     H_    0.253233 0.824551 0.707191 0.259575
H8    H     H_    0.165533 0.823727 0.617903 0.217256
H9    H     H_    0.041374 0.783520 0.680696 0.275695
Ba1   Ba    Ba6+2 0.852650 0.537180 0.468240 1.583037
C6    C     C_3   0.939703 0.301864 0.246386 0.363738
H10   H     H_    0.044719 0.312541 0.213630 0.045852
H11   H     H_    0.839550 0.330785 0.227731 0.097720
C7    C     C_3   0.879186 0.214275 0.233693 -1.024452
H12   H     H_    0.975781 0.183313 0.252094 0.241401
H13   H     H_    0.844339 0.190936 0.175346 0.236273
H14   H     H_    0.771453 0.203262 0.264636 0.278032
C8    C     C_3   0.742972 0.656305 0.695277 0.384533
H15   H     H_    0.854646 0.636634 0.673177 0.099032
H16   H     H_    0.640010 0.607210 0.689652 0.095245
C9    C     C_3   0.781973 0.690939 0.775324 -0.980365
H17   H     H_    0.883214 0.741224 0.783106 0.270157
H18   H     H_    0.819792 0.646029 0.803887 0.206366
H19   H     H_    0.672216 0.711401 0.799135 0.272744
P4    P     P_3+3 0.156880 0.567940 0.664730 0.516688
O12   O     O_2   0.324510 0.544570 0.674190 -0.371445
O13   O     O_3   0.071830 0.543290 0.586690 -0.372838
O14   O     O_3   0.531950 0.400150 0.621890 -0.358599
O15   O     O_3   0.202862 0.670063 0.693303 -0.572800
P5    P     P_3+3 0.076601 0.255122 0.577950 0.493087
O16   O     O_3   0.606980 0.404400 0.458100 -0.371785
O17   O     O_3   0.107660 0.359170 0.583950 -0.326098
O18   O     O_2   0.199446 0.222178 0.526434 -0.387484
O19   O     O_3   0.145773 0.237177 0.661607 -0.477773
Ba2   Ba    Ba6+2 0.337190 0.462880 0.531770 1.590875
P6    P     P_3+3 0.622111 0.580593 0.283351 0.466689
C10   C     C_3   0.611808 0.730356 0.315566 0.225129
H20   H     H_    0.508872 0.719019 0.349417 0.040604
H21   H     H_    0.469314 0.810083 0.278983 0.134755
O20   O     O_3   0.582730 0.595670 0.541910 -0.393837
C11   C     C_3   0.351539 0.246278 0.302194 0.562738
H22   H     H_    0.253063 0.272872 0.330209 0.102806
C12   C     C_3   0.319223 0.157200 0.301137 -0.489042
H23   H     H_    0.215151 0.128902 0.261037 0.162573
H24   H     H_    0.279670 0.147628 0.354166 0.163573
P7    P     P_3+3 0.513641 0.302915 0.431256 0.460834
O21   O     O_2   0.334130 0.306180 0.453490 -0.346818
O22   O     O_3   0.507813 0.282024 0.336103 -0.575105
C13   C     C_3   0.105958 0.156815 0.664118 0.319947
H25   H     H_    0.129812 0.151361 0.721063 0.086005
H26   H     H_    0.974655 0.134744 0.650209 0.043139
C14   C     C_3   0.210257 0.104484 0.618200 -0.846960
H27   H     H_    0.335633 0.135683 0.618633 0.266706
H28   H     H_    0.215183 0.050171 0.639708 0.219752
H29   H     H_    0.158167 0.086833 0.561379 0.247892
P8    P     P_3+3 0.559580 0.413790 0.716793 0.535782
C15   C     C_3   0.686504 0.289044 0.728008 0.501860
O23   O     O_2   0.408980 0.446709 0.748177 -0.326320
O24   O     O_3   0.536015 0.318167 0.733706 -0.520024
H30   H     H_    0.756054 0.310161 0.684619 0.006197
H31   H     H_    0.767984 0.175760 0.706858 0.121308
C16   C     C_3   0.651673 0.199381 0.706430 -0.025375
H32   H     H_    0.594316 0.181611 0.650371 0.106306
N1    N     N_R   0.197785 0.520534 0.955810 -0.015600
N2    N     N_R   0.254575 0.517006 0.022359 -0.089393
C17   C     C_2   0.330915 0.475946 0.288354 0.234104
C18   C     C_3   0.456254 0.498699 0.237244 0.071313
C19   C     C_2   0.383032 0.512914 0.166554 -0.270204
C20   C     C_2   0.219092 0.503477 0.150322 0.043462
C21   C     C_2   0.109446 0.483098 0.207485 -0.384681
C22   C     C_1   0.170634 0.469156 0.269937 0.184484
N3    N     N_R   0.990027 0.508682 0.058984 -0.050715
N4    N     N_R   0.933582 0.512641 0.992237 -0.091126
C23   C     C_R   0.035489 0.518568 0.938410 0.232592
C24   C     C_R   0.152496 0.510571 0.075808 0.164356
C25   C     C_R   0.085042 0.539407 0.809793 0.348047
C26   C     C_R   0.034244 0.526561 0.734188 0.115956
C27   C     C_R   0.759784 0.472487 0.758399 0.047422
C28   C     C_R   0.804077 0.490352 0.834069 -0.026170
C29   C     C_R   0.972556 0.516982 0.860214 -0.132179
C30   C     C_R   0.875137 0.491282 0.710472 0.085418
H33   H     H_    0.467382 0.527258 0.127280 0.175930
H34   H     H_    0.978326 0.471834 0.194288 0.192813
C31   C     C_2   0.432660 0.722733 0.489249 -0.486978
C32   C     C_3   0.304511 0.776423 0.499785 0.042848
C33   C     C_2   0.377486 0.862387 0.506424 0.429336
C34   C     C_2   0.542484 0.883455 0.516598 -0.037754
C35   C     C_2   0.647864 0.821984 0.523418 -0.357212
C36   C     C_1   0.580169 0.748537 0.521304 0.365433
C37   C     C_R   0.808333 0.129369 0.523286 -0.321976
C38   C     C_R   0.864226 0.209856 0.538412 0.186969
C39   C     C_R   0.611734 0.232058 0.477437 0.217210
C40   C     C_R   0.549461 0.151919 0.470028 -0.308656
C41   C     C_R   0.645727 0.100369 0.495025 0.149260
C42   C     C_2   0.619159 0.967661 0.530473 0.215443
C43   C     C_2   0.577354 0.015805 0.486532 -0.173084
C44   C     C_R   0.762088 0.259194 0.517033 -0.200397
H35   H     H_    0.483380 0.992369 0.442659 0.145874
H36   H     H_    0.779162 0.838749 0.533822 0.186549
H37   H     H_    0.891036 0.089608 0.532169 0.136737
H38   H     H_    0.428041 0.129208 0.445222 0.153738
H39   H     H_    0.399474 0.661815 0.462003 0.190982
N5    N     N_2   0.664233 0.875892 0.347374 -0.138927
H40   H     H_    0.600024 0.921969 0.347510 0.164598
C45   C     C_3   0.839269 0.902025 0.356437 -0.860525
H41   H     H_    0.877174 0.934945 0.313814 0.256690
H42   H     H_    0.907321 0.851862 0.353532 0.270746
H43   H     H_    0.871738 0.941504 0.409984 0.247635
N6    N     N_2   0.334885 0.260577 0.228881 -0.128549
H44   H     H_    0.233923 0.228388 0.197323 0.135501
C46   C     C_3   0.479280 0.269359 0.189727 -0.836687
H45   H     H_    0.444720 0.278576 0.134839 0.224942
H46   H     H_    0.537945 0.215860 0.184394 0.262822
H47   H     H_    0.565091 0.321949 0.217588 0.253950
N7    N     N_2   0.462100 0.120312 0.284120 -0.065556
H48   H     H_    0.561542 0.141967 0.320944 0.213110
C47   C     C_3   0.431691 0.035472 0.268156 -0.854338
H49   H     H_    0.546740 0.012748 0.254146 0.251159
H50   H     H_    0.339474 0.013722 0.221338 0.258654
H51   H     H_    0.387464 0.012915 0.315882 0.234153
O25   O     O_3   0.676804 0.812937 0.226305 -0.701992
H52   H     H_    0.786019 0.796966 0.231553 0.340697
N8    N     N_2   0.254121 0.722099 0.190334 -0.104176
H53   H     H_    0.284886 0.666788 0.186621 0.209667
C48   C     C_3   0.291073 0.755540 0.127729 -0.804522
H54   H     H_    0.420519 0.752406 0.116803 0.283693
H55   H     H_    0.273951 0.818149 0.137553 0.234662
H56   H     H_    0.211618 0.722131 0.079566 0.247534
N9    N     N_2   0.783115 0.312190 0.797142 -0.127010
H57   H     H_    0.734320 0.287275 0.838028 0.214252
C49   C     C_3   0.958256 0.315064 0.796237 -0.943224
H58   H     H_    0.989021 0.254827 0.785729 0.255296
H59   H     H_    0.018041 0.346242 0.849747 0.262809
H60   H     H_    0.006566 0.347499 0.754863 0.276178
O26   O     O_3   0.553757 0.166724 0.754836 -0.719505
H61   H     H_    0.440836 0.176146 0.744098 0.362982
O27   O     O_3   0.239860 0.576838 0.837270 -0.716701
H62   H     H_    0.298629 0.598792 0.799946 0.357632
N10   N     N_2   0.677295 0.495720 0.882229 -0.077486
H63   H     H_    0.696511 0.545771 0.922032 0.188948
C50   C     C_3   0.612893 0.425738 0.907749 -0.748546
H64   H     H_    0.530727 0.441003 0.951062 0.226881
H65   H     H_    0.712705 0.399111 0.930023 0.218925
H66   H     H_    0.538914 0.382517 0.863819 0.277128
O28   O     O_3   0.383837 0.446239 0.346544 -0.685711
H67   H     H_    0.503326 0.446574 0.345678 0.353925
O29   O     O_3   0.831629 0.478802 0.638186 -0.729477
H68   H     H_    0.737826 0.506147 0.631309 0.323275
N11   N     N_2   0.729798 0.997267 0.592948 -0.130449
H69   H     H_    0.837062 0.973871 0.590298 0.153334
C51   C     C_3   0.657784 0.994447 0.660578 -0.830792
H70   H     H_    0.747336 0.025871 0.705992 0.248542
H71   H     H_    0.624443 0.932653 0.666848 0.245662
H72   H     H_    0.546794 0.023334 0.662903 0.282771
O30   O     O_3   0.278791 0.920123 0.512257 -0.775691
H73   H     H_    0.164685 0.895578 0.514576 0.330954
N12   N     N_2   0.821165 0.338301 0.530336 -0.130175
H74   H     H_    0.740192 0.372986 0.550556 0.252177
C52   C     C_3   0.912720 0.361353 0.474015 -0.441136
H75   H     H_    0.972134 0.420810 0.497543 0.286144
H76   H     H_    0.835861 0.357691 0.424281 0.225830
H77   H     H_    0.007057 0.323576 0.458778 0.221738
O31   O     O_3   0.972497 0.681075 0.167849 -0.716140
H78   H     H_    0.943292 0.711205 0.130963 0.337505

loop_
_geom_bond_atom_site_label_1
_geom_bond_atom_site_label_2
_geom_bond_distance
_ccdc_geom_bond_type
C4    O15   1.394676 S    
C19   C20   1.357148 D    
P1    C22   1.869234 S    
H31   C16   1.102812 S    
C21   H34   1.083856 S    
P2    C36   1.836826 S    
C25   C26   1.436507 A    
C15   H30   1.116642 S    
O6    P6    1.757941 S    
P3    C32   1.855228 S    
N6    H44   1.030800 S    
H1    C10   1.106852 S    
C42   C43   1.358985 D    
C17   C18   1.518354 S    
C5    H9    1.109855 S    
P5    C38   1.879114 S    
O16   Ba2   2.903815 S    
C34   C42   1.492976 S    
O1    Ba1   2.817369 S    
C4    H6    1.106280 S    
O8    Ba1   2.792169 S    
O28   H67   0.990557 S    
C15   O24   1.415660 S    
P1    O1    1.514777 D    
C8    C9    1.521052 S    
P2    O10   1.753675 S    
C48   H56   1.111023 S    
C6    H10   1.108972 S    
O7    Ba1   2.864548 S    
O2    Ba2   2.788166 S    
C25   C29   1.436521 A    
P7    O22   1.764815 S    
Ba1   Ba2   4.568449 S    
N1    C23   1.362381 A    
C27   C28   1.423529 A    
P8    C27   1.872793 S    
C7    H14   1.106750 S    
C10   H20   1.110781 S    
C30   O29   1.364620 S    
C25   O27   1.382330 S    
O2    Ba1   2.910783 S    
O19   C13   1.413672 S    
O30   H73   0.988681 S    
O10   C8    1.392995 S    
C12   H24   1.106568 S    
C2    H3    1.112755 S    
C19   H33   1.085599 S    
C9    H19   1.110781 S    
P7    C39   1.897741 S    
C51   H70   1.110058 S    
C28   N10   1.427448 S    
C11   O22   1.419138 S    
C13   H25   1.109891 S    
C43   H35   1.085428 S    
C49   H60   1.110809 S    
C35   C36   1.324030 D    
N12   H74   1.011359 S    
C39   C44   1.393254 A    
C23   C29   1.537224 S    
C35   H36   1.083727 S    
O3    Ba1   2.769087 S    
C6    C7    1.518119 S    
C37   C41   1.410339 A    
Ba1   O16   2.839108 S    
C20   C21   1.509561 S    
N11   C51   1.445782 S    
N10   C50   1.446952 S    
C1    N5    1.455927 S    
O6    C10   1.408072 S    
C47   H51   1.111288 S    
C32   C33   1.523899 S    
P8    O24   1.754685 S    
P4    O13   1.558506 S    
C52   H75   1.089289 S    
Ba2   O20   2.838588 S    
C20   C24   1.521269 S    
C44   N12   1.376737 S    
P1    O5    1.748263 S    
C50   H66   1.104292 S    
C3    N8    1.451106 S    
C11   N6    1.458976 S    
O25   H52   0.990838 S    
C47   H50   1.110880 S    
P3    O9    1.547477 D    
C40   H38   1.076301 S    
C18   C19   1.518564 S    
O11   C2    1.408474 S    
N7    C47   1.445995 S    
P5    O17   1.790158 S    
C5    H7    1.110649 S    
C4    C5    1.525260 S    
C16   H32   1.108681 S    
C16   O26   1.403274 S    
C11   H22   1.106754 S    
P1    O2    1.558501 S    
C50   H65   1.109061 S    
C46   H46   1.108799 S    
C8    H15   1.107839 S    
P4    C26   1.891317 S    
P3    O11   1.758913 S    
N1    N2    1.337163 A    
P5    O18   1.542174 D    
O13   Ba2   2.911691 S    
C12   H23   1.111151 S    
P1    Ba1   3.373405 S    
C2    H2    1.106464 S    
C1    C10   1.543814 S    
N2    C24   1.362122 A    
N9    H57   1.031249 S    
P8    O23   1.548283 D    
O26   H61   0.990982 S    
C31   C36   1.315274 D    
P2    O7    1.514465 D    
O14   Ba2   2.768379 S    
C48   H55   1.111000 S    
C9    H17   1.110375 S    
O5    C6    1.405679 S    
C1    H21   1.108237 S    
O12   Ba2   2.817957 S    
P7    O21   1.572752 D    
C33   O30   1.383345 S    
C45   H43   1.110319 S    
O3    P6    1.762004 S    
C11   C12   1.545701 S    
N10   H63   1.030933 S    
C1    O25   1.407961 S    
C49   H59   1.109887 S    
C46   H47   1.107757 S    
N5    C45   1.449034 S    
C31   H39   1.086013 S    
C38   C44   1.392251 A    
N3    N4    1.341862 A    
C27   C30   1.399252 A    
P4    O12   1.515243 D    
C37   H37   1.074807 S    
C3    O31   1.405589 S    
N11   H69   1.030942 S    
C39   C40   1.406712 A    
N8    H53   1.029954 S    
C2    C3    1.532327 S    
O4    P6    1.547687 D    
N9    C49   1.446420 S    
C48   H54   1.110054 S    
N6    C46   1.444549 S    
C15   C16   1.531684 S    
C14   H29   1.107469 S    
C52   H76   1.095155 S    
C17   C22   1.338686 D    
C42   N11   1.424375 S    
N7    H48   1.029962 S    
Ba2   O21   2.864569 S    
C5    H8    1.105382 S    
C33   C34   1.358678 D    
C49   H58   1.107672 S    
Ba1   O13   2.787516 S    
O17   Ba2   2.792712 S    
C50   H64   1.110678 S    
C45   H42   1.106514 S    
P6    C18   1.886430 S    
C46   H45   1.110508 S    
C21   C22   1.340515 D    
O14   P8    1.764579 S    
C14   H27   1.102454 S    
C8    H16   1.108859 S    
P4    O15   1.753008 S    
C37   C38   1.393655 A    
N3    C24   1.362011 A    
C6    H11   1.109007 S    
P3    O8    1.729874 S    
P2    Ba1   3.395363 S    
C12   N7    1.450879 S    
O29   H68   0.985883 S    
C51   H71   1.111536 S    
C13   C14   1.532586 S    
P5    O19   1.755273 S    
C26   C30   1.387631 A    
C9    H18   1.107860 S    
N4    C23   1.365661 A    
C7    H13   1.110211 S    
C7    H12   1.106938 S    
P2    O20   1.592745 S    
C40   C41   1.417707 A    
O16   P7    1.805202 S    
C52   H77   1.110695 S    
P4    Ba2   3.374092 S    
O27   H62   0.984716 S    
C3    H4    1.116385 S    
C15   N9    1.454647 S    
C13   H26   1.102558 S    
C28   C29   1.438334 A    
C34   C35   1.501961 S    
C14   H28   1.110902 S    
C31   C32   1.514542 S    
C17   O28   1.382120 S    
Ba1   O20   2.904790 S    
C4    H5    1.106089 S    
C45   H41   1.111025 S    
N5    H40   1.029894 S    
N8    C48   1.446222 S    
C47   H49   1.110602 S    
O31   H78   0.992441 S    
N12   C52   1.426310 S    
C41   C43   1.488037 S    
C51   H72   1.111120 S    
