data_mof_unit_23279.cif
_audit_creation_date              2012-10-26T19:58:20-0400
_audit_creation_method            fapswitch 2.2
_symmetry_space_group_name_H-M    P1
_symmetry_Int_Tables_number       1
_space_group_crystal_system       triclinic
_cell_length_a                    7.454191
_cell_length_b                    8.691011
_cell_length_c                    13.40182
_cell_angle_alpha                 94.425373
_cell_angle_beta                  77.628078
_cell_angle_gamma                 103.24538
_cell_volume                      825.146737255

loop_
_atom_site_label
_atom_site_type_symbol
_atom_type_description
_atom_site_fract_x
_atom_site_fract_y
_atom_site_fract_z
_atom_type_partial_charge
C1    C     C_R   0.545321 0.800181 0.503186 0.543134
C2    C     C_R   0.337555 0.494562 0.806462 -0.004714
C3    C     C_2   0.570664 0.968204 0.504778 -0.158480
C4    C     C_R   0.399870 0.497847 0.694380 0.531534
C5    C     C_2   0.429032 0.031773 0.495747 -0.150728
C6    C     C_R   0.454545 0.199816 0.497056 0.540415
C7    C     C_R   0.601151 0.510987 0.306042 0.535312
C8    C     C_R   0.877418 0.676794 0.054546 -0.128709
C9    C     C_R   0.661268 0.536556 0.196143 -0.005295
C10   C     C_R   0.153468 0.414752 0.847495 -0.128524
C11   C     C_R   0.099241 0.384030 0.950944 -0.138491
C12   C     C_R   0.417016 0.506513 0.975621 0.030163
C13   C     C_R   0.229412 0.425899 0.014210 -0.124530
C14   C     C_R   0.465159 0.553480 0.872532 0.026452
C15   C     C_R   0.557945 0.543828 0.036008 0.026768
C16   C     C_R   0.737464 0.638925 0.995738 0.046390
C17   C     C_R   0.773605 0.699064 0.898405 -0.135300
C18   C     C_R   0.638379 0.659531 0.838515 -0.115492
C19   C     C_R   0.526285 0.489376 0.135372 -0.132659
C20   C     C_R   0.839160 0.626572 0.154652 -0.142236
Cu1   Cu    Cu3+1 0.321300 0.483160 0.488710 1.021862
Cu2   Cu    Cu3+1 0.678700 0.516840 0.511290 0.976935
H1    H     H_    0.945133 0.664061 0.200809 0.132144
H2    H     H_    0.669656 0.716728 0.766199 0.126475
H3    H     H_    0.707015 0.039916 0.513292 0.131360
H4    H     H_    0.929871 0.700138 0.629077 0.322135
H5    H     H_    0.292659 0.960053 0.487275 0.149313
H6    H     H_    0.988993 0.381245 0.420715 0.192589
H7    H     H_    0.906908 0.777643 0.868446 0.114170
H8    H     H_    0.014725 0.749040 0.024002 0.118452
H9    H     H_    0.395518 0.412267 0.168727 0.114763
H10   H     H_    0.052388 0.371646 0.798996 0.147152
H11   H     H_    0.176999 0.396747 0.093331 0.104100
H12   H     H_    0.956379 0.323119 0.981924 0.129244
N1    N     N_2   0.947230 0.542220 0.528320 0.024545
N2    N     N_2   0.052770 0.457780 0.471680 -0.171274
O1    O     O_R   0.383920 0.714220 0.492660 -0.443091
O2    O     O_R   0.685730 0.742660 0.511730 -0.521302
O3    O     O_R   0.275440 0.478800 0.636790 -0.448594
O4    O     O_R   0.577250 0.507240 0.655860 -0.515446
O5    O     O_R   0.314270 0.257340 0.488270 -0.508292
O6    O     O_R   0.616080 0.285780 0.507340 -0.516551
O7    O     O_R   0.422750 0.492760 0.344140 -0.513963
O8    O     O_R   0.724560 0.521200 0.363210 -0.521607
O9    O     O_3   0.027637 0.642723 0.595013 -0.560131

loop_
_geom_bond_atom_site_label_1
_geom_bond_atom_site_label_2
_ccdc_geom_bond_type
C2    C4    S    
C4    O3    A    
N1    O9    S    
C13   H11   S    
C7    O7    A    
C17   H7    S    
C14   C18   A    
C9    C20   A    
N1    N2    D    
Cu1   O3    S    
C12   C15   A    
C1    O1    A    
Cu2   O4    S    
C8    H8    S    
C17   C18   A    
C19   H9    S    
C8    C16   A    
Cu1   N2    S    
C5    H5    S    
C7    O8    A    
C15   C19   A    
Cu2   N1    S    
C11   C13   A    
Cu2   O6    S    
C1    O2    A    
C8    C20   A    
Cu1   O5    S    
Cu1   Cu2   S    
C12   C14   A    
C5    C6    S    
C2    C14   A    
C18   H2    S    
C10   C11   A    
C15   C16   A    
Cu2   O2    S    
C10   H10   S    
C3    H3    S    
Cu1   O1    S    
C12   C13   A    
H6    N2    S    
C6    O6    A    
C7    C9    S    
H4    O9    S    
C3    C5    D    
Cu1   O7    S    
C20   H1    S    
C9    C19   A    
C11   H12   S    
Cu2   O8    S    
C4    O4    A    
C16   C17   A    
C1    C3    S    
C6    O5    A    
C2    C10   A    
