data_mof_unit_17684.cif
_audit_creation_date              2012-12-10T17:45:21-0500
_audit_creation_method            fapswitch 2.2
_symmetry_space_group_name_H-M    P1
_symmetry_Int_Tables_number       1
_space_group_crystal_system       triclinic
_cell_length_a                    15.013808
_cell_length_b                    13.675729
_cell_length_c                    23.537681
_cell_angle_alpha                 90.265035
_cell_angle_beta                  89.941668
_cell_angle_gamma                 90.313922
_cell_volume                      4832.74229988

loop_
_atom_site_label
_atom_site_type_symbol
_atom_type_description
_atom_site_fract_x
_atom_site_fract_y
_atom_site_fract_z
_atom_type_partial_charge
C1    C     C_R   0.328679 0.499787 0.500432 0.819532
C2    C     C_R   0.671353 0.500315 0.500506 0.816032
C3    C     C_R   0.542293 0.580029 0.240678 -0.096421
C4    C     C_R   0.463770 0.583146 0.759773 -0.093725
C5    C     C_R   0.541997 0.576795 0.299789 -0.301785
C6    C     C_R   0.462973 0.579315 0.700668 -0.297316
C7    C     C_R   0.500219 0.499234 0.328441 -0.127419
C8    C     C_R   0.501581 0.500348 0.671577 -0.126561
C9    C     C_R   0.460317 0.422509 0.296929 0.402050
C10   C     C_R   0.539687 0.422981 0.702705 0.398172
C11   C     C_R   0.459115 0.427936 0.237437 -0.206049
C12   C     C_R   0.541515 0.428579 0.762172 -0.212240
C13   C     C_R   0.500617 0.505770 0.209265 0.301924
C14   C     C_R   0.502964 0.507734 0.790813 0.301480
C15   C     C_R   0.814329 0.573462 0.472221 -0.230401
C16   C     C_R   0.185784 0.429827 0.532322 -0.234980
C17   C     C_R   0.767847 0.501649 0.502211 -0.066290
C18   C     C_R   0.232206 0.499828 0.500945 -0.065802
C19   C     C_R   0.813140 0.432911 0.534901 -0.248750
C20   C     C_R   0.186913 0.572142 0.471160 -0.235357
C21   C     C_R   0.906313 0.435015 0.537986 0.056987
C22   C     C_R   0.093754 0.573705 0.470492 0.060860
C23   C     C_R   0.499466 0.499663 0.390902 0.842251
C24   C     C_R   0.501015 0.500030 0.609101 0.839665
C25   C     C_R   0.953364 0.503991 0.504377 0.049418
C26   C     C_R   0.046702 0.503207 0.503001 0.044758
C27   C     C_R   0.906967 0.574411 0.472421 0.100771
C28   C     C_R   0.093134 0.432215 0.534527 0.112693
C29   C     C_R   0.953808 0.369465 0.573039 -0.019564
C30   C     C_R   0.046503 0.644929 0.439316 -0.008527
C31   C     C_R   0.046815 0.366876 0.569430 -0.260147
C32   C     C_R   0.953450 0.644577 0.440844 -0.254804
C33   C     C_R   0.445933 0.793220 0.536755 0.065750
C34   C     C_R   0.557944 0.207112 0.465745 0.026592
C35   C     C_R   0.553058 0.793242 0.462694 0.058196
C36   C     C_R   0.440364 0.206934 0.533007 0.030903
C37   C     C_R   0.554141 0.896588 0.461458 -0.106467
C38   C     C_R   0.439178 0.103746 0.534248 -0.117639
C39   C     C_R   0.443404 0.896594 0.537167 -0.105472
C40   C     C_R   0.558158 0.103910 0.463788 -0.112910
C41   C     C_R   0.499069 0.948425 0.499442 -0.058398
C42   C     C_R   0.499109 0.051952 0.499363 -0.067561
C43   C     C_R   0.607082 0.948770 0.422214 0.344317
C44   C     C_R   0.378812 0.051820 0.568873 0.337169
C45   C     C_R   0.386692 0.948801 0.574241 0.345357
C46   C     C_R   0.614725 0.052100 0.426625 0.330331
C47   C     C_R   0.582521 0.510800 0.880246 0.523241
C48   C     C_R   0.421407 0.516082 0.120000 0.524575
C49   C     C_R   0.423596 0.510057 0.880256 0.535322
C50   C     C_R   0.579759 0.501493 0.119854 0.535728
C51   C     C_R   0.421860 0.510802 0.939726 -0.021179
C52   C     C_R   0.581552 0.502147 0.060376 -0.021788
C53   C     C_R   0.502560 0.507186 0.970007 -0.028718
C54   C     C_R   0.500862 0.506916 0.030127 -0.029268
C55   C     C_R   0.584685 0.503673 0.940208 -0.061758
C56   C     C_R   0.418729 0.511284 0.059925 -0.061226
C57   C     C_R   0.340774 0.512711 0.969097 -0.220168
C58   C     C_R   0.662422 0.495529 0.030936 -0.219828
C59   C     C_R   0.337871 0.511880 0.028429 -0.017149
C60   C     C_R   0.665189 0.494590 0.971560 -0.014420
Cu1   Cu    Cu3+1 0.500000 0.597420 0.500000 0.939122
Cu2   Cu    Cu3+1 0.500000 0.402580 0.500000 0.950809
H1    H     H_    0.278486 0.513150 0.945795 0.185149
H2    H     H_    0.724375 0.488727 0.054207 0.184418
H3    H     H_    0.083519 0.316061 0.595687 0.152100
H4    H     H_    0.917158 0.698678 0.416656 0.154661
H5    H     H_    0.403995 0.751587 0.565297 0.164220
H6    H     H_    0.602914 0.248976 0.439298 0.161206
H7    H     H_    0.594893 0.751679 0.434075 0.158431
H8    H     H_    0.394702 0.248625 0.559013 0.157907
H9    H     H_    0.574680 0.640427 0.219234 0.149796
H10   H     H_    0.433898 0.644775 0.781493 0.154881
H11   H     H_    0.575573 0.634341 0.323251 0.166874
H12   H     H_    0.430984 0.637505 0.677537 0.167762
H13   H     H_    0.425514 0.371487 0.212991 0.144944
H14   H     H_    0.573239 0.371094 0.786217 0.142217
H15   H     H_    0.778182 0.627009 0.447520 0.146678
H16   H     H_    0.222062 0.375848 0.556578 0.138576
H17   H     H_    0.775123 0.378441 0.557938 0.162374
H18   H     H_    0.225318 0.626385 0.448279 0.166615
N1    N     N_R   0.502998 0.510496 0.851848 -0.452182
N2    N     N_R   0.500682 0.508645 0.148279 -0.453278
N3    N     N_R   0.500000 0.743810 0.500000 -0.204910
N4    N     N_R   0.500000 0.256190 0.500000 -0.198579
O1    O     O_R   0.370260 0.582280 0.500010 -0.586485
O2    O     O_R   0.629740 0.417720 0.499990 -0.591004
O3    O     O_R   0.629740 0.582280 0.499990 -0.585708
O4    O     O_R   0.370260 0.417720 0.500010 -0.588661
O5    O     O_R   0.499980 0.582290 0.417880 -0.597892
O6    O     O_R   0.500020 0.417710 0.582120 -0.561655
O7    O     O_R   0.500020 0.582290 0.582120 -0.594369
O8    O     O_R   0.499980 0.417710 0.417880 -0.558214
O9    O     O_2   0.658617 0.520697 0.850300 -0.537847
O10   O     O_2   0.346235 0.530314 0.150242 -0.536568
O11   O     O_2   0.346381 0.508097 0.850912 -0.557093
O12   O     O_2   0.656515 0.492965 0.149205 -0.556274
O13   O     O_3   0.652196 0.897885 0.380127 -0.632439
C61   C     C_3   0.611498 0.913836 0.326569 0.063697
H19   H     H_    0.654590 0.879064 0.293928 0.169773
H20   H     H_    0.608661 0.992828 0.315714 0.173158
C62   C     C_3   0.517801 0.867840 0.322603 -0.400443
H21   H     H_    0.519737 0.791137 0.337524 0.231439
H22   H     H_    0.470767 0.908985 0.350139 0.212160
C63   C     C_3   0.482514 0.869545 0.261873 -0.903656
H23   H     H_    0.478773 0.946004 0.246359 0.246778
H24   H     H_    0.414687 0.836776 0.260702 0.262684
H25   H     H_    0.526544 0.826520 0.233352 0.255669
O14   O     O_3   0.314043 0.102889 0.598576 -0.642494
C64   C     C_3   0.229056 0.085140 0.574214 0.065024
H26   H     H_    0.178742 0.118148 0.603038 0.165237
H27   H     H_    0.213096 0.005649 0.571793 0.175309
C65   C     C_3   0.219755 0.132201 0.515240 -0.390093
H28   H     H_    0.241523 0.209846 0.517168 0.231737
H29   H     H_    0.262656 0.092928 0.484306 0.213017
C66   C     C_3   0.123990 0.127524 0.493902 -0.932055
H30   H     H_    0.099024 0.050929 0.494001 0.249758
H31   H     H_    0.120895 0.156103 0.449870 0.263554
H32   H     H_    0.080591 0.173115 0.521220 0.261279
O15   O     O_3   0.336752 0.897874 0.614014 -0.630591
C67   C     C_3   0.367244 0.919689 0.669703 0.064704
H33   H     H_    0.319890 0.884768 0.699807 0.172753
H34   H     H_    0.365723 0.999398 0.679200 0.172324
C68   C     C_3   0.460918 0.878950 0.680891 -0.400409
H35   H     H_    0.463605 0.801286 0.667432 0.228604
H36   H     H_    0.511036 0.920454 0.655785 0.208735
C69   C     C_3   0.485583 0.886652 0.743607 -0.907321
H37   H     H_    0.484611 0.964289 0.757686 0.248353
H38   H     H_    0.553614 0.857315 0.750104 0.265768
H39   H     H_    0.438138 0.843524 0.769821 0.255317
O16   O     O_3   0.671546 0.103229 0.390934 -0.642558
C70   C     C_3   0.761123 0.090063 0.407963 0.084737
H40   H     H_    0.802826 0.090852 0.368950 0.171060
H41   H     H_    0.773929 0.018598 0.429102 0.151946
C71   C     C_3   0.790972 0.174333 0.446749 -0.375211
H42   H     H_    0.777942 0.245222 0.425461 0.233235
H43   H     H_    0.752442 0.172287 0.487081 0.214337
C72   C     C_3   0.890045 0.167614 0.460426 -0.916265
H44   H     H_    0.904106 0.099287 0.484044 0.251795
H45   H     H_    0.910135 0.230986 0.487072 0.269203
H46   H     H_    0.930221 0.168882 0.420783 0.259402
C73   C     C_R   0.248460 0.505798 0.054772 0.177365
C74   C     C_R   0.189193 0.584496 0.050460 -0.137872
C75   C     C_R   0.103458 0.577183 0.073385 -0.138746
C76   C     C_R   0.076270 0.491219 0.100398 -0.100269
C77   C     C_R   0.134679 0.412291 0.104385 -0.128024
C78   C     C_R   0.220393 0.419198 0.081395 -0.081108
H47   H     H_    0.209427 0.651238 0.029348 0.125915
H48   H     H_    0.058000 0.638036 0.070059 0.129027
H49   H     H_    0.009854 0.485650 0.118057 0.134260
H50   H     H_    0.113407 0.345613 0.125080 0.127569
H51   H     H_    0.264882 0.357333 0.084265 0.113672
C79   C     C_R   0.753115 0.476907 0.944853 0.178755
C80   C     C_R   0.822942 0.544592 0.952099 -0.140855
C81   C     C_R   0.906583 0.526450 0.928185 -0.128839
C82   C     C_R   0.921123 0.440612 0.897135 -0.096922
C83   C     C_R   0.852221 0.372439 0.890244 -0.139301
C84   C     C_R   0.768644 0.390005 0.914373 -0.082468
H52   H     H_    0.812471 0.611293 0.976123 0.125131
H53   H     H_    0.960159 0.578890 0.933773 0.131137
H54   H     H_    0.985857 0.426779 0.878582 0.134135
H55   H     H_    0.863647 0.305846 0.866355 0.123591
H56   H     H_    0.715920 0.336340 0.909140 0.110380
O17   O     O_3   0.413033 0.349013 0.324015 -0.580010
C85   C     C_3   0.457225 0.258408 0.317151 0.111414
H57   H     H_    0.507649 0.250129 0.351230 0.164396
H58   H     H_    0.492406 0.250955 0.275603 0.078339
C86   C     C_3   0.389781 0.174289 0.320543 -0.360514
H59   H     H_    0.340613 0.181473 0.285557 0.212531
H60   H     H_    0.425365 0.103852 0.314691 0.169279
C87   C     C_3   0.340464 0.172014 0.377275 -0.741727
H61   H     H_    0.388182 0.162628 0.412647 0.244397
H62   H     H_    0.293017 0.109436 0.377528 0.208750
H63   H     H_    0.302386 0.240499 0.383989 0.283008
O18   O     O_3   0.584474 0.348084 0.675348 -0.584763
C88   C     C_3   0.535952 0.259458 0.680763 0.103914
H64   H     H_    0.484917 0.254768 0.646792 0.159976
H65   H     H_    0.500872 0.252289 0.722356 0.078924
C89   C     C_3   0.598995 0.172305 0.675637 -0.362824
H66   H     H_    0.646229 0.173779 0.711895 0.206700
H67   H     H_    0.559456 0.103513 0.678293 0.168656
C90   C     C_3   0.651366 0.172238 0.619958 -0.710362
H68   H     H_    0.605453 0.167697 0.583393 0.240549
H69   H     H_    0.695955 0.107786 0.618565 0.215802
H70   H     H_    0.692660 0.239432 0.616116 0.280861
C91   C     C_R   0.909664 0.309050 0.617253 0.105076
C92   C     C_R   0.859530 0.354258 0.660425 -0.137801
C93   C     C_R   0.823685 0.298796 0.704747 -0.100498
C94   C     C_R   0.837902 0.197972 0.706483 -0.127941
C95   C     C_R   0.887105 0.152316 0.663597 -0.135233
C96   C     C_R   0.923194 0.207535 0.619263 -0.164982
H71   H     H_    0.849497 0.432627 0.660236 0.143493
H72   H     H_    0.785314 0.334037 0.737910 0.155338
H73   H     H_    0.810503 0.155150 0.740943 0.118273
H74   H     H_    0.897775 0.074157 0.664899 0.130299
H75   H     H_    0.962007 0.171194 0.586830 0.123267
C97   C     C_R   0.092198 0.720192 0.404575 0.108786
C98   C     C_R   0.087561 0.819333 0.420105 -0.142615
C99   C     C_R   0.132825 0.890011 0.388223 -0.141722
C100  C     C_R   0.182517 0.862283 0.340610 -0.113286
C101  C     C_R   0.186487 0.763899 0.324496 -0.122119
C102  C     C_R   0.141187 0.693018 0.356157 -0.154022
H76   H     H_    0.049907 0.841606 0.457205 0.125341
H77   H     H_    0.129663 0.966260 0.400461 0.133497
H78   H     H_    0.217840 0.917041 0.316172 0.124802
H79   H     H_    0.224852 0.742533 0.287554 0.144864
H80   H     H_    0.144993 0.616945 0.343407 0.142342

loop_
_geom_bond_atom_site_label_1
_geom_bond_atom_site_label_2
_ccdc_geom_bond_type
C16   C28   A    
C10   O18   S    
C62   H21   S    
C41   C42   A    
C53   C55   A    
O17   C85   S    
C70   C71   S    
Cu1   O5    S    
C71   C72   S    
C65   H29   S    
C77   C78   A    
C91   C96   A    
C86   H60   S    
C53   C54   A    
C67   H33   S    
C40   C46   A    
Cu2   O2    S    
C33   H5    S    
C1    C18   S    
C101  H79   S    
C48   O10   S    
C34   C40   A    
C47   C55   A    
C83   C84   A    
C35   C37   A    
C38   C42   A    
C64   H27   S    
C67   H34   S    
C89   H67   S    
C68   H36   S    
C87   H61   S    
C58   C60   A    
C75   C76   A    
O13   C61   S    
C80   H52   S    
O14   C64   S    
C31   H3    S    
C60   C79   S    
C2    O2    A    
C49   N1    A    
C92   H71   S    
C9    O17   S    
O18   C88   S    
C65   H28   S    
Cu2   N4    S    
Cu1   O3    S    
C17   C19   A    
C95   H74   S    
C30   C97   S    
C52   C54   A    
C101  C102  A    
C49   C51   A    
Cu2   O8    S    
C50   C52   A    
C102  H80   S    
C23   O5    A    
C57   H1    S    
C99   C100  A    
C51   C57   A    
C88   C89   S    
C18   C20   A    
C77   H50   S    
C3    C13   A    
C67   C68   S    
C39   C45   A    
C45   O15   S    
C1    O4    A    
C40   C42   A    
C82   H54   S    
C100  C101  A    
C62   H22   S    
C55   C60   A    
C2    C17   S    
C1    O1    A    
C63   H25   S    
C99   H77   S    
C98   C99   A    
C34   N4    A    
C85   C86   S    
C63   H24   S    
C63   H23   S    
C36   H8    S    
C6    H12   S    
C86   C87   S    
C44   O14   S    
C58   H2    S    
C75   H48   S    
C52   C58   A    
C72   H46   S    
C54   C56   A    
C20   H18   S    
C89   C90   S    
C89   H66   S    
C68   H35   S    
C88   H65   S    
Cu1   N3    S    
C90   H69   S    
C34   H6    S    
C86   H59   S    
C5    C7    A    
C35   N3    A    
C97   C98   A    
C68   C69   S    
C71   H43   S    
C69   H39   S    
C66   H31   S    
C25   C26   A    
C90   H68   S    
Cu2   O4    S    
C13   N2    S    
C94   C95   A    
C51   C53   A    
C37   C43   A    
C3    H9    S    
C38   C44   A    
C76   H49   S    
C9    C11   A    
C15   C27   A    
C88   H64   S    
C48   N2    A    
C66   H32   S    
C93   H72   S    
C2    O3    A    
C16   C18   A    
C33   C39   A    
C49   O11   S    
C19   H17   S    
C33   N3    A    
C59   C73   S    
C81   C82   A    
C10   C12   A    
C96   H75   S    
C73   C78   A    
C4    C6    A    
C12   C14   A    
C83   H55   S    
C61   H19   S    
C62   C63   S    
C61   H20   S    
C12   H14   S    
C100  H78   S    
C64   C65   S    
C70   H40   S    
C24   O7    A    
C3    C5    A    
C4    H10   S    
C44   C45   A    
C50   N2    A    
C32   H4    S    
C90   H70   S    
C95   C96   A    
C48   C56   A    
C21   C25   A    
C79   C84   A    
C85   H57   S    
C69   H38   S    
C22   C30   A    
C19   C21   A    
C27   C32   A    
C72   H45   S    
C74   H47   S    
C28   C31   A    
C39   C41   A    
C43   O13   S    
C20   C22   A    
C76   C77   A    
C70   H41   S    
C24   O6    A    
C46   O16   S    
C6    C8    A    
O15   C67   S    
C15   C17   A    
C71   H42   S    
C25   C27   A    
C61   C62   S    
C5    H11   S    
C72   H44   S    
C26   C28   A    
C56   C59   A    
C98   H76   S    
C85   H58   S    
Cu1   O1    S    
C97   C102  A    
C81   H53   S    
C29   C31   A    
C4    C14   A    
C11   H13   S    
C73   C74   A    
C30   C32   A    
C11   C13   A    
C50   O12   S    
C91   C92   A    
C15   H15   S    
C21   C29   A    
C36   N4    A    
C69   H37   S    
C7    C23   S    
Cu2   O6    S    
C36   C38   A    
C8    C24   S    
C29   C91   S    
O16   C70   S    
C16   H16   S    
C47   N1    A    
C37   C41   A    
Cu1   Cu2   S    
C43   C46   A    
C47   O9    S    
C57   C59   A    
C78   H51   S    
C7    C9    A    
C93   C94   A    
C79   C80   A    
C35   H7    S    
C8    C10   A    
C94   H73   S    
C22   C26   A    
C82   C83   A    
C74   C75   A    
C23   O8    A    
C87   H62   S    
C14   N1    S    
Cu1   O7    S    
C92   C93   A    
C64   H26   S    
C84   H56   S    
C65   C66   S    
C66   H30   S    
C80   C81   A    
C87   H63   S    
