data_mof_unit_47483.cif
_audit_creation_date              2013-03-05T16:00:02-0500
_audit_creation_method            fapswitch 2.2
_symmetry_space_group_name_H-M    P1
_symmetry_Int_Tables_number       1
_space_group_crystal_system       triclinic
_cell_length_a                    20.62032
_cell_length_b                    21.048864
_cell_length_c                    14.770195
_cell_angle_alpha                 89.991048
_cell_angle_beta                  128.188342
_cell_angle_gamma                 90.008572
_cell_volume                      5038.75538329

loop_
_atom_site_label
_atom_site_type_symbol
_atom_site_description
_atom_site_fract_x
_atom_site_fract_y
_atom_site_fract_z
_atom_type_partial_charge
O1    O     O_R   0.600040 0.935040 0.546740 -0.557161
O2    O     O_R   0.399960 0.064960 0.453260 -0.544884
O3    O     O_R   0.399960 0.935040 0.453260 -0.557277
O4    O     O_R   0.600040 0.064960 0.546740 -0.544852
O5    O     O_R   0.100040 0.435040 0.546740 -0.557100
O6    O     O_R   0.899960 0.564960 0.453260 -0.545092
O7    O     O_R   0.899960 0.435040 0.453260 -0.557194
O8    O     O_R   0.100040 0.564960 0.546740 -0.545019
O9    O     O_R   0.555010 0.935070 0.653220 -0.562453
O10   O     O_R   0.444990 0.064930 0.346780 -0.591495
O11   O     O_R   0.444990 0.935070 0.346780 -0.561869
O12   O     O_R   0.555010 0.064930 0.653220 -0.591167
O13   O     O_R   0.055010 0.435070 0.653220 -0.562509
O14   O     O_R   0.944990 0.564930 0.346780 -0.591369
O15   O     O_R   0.944990 0.435070 0.346780 -0.562016
O16   O     O_R   0.055010 0.564930 0.653220 -0.590973
C1    C     C_R   0.600214 0.910948 0.627554 0.829699
C2    C     C_R   0.395697 0.086028 0.367140 0.845831
C3    C     C_R   0.399677 0.911013 0.372331 0.829428
C4    C     C_R   0.604358 0.085987 0.632917 0.845800
C5    C     C_R   0.100289 0.410997 0.627640 0.829365
C6    C     C_R   0.895749 0.586072 0.367199 0.846394
C7    C     C_R   0.899624 0.411048 0.372272 0.829132
C8    C     C_R   0.104325 0.586015 0.632881 0.846281
Cu1   Cu    Cu3+1 0.526640 1.000000 0.436960 1.038112
Cu2   Cu    Cu3+1 0.473360 0.000000 0.563040 1.037873
Cu3   Cu    Cu3+1 0.026640 0.500000 0.436960 1.038060
Cu4   Cu    Cu3+1 0.973360 0.500000 0.563040 1.037858
C9    C     C_R   0.671286 0.130360 0.716401 -0.171835
C10   C     C_R   0.349508 0.853435 0.311257 -0.185206
C11   C     C_R   0.328887 0.130518 0.283813 -0.171814
C12   C     C_R   0.650056 0.853194 0.688320 -0.185187
C13   C     C_R   0.171178 0.630465 0.716272 -0.171802
C14   C     C_R   0.849300 0.353557 0.311047 -0.185157
C15   C     C_R   0.829061 0.630683 0.284019 -0.171825
C16   C     C_R   0.150346 0.353364 0.688618 -0.185117
C17   C     C_R   0.799403 0.186761 0.797675 -0.197735
C18   C     C_R   0.247377 0.773904 0.264503 -0.193686
C19   C     C_R   0.201464 0.187681 0.203626 -0.197905
C20   C     C_R   0.751139 0.772965 0.733878 -0.193742
C21   C     C_R   0.298894 0.687322 0.796934 -0.197684
C22   C     C_R   0.746708 0.274344 0.263763 -0.193795
C23   C     C_R   0.702230 0.688513 0.204712 -0.197892
C24   C     C_R   0.252069 0.273572 0.734908 -0.193895
C25   C     C_R   0.731887 0.152200 0.706932 0.347052
C26   C     C_R   0.295579 0.826370 0.329734 0.348820
C27   C     C_R   0.268934 0.152977 0.294129 0.346852
C28   C     C_R   0.703297 0.825644 0.668998 0.348426
C29   C     C_R   0.231404 0.652681 0.706319 0.346804
C30   C     C_R   0.795068 0.326714 0.329151 0.348964
C31   C     C_R   0.769663 0.653696 0.295037 0.346444
C32   C     C_R   0.204015 0.326124 0.669821 0.348693
C33   C     C_R   0.678247 0.146546 0.814159 -0.227373
C34   C     C_R   0.357799 0.823920 0.233930 -0.207576
C35   C     C_R   0.321410 0.146277 0.185500 -0.228300
C36   C     C_R   0.642032 0.823956 0.766118 -0.208267
C37   C     C_R   0.178427 0.646399 0.814345 -0.227433
C38   C     C_R   0.857700 0.323922 0.233915 -0.207759
C39   C     C_R   0.821169 0.646079 0.185259 -0.228366
C40   C     C_R   0.142161 0.323954 0.766135 -0.208337
C41   C     C_R   0.745619 0.181374 0.905633 0.101509
C42   C     C_R   0.310074 0.770823 0.168345 0.089254
C43   C     C_R   0.254185 0.181381 0.094382 0.101334
C44   C     C_R   0.689346 0.770635 0.831293 0.089169
C45   C     C_R   0.245708 0.681392 0.905617 0.101306
C46   C     C_R   0.809803 0.270920 0.168159 0.089424
C47   C     C_R   0.754087 0.681426 0.094433 0.101145
C48   C     C_R   0.189711 0.270762 0.831541 0.089346
C49   C     C_R   0.806259 0.201934 0.895582 0.081695
C50   C     C_R   0.252875 0.746979 0.182886 0.081813
C51   C     C_R   0.194128 0.202492 0.105228 0.081714
C52   C     C_R   0.745901 0.746289 0.815917 0.081531
C53   C     C_R   0.306023 0.702272 0.895125 0.081678
C54   C     C_R   0.752323 0.247303 0.182333 0.082034
C55   C     C_R   0.694497 0.702994 0.105902 0.081669
C56   C     C_R   0.246657 0.246727 0.816673 0.081807
C57   C     C_R   0.752279 0.198819 0.004243 0.085415
C58   C     C_R   0.313878 0.743408 0.083593 0.083577
C59   C     C_R   0.247166 0.198606 0.995397 0.085012
C60   C     C_R   0.685794 0.743477 0.916450 0.083556
C61   C     C_R   0.252565 0.698709 0.004436 0.085194
C62   C     C_R   0.813725 0.243385 0.083593 0.083609
C63   C     C_R   0.746793 0.698473 0.995157 0.084721
C64   C     C_R   0.185988 0.243433 0.916430 0.083621
C65   C     C_R   0.376031 0.759670 0.074190 -0.113339
C66   C     C_R   0.699418 0.173689 0.025929 -0.148112
C67   C     C_R   0.624223 0.760316 0.926719 -0.113903
C68   C     C_R   0.299457 0.173062 0.973017 -0.148732
C69   C     C_R   0.876135 0.259386 0.074577 -0.113116
C70   C     C_R   0.200003 0.673357 0.026491 -0.148146
C71   C     C_R   0.124056 0.259910 0.926163 -0.113649
C72   C     C_R   0.798680 0.672631 0.972278 -0.148656
C73   C     C_R   0.372183 0.739093 0.981730 -0.147115
C74   C     C_R   0.700426 0.197096 0.114551 -0.141825
C75   C     C_R   0.628500 0.740080 0.019686 -0.147454
C76   C     C_R   0.298220 0.196299 0.884092 -0.141409
C77   C     C_R   0.872487 0.238641 0.982356 -0.147032
C78   C     C_R   0.201143 0.696661 0.115285 -0.141330
C79   C     C_R   0.128041 0.239426 0.018783 -0.147365
C80   C     C_R   0.797248 0.695717 0.883103 -0.140772
H1    H     H_    0.420133 0.753727 0.976344 0.145995
H2    H     H_    0.658152 0.177186 0.127412 0.149961
H3    H     H_    0.581055 0.755212 0.025794 0.146208
H4    H     H_    0.340069 0.176072 0.870706 0.150181
H5    H     H_    0.920661 0.253047 0.977293 0.145828
H6    H     H_    0.159093 0.676580 0.128423 0.150138
H7    H     H_    0.080277 0.254235 0.024437 0.146005
H8    H     H_    0.838793 0.675259 0.869341 0.150394
H9    H     H_    0.400664 0.844452 0.223945 0.215028
H10   H     H_    0.628960 0.132469 0.816080 0.169607
H11   H     H_    0.599706 0.844868 0.776792 0.214953
H12   H     H_    0.370205 0.131664 0.182877 0.169490
H13   H     H_    0.900789 0.344289 0.224215 0.214817
H14   H     H_    0.129424 0.631999 0.816667 0.169716
H15   H     H_    0.099521 0.344638 0.776409 0.214746
H16   H     H_    0.869545 0.630991 0.182062 0.169576
N1    N     N_R   0.433280 0.000000 0.657760 -0.206445
N2    N     N_R   0.566720 0.000000 0.342240 -0.206355
N3    N     N_R   0.933280 0.500000 0.657760 -0.206308
N4    N     N_R   0.066720 0.500000 0.342240 -0.206343
C81   C     C_R   0.320831 0.990566 0.662698 -0.163320
C82   C     C_R   0.679261 0.990697 0.337473 -0.163155
C83   C     C_R   0.820813 0.490652 0.662691 -0.163546
C84   C     C_R   0.179267 0.490761 0.337458 -0.163239
C85   C     C_R   0.351431 0.993254 0.601574 0.194696
C86   C     C_R   0.648587 0.993296 0.398507 0.195163
C87   C     C_R   0.851415 0.493358 0.601565 0.194125
C88   C     C_R   0.148600 0.493393 0.398506 0.194893
C89   C     C_R   0.487206 0.005348 0.774980 0.104831
C90   C     C_R   0.512837 0.005299 0.225009 0.105630
C91   C     C_R   0.987219 0.505246 0.775000 0.105225
C92   C     C_R   0.012818 0.505203 0.224989 0.105829
C93   C     C_R   0.461346 0.996456 0.844373 -0.031214
C94   C     C_R   0.538796 0.996448 0.155733 -0.030949
C95   C     C_R   0.961337 0.496352 0.844371 -0.031031
C96   C     C_R   0.038787 0.496343 0.155721 -0.030769
C97   C     C_R   0.375020 0.992124 0.784190 -0.053633
C98   C     C_R   0.625129 0.992278 0.215984 -0.053911
C99   C     C_R   0.875007 0.492097 0.784188 -0.053451
C100  C     C_R   0.125123 0.492226 0.215964 -0.053815
C101  C     C_R   0.516869 0.992654 0.969219 -0.121418
C102  C     C_R   0.483331 0.992549 0.030919 -0.121133
C103  C     C_R   0.016852 0.492494 0.969207 -0.121168
C104  C     C_R   0.983323 0.492404 0.030913 -0.120870
C105  C     C_R   0.396019 0.985004 0.965503 0.228401
C106  C     C_R   0.604243 0.985429 0.034721 0.228668
C107  C     C_R   0.896021 0.484832 0.965510 0.228202
C108  C     C_R   0.104207 0.485199 0.034686 0.228539
C109  C     C_R   0.343346 0.986728 0.844748 0.255809
C110  C     C_R   0.656867 0.987098 0.155487 0.256268
C111  C     C_R   0.843336 0.486647 0.844752 0.255571
C112  C     C_R   0.156848 0.486961 0.155454 0.256095
H17   H     H_    0.450845 0.018142 0.188720 0.166731
H18   H     H_    0.549133 0.018275 0.811112 0.167435
H19   H     H_    0.950792 0.517963 0.188660 0.166531
H20   H     H_    0.049189 0.518082 0.811191 0.167184
H21   H     H_    0.254805 0.985634 0.613932 0.212054
H22   H     H_    0.745300 0.985835 0.386302 0.212066
H23   H     H_    0.754778 0.485795 0.613919 0.211944
H24   H     H_    0.245313 0.485962 0.386288 0.212043
N5    N     N_R   0.359803 0.965581 0.018176 0.118826
O17   O     O_R   0.300901 0.998846 0.003990 -0.328074
O18   O     O_R   0.377801 0.910122 0.066771 -0.381385
N6    N     N_R   0.640680 0.966479 0.982153 0.118606
O19   O     O_R   0.699231 0.000241 0.996253 -0.328310
O20   O     O_R   0.623486 0.910918 0.934103 -0.381154
N7    N     N_R   0.859857 0.465249 0.018183 0.118893
O21   O     O_R   0.800849 0.498359 0.003988 -0.328238
O22   O     O_R   0.878107 0.409820 0.066937 -0.381386
N8    N     N_R   0.140566 0.466036 0.982103 0.118699
O23   O     O_R   0.199255 0.499595 0.996209 -0.328312
O24   O     O_R   0.123031 0.410515 0.933837 -0.381146
N9    N     N_R   0.289733 0.850198 0.415288 0.125537
O25   O     O_R   0.351190 0.841869 0.523773 -0.337021
O26   O     O_R   0.217945 0.865654 0.385983 -0.328952
N10   N     N_R   0.725103 0.141767 0.605389 0.128405
O27   O     O_R   0.789321 0.123198 0.615008 -0.337880
O28   O     O_R   0.661120 0.163282 0.506613 -0.319697
N11   N     N_R   0.708720 0.849148 0.582857 0.125957
O29   O     O_R   0.646639 0.841255 0.474545 -0.337309
O30   O     O_R   0.780455 0.863836 0.611247 -0.328071
N12   N     N_R   0.276441 0.143134 0.396366 0.128897
O31   O     O_R   0.212350 0.125566 0.387855 -0.337492
O32   O     O_R   0.341201 0.164270 0.494774 -0.319737
N13   N     N_R   0.789029 0.350696 0.414441 0.125371
O33   O     O_R   0.850203 0.342166 0.523006 -0.336798
O34   O     O_R   0.717214 0.366511 0.384717 -0.329524
N14   N     N_R   0.224196 0.642617 0.604366 0.128642
O35   O     O_R   0.288359 0.624702 0.613333 -0.337685
O36   O     O_R   0.159731 0.663884 0.505798 -0.319473
N15   N     N_R   0.209722 0.349850 0.584068 0.125721
O37   O     O_R   0.148054 0.341664 0.475637 -0.337070
O38   O     O_R   0.281497 0.365064 0.613072 -0.328699
N16   N     N_R   0.777799 0.644402 0.397872 0.129271
O39   O     O_R   0.713804 0.627860 0.390329 -0.337227
O40   O     O_R   0.843278 0.665122 0.495966 -0.319520
H25   H     H_    0.344770 0.704393 0.788916 0.181033
H26   H     H_    0.704301 0.254777 0.276668 0.188176
H27   H     H_    0.656965 0.706182 0.213501 0.181516
H28   H     H_    0.294047 0.253686 0.721466 0.188522
H29   H     H_    0.845556 0.203550 0.790008 0.180722
H30   H     H_    0.205200 0.754160 0.277697 0.188437
H31   H     H_    0.155796 0.204940 0.211917 0.181073
H32   H     H_    0.792794 0.752833 0.720033 0.188889
H33   H     H_    0.429332 0.787585 0.138145 0.170131
H34   H     H_    0.657295 0.135055 0.977004 0.150773
H35   H     H_    0.571075 0.788470 0.863114 0.169845
H36   H     H_    0.341310 0.134246 0.021634 0.150910
H37   H     H_    0.929497 0.287203 0.138680 0.169979
H38   H     H_    0.158007 0.634636 0.977718 0.150853
H39   H     H_    0.070830 0.287937 0.862363 0.169729
H40   H     H_    0.840379 0.633711 0.020706 0.151136
N17   N     N_R   0.256130 0.979640 0.783048 0.156062
O41   O     O_R   0.225714 0.925000 0.780932 -0.257927
O42   O     O_R   0.207458 0.028348 0.731695 -0.307795
N18   N     N_R   0.744123 0.980269 0.217255 0.156087
O43   O     O_R   0.774761 0.925810 0.219113 -0.257704
O44   O     O_R   0.792601 0.029056 0.268843 -0.307520
N19   N     N_R   0.756120 0.479574 0.783048 0.156051
O45   O     O_R   0.725669 0.424904 0.780707 -0.257942
O46   O     O_R   0.707480 0.528316 0.731890 -0.308316
N20   N     N_R   0.244099 0.480109 0.217217 0.156061
O47   O     O_R   0.274736 0.425597 0.219309 -0.257774
O48   O     O_R   0.292576 0.528917 0.268590 -0.307924
H41   H     H_    0.690348 0.990285 0.491521 0.168774
H42   H     H_    0.309632 0.990250 0.508561 0.168830
H43   H     H_    0.190376 0.490470 0.491530 0.168751
H44   H     H_    0.809606 0.490440 0.508543 0.168448

loop_
_geom_bond_atom_site_label_1
_geom_bond_atom_site_label_2
_geom_bond_distance
_ccdc_geom_bond_type
C33   H10   1.075683 S    
O16   Cu4   1.924485 S    
N16   O40   1.301372 A    
C18   C50   1.398759 A    
C47   C63   1.424309 A    
C19   H31   1.084637 S    
C35   H12   1.075557 S    
O2    C2    1.297677 A    
C44   C60   1.424021 A    
C54   C74   1.392687 A    
C108  N8    1.431130 S    
Cu2   N1    2.017433 S    
C53   C73   1.392951 A    
C93   C97   1.417929 A    
C96   C100  1.417727 A    
Cu1   N2    2.017432 S    
C66   H34   1.077874 S    
C68   C76   1.386861 A    
O4    Cu1   1.937802 S    
C65   H33   1.077858 S    
N7    O22   1.298533 A    
C5    C16   1.482819 S    
C43   C59   1.424134 A    
N9    O25   1.301290 A    
C98   C110  1.400618 A    
C95   C99   1.417905 A    
C6    C15   1.480927 S    
C10   C34   1.400480 A    
O11   C3    1.306788 A    
C62   C69   1.413893 A    
C9    C33   1.401921 A    
N14   O36   1.301527 A    
N6    O19   1.301905 A    
C11   C27   1.417084 A    
O12   Cu2   1.924485 S    
N18   O44   1.300972 A    
C60   C67   1.413813 A    
C17   C49   1.400182 A    
C27   N12   1.434584 S    
C59   C64   1.422226 A    
N13   O34   1.301039 A    
C11   C35   1.401937 A    
C46   C62   1.423993 A    
N8    O23   1.301897 A    
O11   Cu1   1.924488 S    
C13   C29   1.417073 A    
C103  C104  1.444926 A    
O6    C6    1.297751 A    
C83   C99   1.410832 A    
C92   H19   1.071143 S    
C45   C53   1.414972 A    
C42   C50   1.414964 A    
C15   C39   1.402022 A    
C81   C97   1.410821 A    
C24   C56   1.398796 A    
C84   C100  1.410800 A    
N12   O31   1.301365 A    
C66   C74   1.386777 A    
C39   C47   1.404310 A    
O5    Cu3   1.937766 S    
C65   C73   1.387469 A    
C94   C102  1.451313 A    
C38   C46   1.406158 A    
O6    Cu4   1.937765 S    
C20   H32   1.084653 S    
C41   C57   1.424043 A    
C39   H16   1.075420 S    
C35   C43   1.404264 A    
C38   H13   1.072862 S    
N3    C91   1.366172 A    
C36   C44   1.406026 A    
O13   Cu4   1.924549 S    
O3    C3    1.294674 A    
C64   C71   1.413855 A    
C110  N18   1.435487 S    
O14   Cu3   1.924549 S    
N1    C89   1.366106 A    
C100  C112  1.400722 A    
C36   H11   1.072678 S    
C16   C32   1.417998 A    
C84   C88   1.386022 A    
C77   H5    1.084478 S    
C24   C32   1.397065 A    
O15   C7    1.306839 A    
N16   O39   1.301184 A    
O16   C8    1.303404 A    
C106  C110  1.402546 A    
O1    Cu1   1.937766 S    
C12   C28   1.417986 A    
C102  C105  1.431505 A    
C97   C109  1.400662 A    
C90   C94   1.430227 A    
C33   C41   1.404255 A    
C68   H36   1.077844 S    
C60   C63   1.422268 A    
C21   C29   1.398785 A    
C59   C68   1.414913 A    
N5    O18   1.298499 A    
C75   H3    1.084425 S    
O9    Cu2   1.924549 S    
N5    O17   1.301898 A    
C109  N17   1.435444 S    
C4    C9    1.480961 S    
N17   O42   1.300965 A    
C23   C55   1.400138 A    
C103  C108  1.431622 A    
C80   H8    1.084478 S    
C22   C54   1.398713 A    
C55   C75   1.392894 A    
N15   O37   1.301334 A    
C48   C64   1.423973 A    
C104  C107  1.431412 A    
C22   H26   1.084710 S    
N18   O43   1.301015 A    
C82   C98   1.410784 A    
C21   H25   1.084642 S    
C25   N10   1.434524 S    
C73   H1    1.084444 S    
N19   O45   1.301012 A    
C70   H38   1.077843 S    
C72   C80   1.386937 A    
C99   C111  1.400763 A    
C69   H37   1.077868 S    
C34   C42   1.406136 A    
Cu1   Cu2   2.684158 S    
Cu3   N4    2.017432 S    
C51   C79   1.392920 A    
C31   N16   1.434678 S    
O7    Cu4   1.937804 S    
C34   H9    1.072771 S    
C69   C77   1.387521 A    
N14   O35   1.301423 A    
C32   N15   1.432337 S    
C82   C86   1.385944 A    
C105  N5    1.431184 S    
C107  C111  1.402506 A    
N15   O38   1.300952 A    
C81   C85   1.385911 A    
N2    C90   1.366111 A    
N19   O46   1.300965 A    
O15   Cu3   1.924488 S    
N17   O41   1.301013 A    
C92   C96   1.430290 A    
C7    C14   1.482765 S    
O12   C4    1.303440 A    
C82   H22   1.081946 S    
C26   N9    1.432293 S    
O13   C5    1.306767 A    
O2    Cu2   1.937765 S    
N20   O48   1.300967 A    
C67   H35   1.077851 S    
N9    O26   1.300890 A    
C107  N7    1.431247 S    
C101  C106  1.431753 A    
C22   C30   1.396945 A    
C89   C93   1.430261 A    
C61   C70   1.414895 A    
C58   C65   1.413836 A    
C71   H39   1.077855 S    
N10   O27   1.301533 A    
C49   C77   1.392970 A    
C43   C51   1.414990 A    
C57   C66   1.414907 A    
C24   H28   1.084668 S    
C76   H4    1.084482 S    
C15   C31   1.417006 A    
C87   H44   1.081728 S    
C1    C12   1.482938 S    
C111  N19   1.435413 S    
C72   H40   1.077791 S    
C86   H41   1.081734 S    
C47   C55   1.415002 A    
C17   C25   1.398770 A    
C85   H42   1.081727 S    
C83   C87   1.385996 A    
N7    O21   1.301907 A    
O10   Cu1   1.924549 S    
C19   C27   1.398757 A    
C52   C80   1.392736 A    
O9    C1    1.306704 A    
C20   C28   1.397179 A    
C67   C75   1.387355 A    
C91   H20   1.070947 S    
C13   C37   1.401973 A    
C20   C52   1.398875 A    
N4    C92   1.366183 A    
O1    C1    1.294783 A    
C10   C26   1.417977 A    
O3    Cu2   1.937804 S    
C108  C112  1.402611 A    
C37   C45   1.404292 A    
C16   C40   1.400442 A    
Cu4   N3    2.017433 S    
C94   C98   1.417724 A    
C14   C30   1.418034 A    
C23   H27   1.084592 S    
N4    C88   1.351183 A    
C37   H14   1.075577 S    
C2    C11   1.480906 S    
N2    C86   1.351159 A    
C48   C56   1.414952 A    
C79   H7    1.084439 S    
C91   C95   1.430318 A    
C8    C13   1.480984 S    
C78   H6    1.084483 S    
C106  N6    1.431067 S    
C41   C49   1.414997 A    
O14   C6    1.303377 A    
N6    O20   1.298493 A    
C96   C104  1.451303 A    
C101  C102  1.445016 A    
C56   C76   1.392713 A    
C30   N13   1.432291 S    
C58   C61   1.422263 A    
C23   C31   1.398792 A    
N13   O33   1.301391 A    
C42   C58   1.424019 A    
C29   N14   1.434559 S    
C83   H23   1.081952 S    
C57   C62   1.422243 A    
O10   C2    1.303432 A    
C88   H43   1.081735 S    
O7    C7    1.294584 A    
C84   H24   1.081949 S    
C95   C103  1.451512 A    
O8    C8    1.297748 A    
C12   C36   1.400489 A    
C90   H17   1.071092 S    
C44   C52   1.414873 A    
N20   O47   1.301009 A    
N12   O32   1.301485 A    
C18   C26   1.397023 A    
C21   C53   1.400169 A    
N11   O29   1.301309 A    
O4    C4    1.297694 A    
O5    C5    1.294667 A    
C40   C48   1.406051 A    
C63   C72   1.414957 A    
C18   H30   1.084665 S    
C9    C25   1.417154 A    
Cu3   Cu4   2.684158 S    
C14   C38   1.400452 A    
O8    Cu3   1.937802 S    
C17   H29   1.084698 S    
C45   C61   1.424146 A    
C40   H15   1.072762 S    
C81   H21   1.081950 S    
C93   C101  1.451555 A    
N8    O24   1.298513 A    
C71   C79   1.387425 A    
C112  N20   1.435451 S    
C3    C10   1.482854 S    
N1    C85   1.351097 A    
C70   C78   1.386827 A    
C28   N11   1.432387 S    
C105  C109  1.402428 A    
C89   H18   1.070872 S    
C50   C78   1.392704 A    
C74   H2    1.084514 S    
N3    C87   1.351128 A    
N10   O28   1.301607 A    
N11   O30   1.300909 A    
C19   C51   1.400136 A    
C46   C54   1.415053 A    
