data_mof_unit_53731.cif
_audit_creation_date              2012-12-11T15:26:40-0500
_audit_creation_method            fapswitch 2.2
_symmetry_space_group_name_H-M    P1
_symmetry_Int_Tables_number       1
_space_group_crystal_system       monoclinic
_cell_length_a                    7.19365
_cell_length_b                    12.280162
_cell_length_c                    28.993398
_cell_angle_alpha                 90.503645
_cell_angle_beta                  90.0
_cell_angle_gamma                 90.0
_cell_volume                      2561.15426669

loop_
_atom_site_label
_atom_site_type_symbol
_atom_type_description
_atom_site_fract_x
_atom_site_fract_y
_atom_site_fract_z
_atom_type_partial_charge
O1    O     O_R   0.647170 0.849180 0.201220 -0.525322
O2    O     O_R   0.352830 0.150820 0.798780 -0.548960
O3    O     O_R   0.352830 0.150820 0.701220 -0.542709
O4    O     O_R   0.647170 0.849180 0.298780 -0.518114
O5    O     O_R   0.147170 0.650820 0.298780 -0.525322
O6    O     O_R   0.852830 0.349180 0.701220 -0.548961
O7    O     O_R   0.852830 0.349180 0.798780 -0.542710
O8    O     O_R   0.147170 0.650820 0.201220 -0.518114
O9    O     O_R   0.317430 0.862210 0.298450 -0.536713
O10   O     O_R   0.682570 0.137790 0.701550 -0.512083
O11   O     O_R   0.682570 0.137790 0.798450 -0.519126
O12   O     O_R   0.317430 0.862210 0.201550 -0.546897
O13   O     O_R   0.817430 0.637790 0.201550 -0.536715
O14   O     O_R   0.182570 0.362210 0.798450 -0.512083
O15   O     O_R   0.182570 0.362210 0.701550 -0.519126
O16   O     O_R   0.817430 0.637790 0.298450 -0.546897
H1    H     H_    0.990388 0.227839 0.455748 0.166127
H2    H     H_    0.986077 0.771664 0.544251 0.171869
H3    H     H_    0.906039 0.770875 0.957946 0.138346
H4    H     H_    0.929672 0.227709 0.041048 0.140027
H5    H     H_    0.490387 0.272161 0.044252 0.166130
H6    H     H_    0.486078 0.728336 0.955749 0.171869
H7    H     H_    0.406038 0.729125 0.542054 0.138347
H8    H     H_    0.429674 0.272291 0.458952 0.140027
C1    C     C_R   0.486047 0.886757 0.314721 0.765192
C2    C     C_R   0.514713 0.113145 0.685336 0.759651
C3    C     C_R   0.514301 0.112435 0.813716 0.737287
C4    C     C_R   0.485822 0.887638 0.186319 0.738424
C5    C     C_R   0.986047 0.613243 0.185279 0.765191
C6    C     C_R   0.014713 0.386855 0.814664 0.759650
C7    C     C_R   0.014301 0.387564 0.686284 0.737288
C8    C     C_R   0.985822 0.612362 0.313681 0.738425
H9    H     H_    0.085037 0.270639 0.378496 0.223342
H10   H     H_    0.096079 0.729297 0.620326 0.222257
H11   H     H_    0.062908 0.727777 0.886829 0.164281
H12   H     H_    0.080706 0.276362 0.112557 0.162439
H13   H     H_    0.585037 0.229360 0.121504 0.223342
H14   H     H_    0.596080 0.770703 0.879674 0.222257
H15   H     H_    0.562907 0.772223 0.613171 0.164281
H16   H     H_    0.580708 0.223638 0.387443 0.162439
O17   O     O_3   0.480630 0.680630 0.250000 -0.353666
O18   O     O_3   0.519370 0.319370 0.750000 -0.361378
O19   O     O_3   0.980630 0.819370 0.250000 -0.353665
O20   O     O_3   0.019370 0.180630 0.750000 -0.361378
V1    V     V_3+5 0.205800 0.762860 0.250000 1.648480
V2    V     V_3+5 0.794200 0.237140 0.750000 1.638394
V3    V     V_3+5 0.705800 0.737140 0.250000 1.648476
V4    V     V_3+5 0.294200 0.262860 0.750000 1.638394
H17   H     H_    0.945752 0.286248 0.533358 0.124610
H18   H     H_    0.935068 0.712874 0.467097 0.124563
H19   H     H_    0.839878 0.710761 0.034342 0.128400
H20   H     H_    0.861098 0.285565 0.964454 0.128139
H21   H     H_    0.445752 0.213752 0.966641 0.124610
H22   H     H_    0.435068 0.787126 0.032903 0.124563
H23   H     H_    0.339877 0.789240 0.465658 0.128400
H24   H     H_    0.361100 0.214436 0.535546 0.128139
C9    C     C_R   0.992390 0.534520 0.352392 -0.166292
C10   C     C_R   0.006713 0.465965 0.647784 -0.168673
C11   C     C_R   0.004265 0.462010 0.855513 -0.183234
C12   C     C_R   0.990429 0.539101 0.143963 -0.175239
C13   C     C_R   0.492390 0.965480 0.147608 -0.166291
C14   C     C_R   0.506713 0.034035 0.852216 -0.168673
C15   C     C_R   0.504265 0.037990 0.644487 -0.183233
C16   C     C_R   0.490429 0.960899 0.356036 -0.175237
C17   C     C_R   0.039268 0.353644 0.383213 -0.168390
C18   C     C_R   0.049245 0.646383 0.616192 -0.156218
C19   C     C_R   0.014640 0.644171 0.888374 -0.163667
C20   C     C_R   0.023535 0.358009 0.110824 -0.171044
C21   C     C_R   0.539268 0.146356 0.116787 -0.168389
C22   C     C_R   0.549246 0.853617 0.883808 -0.156218
C23   C     C_R   0.514639 0.855829 0.611626 -0.163669
C24   C     C_R   0.523537 0.141991 0.389175 -0.171047
C25   C     C_R   0.050613 0.425655 0.346461 0.363539
C26   C     C_R   0.064723 0.575152 0.653052 0.367416
C27   C     C_R   0.081534 0.568229 0.856135 0.445046
C28   C     C_R   0.078822 0.435909 0.143557 0.439631
C29   C     C_R   0.550613 0.074345 0.153539 0.363538
C30   C     C_R   0.564723 0.924848 0.846948 0.367416
C31   C     C_R   0.581533 0.931771 0.643865 0.445044
C32   C     C_R   0.578823 0.064091 0.356443 0.439619
C33   C     C_R   0.940528 0.571058 0.396573 -0.278709
C34   C     C_R   0.951087 0.428533 0.603956 -0.278397
C35   C     C_R   0.907440 0.427581 0.895288 -0.279244
C36   C     C_R   0.893767 0.570370 0.103689 -0.278095
C37   C     C_R   0.440528 0.928942 0.103427 -0.278709
C38   C     C_R   0.451087 0.071467 0.896044 -0.278397
C39   C     C_R   0.407440 0.072419 0.604712 -0.279243
C40   C     C_R   0.393767 0.929630 0.396311 -0.278084
C41   C     C_R   0.947072 0.500709 0.435129 0.093456
C42   C     C_R   0.952688 0.498548 0.565236 0.091152
C43   C     C_R   0.887957 0.497557 0.934439 0.090086
C44   C     C_R   0.884299 0.499996 0.064420 0.089080
C45   C     C_R   0.447072 0.999291 0.064871 0.093456
C46   C     C_R   0.452688 0.001452 0.934764 0.091152
C47   C     C_R   0.387957 0.002443 0.565561 0.090086
C48   C     C_R   0.384299 0.000004 0.435579 0.089079
C49   C     C_R   0.982309 0.389043 0.426789 0.037662
C50   C     C_R   0.986713 0.610450 0.573219 0.038942
C51   C     C_R   0.922187 0.609567 0.927978 0.066244
C52   C     C_R   0.929431 0.389349 0.070973 0.064377
C53   C     C_R   0.482309 0.110957 0.073211 0.037662
C54   C     C_R   0.486713 0.889550 0.926781 0.038942
C55   C     C_R   0.422187 0.890433 0.572021 0.066244
C56   C     C_R   0.429433 0.110651 0.429027 0.064377
C57   C     C_R   0.933491 0.538042 0.481769 0.073819
C58   C     C_R   0.936303 0.460898 0.518670 0.072443
C59   C     C_R   0.859240 0.459837 0.980532 0.066268
C60   C     C_R   0.854594 0.536754 0.018232 0.066536
C61   C     C_R   0.433491 0.961958 0.018231 0.073819
C62   C     C_R   0.436303 0.039102 0.981330 0.072443
C63   C     C_R   0.359240 0.040163 0.519468 0.066268
C64   C     C_R   0.354594 0.963246 0.481768 0.066533
C65   C     C_R   0.943957 0.348901 0.507580 -0.201875
C66   C     C_R   0.938153 0.650110 0.492807 -0.204111
C67   C     C_R   0.851051 0.648666 0.007954 -0.200976
C68   C     C_R   0.865504 0.347955 0.990836 -0.202348
C69   C     C_R   0.443957 0.151099 0.992420 -0.201875
C70   C     C_R   0.438153 0.849890 0.007193 -0.204111
C71   C     C_R   0.351050 0.851334 0.492046 -0.200977
C72   C     C_R   0.365505 0.152046 0.509164 -0.202348
C73   C     C_R   0.970920 0.314087 0.462488 -0.169444
C74   C     C_R   0.968774 0.685224 0.537659 -0.168809
C75   C     C_R   0.888408 0.684301 0.963569 -0.179439
C76   C     C_R   0.904220 0.313578 0.035333 -0.176720
C77   C     C_R   0.470920 0.185913 0.037512 -0.169443
C78   C     C_R   0.468774 0.814775 0.962341 -0.168809
C79   C     C_R   0.388406 0.815700 0.536431 -0.179439
C80   C     C_R   0.404222 0.186422 0.464667 -0.176720
S1    S     S_3+6 0.164240 0.624728 0.704439 0.147512
O21   O     O_2   0.356339 0.577714 0.707910 -0.265957
O22   O     O_2   0.178845 0.746842 0.704703 -0.247391
O23   O     O_3   0.033413 0.584873 0.749176 -0.472856
H25   H     H_    0.906203 0.610417 0.741994 0.379123
S2    S     S_3+6 0.148774 0.378425 0.294613 0.146195
O24   O     O_2   0.337925 0.429058 0.290584 -0.265137
O25   O     O_2   0.169991 0.256651 0.294116 -0.245902
O26   O     O_3   0.013466 0.416366 0.250385 -0.472791
H26   H     H_    0.887236 0.390607 0.258430 0.377602
S3    S     S_3+6 0.297862 0.409523 0.168731 0.093601
O27   O     O_2   0.357445 0.490035 0.204736 -0.253903
O28   O     O_2   0.294332 0.297639 0.189193 -0.245290
O29   O     O_3   0.455970 0.412132 0.126096 -0.529052
H27   H     H_    0.451562 0.487386 0.114112 0.310643
S4    S     S_3+6 0.302642 0.601485 0.833436 0.092403
O30   O     O_2   0.371970 0.529085 0.795451 -0.241670
O31   O     O_2   0.296792 0.716659 0.816517 -0.260838
O32   O     O_3   0.454361 0.593080 0.877315 -0.533918
H28   H     H_    0.453027 0.515496 0.886388 0.312294
S5    S     S_3+6 0.664240 0.875272 0.795561 0.147512
O33   O     O_2   0.856339 0.922286 0.792090 -0.265958
O34   O     O_2   0.678846 0.753158 0.795297 -0.247392
O35   O     O_3   0.533413 0.915126 0.750824 -0.472856
H29   H     H_    0.406203 0.889583 0.758006 0.379123
S6    S     S_3+6 0.648773 0.121575 0.205386 0.146195
O36   O     O_2   0.837925 0.070942 0.209416 -0.265137
O37   O     O_2   0.669991 0.243349 0.205884 -0.245904
O38   O     O_3   0.513466 0.083634 0.249615 -0.472791
H30   H     H_    0.387235 0.109393 0.241570 0.377602
S7    S     S_3+6 0.797864 0.090477 0.331268 0.093606
O39   O     O_2   0.857446 0.009964 0.295264 -0.253898
O40   O     O_2   0.794334 0.202360 0.310806 -0.245290
O41   O     O_3   0.955972 0.087868 0.373904 -0.529045
H31   H     H_    0.951539 0.012619 0.385893 0.310632
S8    S     S_3+6 0.802641 0.898515 0.666564 0.092403
O42   O     O_2   0.871969 0.970915 0.704549 -0.241669
O43   O     O_2   0.796791 0.783341 0.683483 -0.260838
O44   O     O_3   0.954360 0.906920 0.622685 -0.533919
H32   H     H_    0.953022 0.984502 0.613611 0.312293
H33   H     H_    0.911204 0.344076 0.600928 0.115157
H34   H     H_    0.897965 0.654999 0.399867 0.113639
H35   H     H_    0.834880 0.651240 0.102998 0.116345
H36   H     H_    0.857615 0.344651 0.895834 0.118560
H37   H     H_    0.411204 0.155924 0.899071 0.115157
H38   H     H_    0.397965 0.845000 0.100133 0.113639
H39   H     H_    0.334879 0.848761 0.397002 0.116344
H40   H     H_    0.357615 0.155349 0.604166 0.118560

loop_
_geom_bond_atom_site_label_1
_geom_bond_atom_site_label_2
_ccdc_geom_bond_type
H17   C65   S    
H14   C22   S    
O9    V1    S    
O38   H30   S    
H13   C21   S    
C22   C30   A    
C16   C32   A    
C21   C29   A    
C63   C64   A    
C31   S8    S    
C36   H35   S    
H10   C18   S    
S2    O26   S    
C40   C48   A    
O4    C1    A    
H9    C17   S    
C15   C31   A    
H12   C20   S    
C39   H40   S    
C14   C38   A    
H3    C75   S    
C40   H39   S    
O12   C4    A    
O8    C5    A    
C8    C9    S    
C60   C67   A    
O13   C5    A    
S8    O42   D    
C11   C35   A    
O41   H31   S    
S5    O34   D    
C12   C36   A    
S3    O29   S    
H21   C69   S    
H6    C78   S    
C18   C26   A    
O3    V4    S    
C17   C25   A    
O16   V3    S    
C9    C25   A    
O8    V1    S    
C49   C73   A    
C38   C46   A    
C37   C45   A    
C44   C60   A    
C68   C76   A    
O32   H28   S    
C47   C55   A    
O23   H25   S    
C39   C47   A    
O10   V2    S    
O1    C4    A    
C53   C77   A    
C59   C60   A    
S7    O40   D    
O16   C8    A    
O2    C3    A    
H11   C19   S    
C55   C79   A    
S6    O37   D    
C19   C51   A    
S1    O23   S    
C33   C41   A    
C4    C13   S    
O10   C2    A    
O6    C7    A    
C34   H33   S    
O7    C6    A    
H16   C24   S    
C6    C11   S    
H24   C72   S    
O15   V4    S    
O14   C6    A    
S4    O32   S    
C62   C69   A    
C23   C31   A    
O20   V2    S    
C61   C70   A    
H20   C68   S    
C67   C75   A    
C58   C65   A    
O9    C1    A    
O7    V2    S    
C43   C59   A    
C57   C66   A    
C42   C58   A    
S6    O38   S    
S4    O31   D    
S5    O35   S    
C13   C29   A    
O44   H32   S    
O13   V3    S    
C44   C52   A    
O1    V3    S    
C32   S7    S    
O14   V4    S    
C24   C56   A    
O2    V4    S    
O5    V1    S    
C46   C62   A    
H19   C67   S    
C41   C49   A    
C63   C72   A    
H18   C66   S    
C1    C16   S    
C7    C10   S    
C2    C15   S    
C20   C52   A    
C3    C14   S    
C29   S6    S    
C48   C64   A    
S7    O39   D    
C56   C80   A    
C5    C12   S    
O11   C3    A    
C35   H36   S    
C22   C54   A    
C37   H38   S    
O17   V3    S    
S7    O41   S    
O18   V4    S    
C33   H34   S    
O35   H29   S    
O19   V1    S    
C46   C54   A    
S6    O36   D    
C13   C37   A    
H2    C74   S    
H1    C73   S    
C48   C56   A    
C9    C33   A    
C19   C27   A    
C45   C53   A    
H22   C70   S    
C11   C27   A    
C10   C26   A    
H7    C79   S    
S1    O21   D    
O26   H26   S    
C51   C75   A    
C50   C74   A    
C23   C55   A    
C16   C40   A    
O6    V2    S    
C15   C39   A    
C14   C30   A    
O3    C2    A    
S4    O30   D    
C54   C78   A    
C64   C71   A    
S2    O25   D    
S3    O27   D    
C72   C80   A    
O15   C7    A    
S2    O24   D    
O12   V1    S    
C21   C53   A    
C20   C28   A    
C35   C43   A    
C57   C58   A    
C34   C42   A    
C38   H37   S    
C43   C51   A    
O5    C8    A    
C10   C34   A    
C17   C49   A    
C24   C32   A    
C47   C63   A    
C61   C62   A    
S3    O28   D    
C18   C50   A    
C69   C77   A    
S8    O43   D    
C12   C28   A    
S8    O44   S    
C70   C78   A    
C59   C68   A    
H4    C76   S    
C27   S4    S    
C66   C74   A    
H23   C71   S    
C65   C73   A    
C25   S2    S    
C28   S3    S    
C26   S1    S    
C41   C57   A    
H8    C80   S    
H15   C23   S    
O29   H27   S    
O11   V2    S    
C36   C44   A    
C52   C76   A    
S5    O33   D    
H5    C77   S    
C42   C50   A    
C30   S5    S    
C45   C61   A    
S1    O22   D    
O4    V3    S    
C71   C79   A    
