data_mof_unit_58765.cif
_audit_creation_date              2012-12-10T17:04:34-0500
_audit_creation_method            fapswitch 2.2
_symmetry_space_group_name_H-M    P1
_symmetry_Int_Tables_number       1
_space_group_crystal_system       triclinic
_cell_length_a                    14.916835
_cell_length_b                    10.69961
_cell_length_c                    10.001758
_cell_angle_alpha                 91.715508
_cell_angle_beta                  89.27415
_cell_angle_gamma                 90.0905
_cell_volume                      1595.47908312

loop_
_atom_site_label
_atom_site_type_symbol
_atom_type_description
_atom_site_fract_x
_atom_site_fract_y
_atom_site_fract_z
_atom_type_partial_charge
C1    C     C_R   0.504182 0.262398 0.497358 0.863299
C2    C     C_R   0.187458 0.387638 0.475131 0.385026
C3    C     C_R   0.231771 0.500122 0.504949 -0.304357
C4    C     C_R   0.327137 0.501401 0.501156 1.046685
C5    C     C_R   0.185903 0.610039 0.542291 0.377523
C6    C     C_2   0.470614 0.930424 0.394836 -0.348810
C7    C     C_2   0.468956 0.868751 0.509014 0.428565
C8    C     C_2   0.460322 0.065824 0.401478 0.451336
C9    C     C_2   0.515502 0.128833 0.486100 0.316667
C10   C     C_2   0.560458 0.556535 0.925914 -0.296140
C11   C     C_2   0.552468 0.572503 0.077485 0.546446
C12   C     C_R   0.905452 0.608604 0.531733 0.137145
C13   C     C_R   0.493191 0.737772 0.502717 0.827337
C14   C     C_R   0.672882 0.498733 0.498856 0.949676
C15   C     C_R   0.812802 0.606092 0.534776 -0.339257
C16   C     C_R   0.768107 0.497503 0.495139 -0.163115
C17   C     C_R   0.813598 0.390305 0.447883 0.424790
C18   C     C_R   0.907074 0.388235 0.455103 0.025198
C19   C     C_R   0.953108 0.498606 0.495297 0.049560
C20   C     C_3   0.480508 0.907343 0.740407 -0.271634
C21   C     C_3   0.339185 0.049421 0.254263 -0.244303
C22   C     C_3   0.633483 0.135071 0.641750 -0.273940
C23   C     C_R   0.955119 0.278452 0.424419 -0.220876
C24   C     C_3   0.610415 0.772730 0.085004 -0.348195
C25   C     C_3   0.761146 0.282533 0.265582 -0.302153
C26   C     C_3   0.247537 0.216251 0.567630 -0.280090
C27   C     C_3   0.240377 0.732467 0.712862 -0.308978
C28   C     C_R   0.047879 0.278131 0.430817 -0.187854
C29   C     C_R   0.094233 0.387450 0.468559 0.015537
C30   C     C_R   0.046677 0.498894 0.500181 -0.057692
C31   C     C_R   0.092404 0.610632 0.536825 0.015627
C32   C     C_R   0.043853 0.720685 0.565886 -0.173758
C33   C     C_R   0.950905 0.719030 0.565578 -0.220117
H1    H     H_    0.488465 0.886330 0.299022 0.135101
H2    H     H_    0.662994 0.222641 0.603826 0.209231
H3    H     H_    0.689661 0.077600 0.677434 0.174549
H4    H     H_    0.618069 0.596753 0.875946 0.187406
H5    H     H_    0.442755 0.472830 0.898093 0.152336
H6    H     H_    0.542941 0.803460 0.052443 0.133896
H7    H     H_    0.658799 0.770859 0.999701 0.156515
H8    H     H_    0.634763 0.843935 0.158895 0.198466
H9    H     H_    0.466921 0.430349 0.099113 0.113461
H10   H     H_    0.717110 0.203784 0.233684 0.190721
H11   H     H_    0.828182 0.266392 0.218504 0.154330
H12   H     H_    0.775073 0.688782 0.566288 0.160291
H13   H     H_    0.731615 0.369732 0.227398 0.189466
H14   H     H_    0.921321 0.192118 0.396411 0.187658
H15   H     H_    0.083076 0.191952 0.405699 0.184726
H16   H     H_    0.290708 0.270888 0.637889 0.165238
H17   H     H_    0.281550 0.125919 0.544900 0.226472
H18   H     H_    0.182210 0.194561 0.616830 0.141191
H19   H     H_    0.280474 0.655975 0.754902 0.180525
H20   H     H_    0.173614 0.736882 0.763529 0.144254
H21   H     H_    0.275342 0.821757 0.736602 0.215171
H22   H     H_    0.077283 0.808163 0.590292 0.180378
H23   H     H_    0.553476 0.892674 0.720798 0.178533
H24   H     H_    0.914543 0.804195 0.591398 0.145953
H25   H     H_    0.451726 0.827807 0.795475 0.174892
H26   H     H_    0.473753 0.991560 0.807126 0.162944
H27   H     H_    0.302966 0.983616 0.320064 0.178565
H28   H     H_    0.377395 0.998203 0.173771 0.131354
H29   H     H_    0.287967 0.106966 0.205423 0.203120
H30   H     H_    0.588099 0.154284 0.728876 0.166434
N1    N     N_2   0.500970 0.501330 0.852150 -0.216106
N2    N     N_2   0.500990 0.501360 0.147810 -0.225817
O1    O     O_R   0.499990 0.319060 0.613040 -0.641695
O2    O     O_3   0.395944 0.129837 0.328960 -0.598091
O3    O     O_3   0.588883 0.066320 0.540028 -0.645840
O4    O     O_3   0.607695 0.655902 0.146837 -0.555601
O5    O     O_3   0.765882 0.285181 0.406529 -0.634988
O6    O     O_3   0.235936 0.279405 0.447080 -0.584449
O7    O     O_3   0.233243 0.718702 0.572503 -0.608674
O8    O     O_R   0.500010 0.319100 0.386900 -0.582427
O9    O     O_R   0.367830 0.499950 0.613080 -0.645878
O10   O     O_R   0.367860 0.499990 0.386940 -0.595422
O11   O     O_R   0.499990 0.680900 0.613100 -0.620875
O12   O     O_R   0.500010 0.680940 0.386960 -0.600291
O13   O     O_R   0.632140 0.500010 0.613060 -0.631745
O14   O     O_R   0.632170 0.500050 0.386920 -0.575613
O15   O     O_3   0.430879 0.926958 0.623466 -0.621129
Zn1   Zn    Zn3+2 0.499980 0.499970 0.650990 0.923127
Zn2   Zn    Zn3+2 0.500020 0.500030 0.349010 1.019184

loop_
_geom_bond_atom_site_label_1
_geom_bond_atom_site_label_2
_ccdc_geom_bond_type
C24   H8    S    
C20   H23   S    
C25   H10   S    
C27   H21   S    
C22   H2    S    
C2    C29   A    
C28   C29   A    
C5    O7    S    
C26   H17   S    
C30   C31   A    
C15   C16   A    
C24   H6    S    
C18   C19   A    
C4    O10   A    
C22   H30   S    
C8    C9    D    
H9    N2    S    
C12   C15   A    
C32   H22   S    
C4    O9    A    
C17   O5    S    
C21   O2    S    
C26   O6    S    
C25   H11   S    
C24   O4    S    
C1    O1    A    
H5    N1    S    
C13   O12   A    
C23   H14   S    
C20   O15   S    
C18   C23   A    
C1    C9    S    
C21   H27   S    
C26   H16   S    
C16   C17   A    
C6    C8    S    
C14   O14   A    
C6    H1    S    
C29   C30   A    
C31   C32   A    
C13   O11   A    
C11   O4    S    
C17   C18   A    
C23   C28   A    
C20   H26   S    
C22   O3    S    
C21   H29   S    
C10   H4    S    
C14   C16   S    
C15   H12   S    
O9    Zn1   S    
C20   H25   S    
C2    O6    S    
O8    Zn2   S    
C27   H19   S    
C28   H15   S    
C33   H24   S    
C21   H28   S    
C10   N1    D    
C3    C5    A    
O11   Zn1   S    
O14   Zn2   S    
C27   H20   S    
O10   Zn2   S    
C6    C7    D    
C22   H3    S    
C1    O8    A    
C32   C33   A    
C2    C3    A    
C9    O3    S    
C26   H18   S    
O1    Zn1   S    
O13   Zn1   S    
N2    Zn2   S    
O12   Zn2   S    
C12   C19   A    
C24   H7    S    
C14   O13   A    
N1    Zn1   S    
C10   C11   S    
C11   N2    D    
C7    C13   S    
C8    O2    S    
C25   O5    S    
C12   C33   A    
C19   C30   A    
C25   H13   S    
C27   O7    S    
C3    C4    S    
C7    O15   S    
C5    C31   A    
