data_mof_unit_34869.cif
_audit_creation_date              2012-12-10T17:47:45-0500
_audit_creation_method            fapswitch 2.2
_symmetry_space_group_name_H-M    P1
_symmetry_Int_Tables_number       1
_space_group_crystal_system       triclinic
_cell_length_a                    10.770907
_cell_length_b                    10.704778
_cell_length_c                    9.9604
_cell_angle_alpha                 89.926164
_cell_angle_beta                  90.205311
_cell_angle_gamma                 93.699132
_cell_volume                      1146.03513898

loop_
_atom_site_label
_atom_site_type_symbol
_atom_type_description
_atom_site_fract_x
_atom_site_fract_y
_atom_site_fract_z
_atom_type_partial_charge
C1    C     C_R   0.513846 0.261544 0.500842 0.976482
C2    C     C_R   0.530376 0.062773 0.627937 -0.131777
C3    C     C_R   0.532465 0.128917 0.504069 -0.167262
C4    C     C_R   0.257639 0.499458 0.499388 1.221731
C5    C     C_R   0.526795 0.063860 0.382156 0.694679
C6    C     C_R   0.506266 0.936540 0.382682 -0.173375
C7    C     C_R   0.482775 0.873148 0.503394 -0.083457
C8    C     C_R   0.352409 0.311732 0.137152 0.655171
C9    C     C_R   0.294126 0.211953 0.068760 0.422626
C10   C     C_R   0.291739 0.212174 0.930437 0.166318
C11   C     C_R   0.350670 0.312111 0.862182 0.660149
C12   C     C_3   0.877811 0.497356 0.498736 -0.727506
C13   C     C_R   0.427631 0.407813 0.927603 -0.238655
C14   C     C_R   0.428014 0.407764 0.071920 -0.183389
C15   C     C_R   0.569504 0.587177 0.072415 0.463393
C16   C     C_R   0.490183 0.739273 0.500652 0.959678
C17   C     C_R   0.569294 0.586525 0.928303 0.617358
C18   C     C_R   0.741759 0.499196 0.499929 1.081352
C19   C     C_3   0.065526 0.395755 0.599564 0.922129
C20   C     C_3   0.920918 0.381873 0.585223 0.548549
C21   C     C_3   0.079577 0.632131 0.537093 0.631392
C22   C     C_3   0.067541 0.465896 0.352104 0.743156
C23   C     C_3   0.935763 0.626142 0.553725 0.888071
C24   C     C_3   0.120348 0.498620 0.497906 -0.648073
C25   C     C_3   0.924945 0.480818 0.349379 0.819862
C26   C     C_R   0.575572 0.114119 0.751719 0.380143
C27   C     C_R   0.541482 0.053781 0.873157 0.342436
C28   C     C_R   0.462619 0.944365 0.871472 0.287675
C29   C     C_R   0.432658 0.887381 0.748791 0.678934
C30   C     C_R   0.479969 0.939299 0.626733 -0.187219
F1    F     F_    0.115542 0.716423 0.435927 -0.568668
F2    F     F_    0.640423 0.673856 0.859530 -0.611728
F3    F     F_    0.905150 0.643633 0.686974 -0.615109
F4    F     F_    0.125258 0.544118 0.255635 -0.590150
F5    F     F_    0.865817 0.373802 0.293167 -0.554997
F6    F     F_    0.887191 0.725148 0.485489 -0.558807
F7    F     F_    0.542697 0.122550 0.262030 -0.583274
F8    F     F_    0.582574 0.102895 0.992079 -0.608851
F9    F     F_    0.350024 0.786468 0.750040 -0.571295
F10   F     F_    0.113713 0.282001 0.568241 -0.452070
F11   F     F_    0.319288 0.314305 0.265098 -0.552872
F12   F     F_    0.229287 0.120562 0.139021 -0.542067
F13   F     F_    0.318308 0.314157 0.733565 -0.531071
H1    H     H_    0.509756 0.887728 0.287765 0.214033
H2    H     H_    0.119509 0.764292 0.666678 0.436612
H3    H     H_    0.077972 0.331587 0.221434 0.409627
H4    H     H_    0.061698 0.494641 0.767606 0.361971
H5    H     H_    0.951013 0.654415 0.278229 0.418409
H6    H     H_    0.679565 0.243488 0.843963 0.410616
H7    H     H_    0.438783 0.943139 0.064945 0.401703
H8    H     H_    0.685597 0.734088 0.081455 0.392054
H9    H     H_    0.190524 0.054318 0.918748 0.415764
H10   H     H_    0.797312 0.254877 0.518211 0.371683
H11   H     H_    0.862823 0.449841 0.758954 0.386384
N1    N     N_R   0.498810 0.498800 0.142780 -0.100627
N2    N     N_R   0.498760 0.498720 0.857170 -0.122370
O1    O     O_R   0.500000 0.316780 0.614690 -0.564434
O2    O     O_3   0.892686 0.580343 0.265059 -0.609654
O3    O     O_3   0.660519 0.216206 0.750749 -0.674229
O4    O     O_3   0.415736 0.888696 0.987334 -0.658947
O5    O     O_3   0.640599 0.675677 0.144363 -0.664980
O6    O     O_3   0.225460 0.120344 0.857345 -0.607256
O7    O     O_3   0.889261 0.269238 0.516274 -0.540952
O8    O     O_3   0.865206 0.368606 0.713338 -0.659547
O9    O     O_3   0.138426 0.675263 0.655929 -0.655552
O10   O     O_3   0.090849 0.341676 0.319730 -0.559773
O11   O     O_R   0.499990 0.316750 0.385360 -0.528405
O12   O     O_R   0.314800 0.499990 0.614670 -0.509960
O13   O     O_R   0.314790 0.499970 0.385330 -0.521037
O14   O     O_R   0.500010 0.683250 0.614640 -0.547099
O15   O     O_R   0.500000 0.683220 0.385310 -0.600018
O16   O     O_R   0.685210 0.500030 0.614670 -0.570305
O17   O     O_R   0.685200 0.500010 0.385330 -0.525111
O18   O     O_3   0.102879 0.421491 0.733365 -0.635290
Zn1   Zn    Zn3+2 0.500010 0.500020 0.653130 1.170320
Zn2   Zn    Zn3+2 0.499990 0.499980 0.346870 1.186759

loop_
_geom_bond_atom_site_label_1
_geom_bond_atom_site_label_2
_ccdc_geom_bond_type
C5    F7    S    
C11   C13   A    
C19   C20   S    
H8    O5    S    
O12   Zn1   S    
C21   F1    S    
C12   C23   S    
C9    F12   S    
C28   C29   A    
H3    O10   S    
C5    C6    A    
C4    C24   S    
C27   F8    S    
O13   Zn2   S    
C22   O10   S    
C8    C9    A    
C23   F3    S    
C22   C25   S    
C11   F13   S    
C9    C10   A    
C13   N2    A    
C14   N1    A    
C7    C30   A    
C6    H1    S    
C13   C14   A    
C29   F9    S    
C10   O6    S    
C16   O15   A    
O16   Zn1   S    
C4    O13   A    
C28   O4    S    
C18   O16   A    
C22   F4    S    
C16   O14   A    
C8    F11   S    
C19   F10   S    
C4    O12   A    
C26   C27   A    
C1    C3    S    
C15   N1    A    
C20   O8    S    
C29   C30   A    
C1    O1    A    
C12   C20   S    
C15   O5    S    
C2    C26   A    
C17   N2    A    
C25   F5    S    
N1    Zn2   S    
C7    C16   S    
C18   O17   A    
C21   C23   S    
H2    O9    S    
O17   Zn2   S    
C22   C24   S    
C25   O2    S    
C27   C28   A    
C26   O3    S    
C15   C17   A    
C8    C14   A    
C21   O9    S    
C19   O18   S    
H4    O18   S    
C3    C5    A    
H5    O2    S    
C6    C7    A    
H6    O3    S    
C12   C25   S    
C2    C30   A    
H7    O4    S    
O1    Zn1   S    
C20   O7    S    
C2    C3    A    
H9    O6    S    
H10   O7    S    
O15   Zn2   S    
H11   O8    S    
C1    O11   A    
C19   C24   S    
C10   C11   A    
C23   F6    S    
C21   C24   S    
C12   C18   S    
O14   Zn1   S    
N2    Zn1   S    
C17   F2    S    
O11   Zn2   S    
