data_mof_unit_55793.cif
_audit_creation_date              2012-12-11T16:44:20-0500
_audit_creation_method            fapswitch 2.2
_symmetry_space_group_name_H-M    P1
_symmetry_Int_Tables_number       1
_space_group_crystal_system       triclinic
_cell_length_a                    27.270195
_cell_length_b                    7.195428
_cell_length_c                    22.795999
_cell_angle_alpha                 90.034801
_cell_angle_beta                  101.405608
_cell_angle_gamma                 89.943719
_cell_volume                      4384.71040858

loop_
_atom_site_label
_atom_site_type_symbol
_atom_type_description
_atom_site_fract_x
_atom_site_fract_y
_atom_site_fract_z
_atom_type_partial_charge
O1    O     O_R   0.707300 0.594030 0.176840 -0.530942
O2    O     O_R   0.292700 0.405970 0.823160 -0.549609
O3    O     O_R   0.792700 0.094030 0.323160 -0.521383
O4    O     O_R   0.207300 0.905970 0.676840 -0.540419
O5    O     O_R   0.697330 0.262360 0.295660 -0.544200
O6    O     O_R   0.302670 0.737640 0.704340 -0.540615
O7    O     O_R   0.802670 0.762360 0.204340 -0.542406
O8    O     O_R   0.197330 0.237640 0.795660 -0.538382
C1    C     C_R   0.685139 0.432715 0.312285 0.730274
C2    C     C_R   0.314880 0.567287 0.687739 0.737260
C3    C     C_R   0.815554 0.932638 0.188669 0.726423
C4    C     C_R   0.184447 0.067371 0.811333 0.733519
O9    O     O_R   0.701410 0.264250 0.175600 -0.553020
O10   O     O_R   0.298590 0.735750 0.824400 -0.538499
O11   O     O_R   0.798590 0.764250 0.324400 -0.543898
O12   O     O_R   0.201410 0.235750 0.675600 -0.528376
O13   O     O_R   0.796800 0.094950 0.202240 -0.500582
O14   O     O_R   0.203200 0.905050 0.797760 -0.504299
O15   O     O_R   0.703200 0.594950 0.297760 -0.497134
O16   O     O_R   0.296800 0.405050 0.702240 -0.500992
C5    C     C_R   0.689690 0.432580 0.153492 0.725550
C6    C     C_R   0.310329 0.567071 0.846419 0.732182
C7    C     C_R   0.810306 0.932538 0.346520 0.773233
C8    C     C_R   0.189668 0.067111 0.653580 0.780292
O17   O     O_3   0.781290 0.427390 0.258880 -0.357671
O18   O     O_3   0.218710 0.572610 0.741120 -0.360590
O19   O     O_3   0.718710 0.927390 0.241120 -0.373716
O20   O     O_3   0.281290 0.072610 0.758880 -0.377408
V1    V     V_3+5 0.744190 0.152150 0.248350 1.555832
V2    V     V_3+5 0.255810 0.847850 0.751650 1.549593
V3    V     V_3+5 0.755810 0.652150 0.251650 1.568862
V4    V     V_3+5 0.244190 0.347850 0.748350 1.564472
C9    C     C_R   0.154228 0.056852 0.595641 -0.067158
C10   C     C_R   0.845712 0.936434 0.404690 -0.070447
C11   C     C_R   0.345732 0.556555 0.904381 -0.049712
C12   C     C_R   0.654275 0.436762 0.095335 -0.053758
C13   C     C_R   0.141267 0.031232 0.487955 -0.152014
C14   C     C_R   0.862858 0.854569 0.509629 -0.156211
C15   C     C_R   0.358623 0.527173 0.011957 -0.157428
C16   C     C_R   0.637353 0.357880 0.990140 -0.160879
C17   C     C_R   0.173324 0.037253 0.543531 -0.232674
C18   C     C_R   0.830530 0.858625 0.454278 -0.227680
C19   C     C_R   0.326616 0.534180 0.956363 -0.251672
C20   C     C_R   0.669625 0.360826 0.045542 -0.246438
C21   C     C_R   0.102022 0.068305 0.592155 0.271194
C22   C     C_R   0.894597 0.008808 0.410497 0.267823
C23   C     C_R   0.397921 0.569594 0.908004 0.263022
C24   C     C_R   0.605279 0.508245 0.089689 0.262099
C25   C     C_R   0.068415 0.036441 0.535925 -0.012170
C26   C     C_R   0.930607 0.979832 0.465104 -0.014771
C27   C     C_R   0.431532 0.536470 0.964147 -0.011811
C28   C     C_R   0.569368 0.480309 0.034949 -0.014135
C29   C     C_R   0.089258 0.030532 0.483616 0.103932
C30   C     C_R   0.912573 0.913193 0.515497 0.105642
C31   C     C_R   0.410638 0.527955 0.016383 0.110514
C32   C     C_R   0.587554 0.415749 0.984379 0.111230
C33   C     C_R   0.015614 0.003215 0.529489 0.058318
C34   C     C_R   0.983718 0.005339 0.471288 0.057723
C35   C     C_R   0.484388 0.504250 0.970536 0.061891
C36   C     C_R   0.516222 0.504931 0.028774 0.061639
C37   C     C_R   0.006605 0.008079 0.421017 -0.187868
C38   C     C_R   0.994878 0.944224 0.578253 -0.188439
C39   C     C_R   0.493279 0.505318 0.079007 -0.199197
C40   C     C_R   0.505264 0.447484 0.921605 -0.199407
C41   C     C_R   0.058240 0.017605 0.427200 -0.165073
C42   C     C_R   0.944653 0.897854 0.571126 -0.167528
C43   C     C_R   0.441624 0.513761 0.072782 -0.177242
C44   C     C_R   0.555554 0.401790 0.928654 -0.178854
H1    H     H_    0.074142 0.011662 0.387245 0.137699
H2    H     H_    0.930969 0.845637 0.609506 0.138264
H3    H     H_    0.425687 0.505884 0.112675 0.129538
H4    H     H_    0.569356 0.351217 0.890125 0.129883
H5    H     H_    0.792945 0.804479 0.450347 0.164224
H6    H     H_    0.213374 0.031582 0.545838 0.160917
H7    H     H_    0.707300 0.307445 0.049354 0.130738
H8    H     H_    0.286573 0.527046 0.953960 0.127625
H9    H     H_    0.157267 0.022103 0.448141 0.139426
H10   H     H_    0.849386 0.798898 0.547690 0.139203
H11   H     H_    0.342591 0.515938 0.051691 0.131032
H12   H     H_    0.650949 0.303760 0.951928 0.131271
H13   H     H_    0.985544 0.986493 0.376242 0.180340
H14   H     H_    0.017797 0.916904 0.621669 0.183215
H15   H     H_    0.514339 0.482607 0.123719 0.171678
H16   H     H_    0.482425 0.421318 0.878063 0.173297
C45   C     C_R   0.880112 0.112460 0.145673 0.619026
C46   C     C_R   0.119899 0.887616 0.854368 0.615599
C47   C     C_R   0.640063 0.610844 0.381704 0.610110
C48   C     C_R   0.360054 0.389161 0.618416 0.608297
C49   C     C_R   0.915663 0.122986 0.109143 -0.224019
C50   C     C_R   0.084358 0.877145 0.890910 -0.221808
C51   C     C_R   0.604167 0.621087 0.417719 -0.217915
C52   C     C_R   0.395982 0.378962 0.582444 -0.218345
H17   H     H_    0.934489 0.254033 0.105976 0.171027
H18   H     H_    0.065531 0.746110 0.894097 0.171088
H19   H     H_    0.600218 0.749895 0.440985 0.173674
H20   H     H_    0.399963 0.250145 0.559198 0.173358
C53   C     C_R   0.927355 0.966802 0.077563 0.075205
C54   C     C_R   0.072679 0.033358 0.922485 0.075395
C55   C     C_R   0.574289 0.467131 0.424689 0.073598
C56   C     C_R   0.425848 0.532968 0.575490 0.073572
C57   C     C_R   0.902745 0.798289 0.083764 -0.051604
C58   C     C_R   0.097293 0.201849 0.916267 -0.052149
C59   C     C_R   0.581167 0.301336 0.394557 -0.052211
C60   C     C_R   0.418930 0.698760 0.605604 -0.053780
H21   H     H_    0.910223 0.675944 0.059268 0.167662
H22   H     H_    0.089827 0.324212 0.940760 0.167278
H23   H     H_    0.558159 0.180936 0.398153 0.167768
H24   H     H_    0.441930 0.819199 0.602027 0.167959
C61   C     C_R   0.867155 0.786806 0.120418 -0.250153
C62   C     C_R   0.132876 0.213279 0.879600 -0.247671
C63   C     C_R   0.617173 0.290040 0.358436 -0.243946
C64   C     C_R   0.382891 0.710013 0.641680 -0.237369
H25   H     H_    0.848516 0.655330 0.123407 0.191111
H26   H     H_    0.151525 0.344734 0.876606 0.189686
H27   H     H_    0.621167 0.160397 0.335683 0.189422
H28   H     H_    0.378867 0.839652 0.664423 0.190431
C65   C     C_R   0.854918 0.943858 0.151546 -0.172631
C66   C     C_R   0.145094 0.056197 0.848471 -0.167079
C67   C     C_R   0.647050 0.444635 0.351156 -0.169850
C68   C     C_R   0.353014 0.555385 0.648928 -0.170979
C69   C     C_R   0.001475 0.845100 0.037532 0.662337
C70   C     C_R   0.998573 0.155111 0.962534 0.662953
C71   C     C_R   0.530175 0.340809 0.503938 0.662552
C72   C     C_R   0.469988 0.659356 0.496271 0.662127
C73   C     C_R   0.036322 0.863196 0.000215 -0.292079
C74   C     C_R   0.963726 0.137017 0.999853 -0.291811
C75   C     C_R   0.494638 0.359125 0.540329 -0.287450
C76   C     C_R   0.505525 0.641038 0.459880 -0.287561
H29   H     H_    0.064640 0.756722 0.001654 0.174291
H30   H     H_    0.935408 0.243489 0.998414 0.174500
H31   H     H_    0.491445 0.249276 0.571823 0.178360
H32   H     H_    0.508719 0.750877 0.428383 0.178324
C77   C     C_R   0.035466 0.018091 0.962323 -0.105252
C78   C     C_R   0.964579 0.982112 0.037740 -0.104919
C79   C     C_R   0.464146 0.518249 0.537121 -0.109161
C80   C     C_R   0.536012 0.481905 0.463083 -0.109732
F1    F     F_    0.005005 0.696457 0.074770 -0.675461
F2    F     F_    0.995042 0.303752 0.925295 -0.674689
F3    F     F_    0.559888 0.187749 0.510246 -0.676253
F4    F     F_    0.440274 0.812417 0.489960 -0.677038
O21   O     O_3   0.904530 0.114820 0.363869 -0.643394
H33   H     H_    0.928071 0.214417 0.381270 0.299189
O22   O     O_3   0.085850 0.124528 0.642970 -0.652351
H34   H     H_    0.055598 0.202279 0.630158 0.298031
O23   O     O_3   0.595144 0.612615 0.136616 -0.659149
H35   H     H_    0.571450 0.712191 0.119497 0.290917
O24   O     O_3   0.414044 0.628229 0.857444 -0.664967
H36   H     H_    0.444205 0.706035 0.870598 0.290102
F5    F     F_    0.871131 0.267795 0.175713 -0.674515
F6    F     F_    0.128877 0.732236 0.824347 -0.678184
F7    F     F_    0.668385 0.763869 0.378011 -0.691699
F8    F     F_    0.331753 0.236071 0.622102 -0.691934

loop_
_geom_bond_atom_site_label_1
_geom_bond_atom_site_label_2
_ccdc_geom_bond_type
O17   V3    S    
C55   C59   A    
O1    C5    A    
C47   C51   A    
O19   V1    S    
C9    C21   A    
O3    C7    A    
O24   H36   S    
C10   C18   A    
O1    V3    S    
O15   V3    S    
C62   C66   A    
O23   H35   S    
C61   C65   A    
C33   C38   A    
C5    C12   S    
O7    C3    A    
C6    C11   S    
C54   C77   S    
C35   C40   A    
C26   C30   A    
C36   C39   A    
C40   C44   A    
O2    V4    S    
O9    V1    S    
C75   C79   A    
C14   C18   A    
C76   C80   A    
O4    C8    A    
C25   C29   A    
C74   H30   S    
C57   C61   A    
O22   H34   S    
C71   F3    S    
C60   H24   S    
C52   H20   S    
O13   V1    S    
C59   C63   A    
C69   F1    S    
O3    V1    S    
C40   H16   S    
C28   C36   A    
C17   H6    S    
C1    O15   A    
C56   C60   A    
C15   C31   A    
C48   C52   A    
C2    O16   A    
C16   C32   A    
O2    C6    A    
C16   H12   S    
C58   H22   S    
C10   C22   A    
C69   C78   A    
C48   C68   A    
C11   C19   A    
C62   H26   S    
C16   C20   A    
C27   C31   A    
C56   C79   S    
C44   H4    S    
C72   C76   A    
C13   C29   A    
C34   C37   A    
O11   C7    A    
C38   H14   S    
C11   C23   A    
C35   C36   A    
O12   C8    A    
C47   F7    S    
C49   H17   S    
C48   F8    S    
C53   C78   S    
O10   V2    S    
C76   H32   S    
C12   C20   A    
C50   H18   S    
C22   O21   S    
O5    V1    S    
C57   H21   S    
C39   C43   A    
O7    V3    S    
C38   C42   A    
O8    V4    S    
C70   F2    S    
C46   C50   A    
C60   C64   A    
C45   C49   A    
O18   V4    S    
C15   C19   A    
C14   H10   S    
C32   C44   A    
C13   H9    S    
O4    V2    S    
C49   C53   A    
C26   C34   A    
C37   H13   S    
C70   C74   A    
C20   H7    S    
C70   C77   A    
C47   C67   A    
C23   C27   A    
C63   H27   S    
C71   C75   A    
C14   C30   A    
C21   C25   A    
O8    C4    A    
C7    C10   S    
C39   H15   S    
C24   O23   S    
O9    C5    A    
C46   C66   A    
C45   C65   A    
C4    C66   S    
C63   C67   A    
O6    V2    S    
C69   C73   A    
O14   V2    S    
C1    C67   S    
C58   C62   A    
C27   C35   A    
C3    C65   S    
C64   H28   S    
C29   C41   A    
C52   C56   A    
C64   C68   A    
O16   V4    S    
C73   C77   A    
C19   H8    S    
C3    O13   A    
C18   H5    S    
C72   C79   A    
C72   F4    S    
O5    C1    A    
O6    C2    A    
C25   C33   A    
C31   C43   A    
O11   V3    S    
C30   C42   A    
C61   H25   S    
O12   V4    S    
C45   F5    S    
C22   C26   A    
C8    C9    S    
C71   C80   A    
C9    C17   A    
O10   C6    A    
C46   F6    S    
C23   O24   S    
C54   C58   A    
O21   H33   S    
C33   C34   A    
C42   H2    S    
C41   H1    S    
O20   V2    S    
C55   C80   S    
C12   C24   A    
C43   H3    S    
C37   C41   A    
C13   C17   A    
C75   H31   S    
C2    C68   S    
C51   H19   S    
C73   H29   S    
C24   C28   A    
C74   C78   A    
C4    O14   A    
C21   O22   S    
C59   H23   S    
C51   C55   A    
C50   C54   A    
C53   C57   A    
C28   C32   A    
C15   H11   S    
