data_mof_unit_33136.cif
_audit_creation_date              2012-12-11T16:53:30-0500
_audit_creation_method            fapswitch 2.2
_symmetry_space_group_name_H-M    P1
_symmetry_Int_Tables_number       1
_space_group_crystal_system       triclinic
_cell_length_a                    14.873248
_cell_length_b                    14.767229
_cell_length_c                    17.060871
_cell_angle_alpha                 108.758837
_cell_angle_beta                  106.340293
_cell_angle_gamma                 108.161661
_cell_volume                      3053.14828811

loop_
_atom_site_label
_atom_site_type_symbol
_atom_type_description
_atom_site_fract_x
_atom_site_fract_y
_atom_site_fract_z
_atom_type_partial_charge
C1    C     C_R   0.088084 0.286476 0.076754 -0.136964
C2    C     C_R   0.029505 0.603363 0.759153 -0.013125
C3    C     C_R   0.764527 0.192052 0.729042 -0.000492
C4    C     C_R   0.276846 0.448685 0.954910 0.068798
C5    C     C_R   0.266668 0.692665 0.257601 -0.181210
C6    C     C_R   0.704573 0.501664 0.919832 -0.041371
C7    C     C_R   0.889319 0.445313 0.188449 -0.128983
C8    C     C_R   0.078793 0.809327 0.038202 -0.146980
C9    C     C_R   0.906649 0.723731 0.961011 0.054344
C10   C     C_R   0.063787 0.535220 0.264942 -0.051144
C11   C     C_R   0.279764 0.787667 0.179882 0.229912
C12   C     C_R   0.937716 0.543770 0.760939 0.436497
C13   C     C_R   0.699440 0.409518 0.999946 -0.133519
C14   C     C_R   0.327416 0.789786 0.264777 -0.024235
C15   C     C_R   0.640540 0.442726 0.947886 0.090277
C16   C     C_R   0.971578 0.505095 0.275289 0.130357
C17   C     C_R   0.989400 0.825140 0.013413 0.018779
C18   C     C_R   0.387961 0.457230 0.869942 0.097336
C19   C     C_R   0.339684 0.408470 0.915131 0.093209
C20   C     C_R   0.372128 0.337247 0.938650 -0.189166
C21   C     C_R   0.466870 0.338237 0.939568 -0.176169
C22   C     C_R   0.528849 0.410713 0.917230 0.077288
C23   C     C_R   0.778915 0.201595 0.815666 -0.194280
C24   C     C_R   0.482666 0.460762 0.873700 -0.021455
C25   C     C_3   0.522892 0.570768 0.880208 0.350297
C26   C     C_3   0.418467 0.566578 0.874512 -0.582773
C27   C     C_R   0.965736 0.535987 0.363214 -0.058756
C28   C     C_R   0.043557 0.641652 0.691817 0.176860
C29   C     C_R   0.145049 0.649392 0.604754 -0.115214
C30   C     C_R   0.140748 0.669267 0.687786 -0.193262
C31   C     C_R   0.957251 0.624326 0.618317 -0.235876
C32   C     C_R   0.961126 0.608065 0.533991 0.004540
C33   C     C_R   0.053250 0.607563 0.526304 0.047654
C34   C     C_R   0.245496 0.522087 0.939617 -0.147101
C35   C     C_R   0.050443 0.558735 0.440864 0.360669
C36   C     C_R   0.879125 0.550049 0.370998 -0.233427
C37   C     C_R   0.873252 0.582273 0.455753 0.187151
C38   C     C_R   0.730942 0.090707 0.646976 0.041632
C39   C     C_R   0.430844 0.868073 0.341725 0.142839
C40   C     C_R   0.583826 0.038611 0.415726 -0.165046
C41   C     C_R   0.483388 0.969770 0.348969 -0.201810
C42   C     C_R   0.476477 0.843353 0.411574 -0.227415
C43   C     C_R   0.570351 0.919545 0.486728 0.128726
C44   C     C_R   0.625849 0.016114 0.486926 0.179030
C45   C     C_R   0.778479 0.294203 0.734194 0.199364
C46   C     C_R   0.715023 0.094778 0.564223 -0.294053
C47   C     C_R   0.693694 0.987732 0.643787 0.227942
C48   C     C_R   0.609360 0.902665 0.562943 -0.243628
C49   C     C_R   0.091842 0.113167 0.139591 0.142059
C50   C     C_R   0.000417 0.118617 0.093429 -0.010625
C51   C     C_R   0.906747 0.052289 0.091617 -0.319380
C52   C     C_R   0.908873 0.996844 0.145311 0.490709
C53   C     C_R   0.003618 0.004061 0.199578 -0.002270
C54   C     C_R   0.092395 0.055138 0.189455 0.062005
C55   C     C_3   0.199895 0.131580 0.260404 -0.424372
C56   C     C_R   0.248810 0.432743 0.022436 -0.110272
C57   C     C_3   0.199660 0.197405 0.207886 -0.489860
C58   C     C_R   0.109033 0.610746 0.828840 -0.247025
C59   C     C_R   0.915814 0.202570 0.002348 -0.141219
C60   C     C_R   0.001984 0.193967 0.052412 0.112439
H1    H     H_    0.166098 0.315659 0.127080 0.101595
H2    H     H_    0.680596 0.524465 0.866209 0.108459
H3    H     H_    0.806701 0.408859 0.171053 0.102830
H4    H     H_    0.157078 0.872127 0.078576 0.125994
H5    H     H_    0.825175 0.705139 0.928548 0.148088
H6    H     H_    0.141824 0.586315 0.317700 0.143069
H7    H     H_    0.671239 0.349623 0.021829 0.089137
H8    H     H_    0.332501 0.291417 0.967307 0.121469
H9    H     H_    0.495901 0.291619 0.967532 0.119337
H10   H     H_    0.536787 0.573202 0.820063 0.070204
H11   H     H_    0.424880 0.627221 0.937493 0.239113
H12   H     H_    0.371012 0.564167 0.809879 0.172353
H13   H     H_    0.816038 0.533520 0.310054 0.162242
H14   H     H_    0.219129 0.660199 0.601495 0.172529
H15   H     H_    0.211787 0.692138 0.744818 0.121057
H16   H     H_    0.884647 0.612419 0.623270 0.184135
H17   H     H_    0.762881 0.164883 0.562940 0.173014
H18   H     H_    0.765849 0.140043 0.837452 0.114900
H19   H     H_    0.623760 0.113385 0.415659 0.125917
H20   H     H_    0.572232 0.825392 0.560564 0.145635
H21   H     H_    0.447537 0.999091 0.305224 0.115901
H22   H     H_    0.437828 0.767960 0.411200 0.123179
H23   H     H_    0.832917 0.049483 0.054988 0.174349
H24   H     H_    0.202288 0.171343 0.328985 0.210416
H25   H     H_    0.255863 0.096436 0.258746 0.179102
H26   H     H_    0.201270 0.274795 0.247124 0.216617
H27   H     H_    0.247938 0.547528 0.887687 0.121396
H28   H     H_    0.257534 0.202486 0.178080 0.184371
H29   H     H_    0.260727 0.379798 0.051040 0.091823
H30   H     H_    0.190799 0.663108 0.855592 0.128524
H31   H     H_    0.835153 0.153783 0.984565 0.096525
H32   H     H_    0.287547 0.657091 0.301622 0.120843
N1    N     N_R   0.055640 0.348550 0.045600 -0.042782
N2    N     N_R   0.798340 0.505430 0.954400 -0.048722
N3    N     N_R   0.931580 0.439470 0.128350 -0.045230
N4    N     N_R   0.051950 0.704140 0.002340 -0.047141
N5    N     N_R   0.944360 0.651450 0.954400 -0.039232
N6    N     N_R   0.039170 0.492150 0.176290 -0.052099
N7    N     N_R   0.188710 0.696600 0.128350 -0.045196
N8    N     N_R   0.794820 0.447010 0.002340 -0.045593
N9    N     N_R   0.960830 0.507850 0.823710 -0.071399
N10   N     N_R   0.811290 0.303400 0.871650 -0.054933
N11   N     N_R   0.205180 0.552990 0.997660 -0.034799
N12   N     N_R   0.814810 0.361830 0.823710 -0.066723
N13   N     N_R   0.201660 0.494570 0.045600 -0.038990
N14   N     N_R   0.068420 0.560530 0.871650 -0.057609
N15   N     N_R   0.948050 0.295860 0.997660 -0.040657
N16   N     N_R   0.185190 0.638170 0.176290 -0.055660
Ni1   Ni    Ni4+2 0.119330 0.493420 0.109950 0.225546
Ni2   Ni    Ni4+2 0.880670 0.506580 0.890050 0.260133
Ni3   Ni    Ni4+2 0.872590 0.372590 0.000000 0.209416
Ni4   Ni    Ni4+2 0.127410 0.627410 0.000000 0.213246
C61   C     C_3   0.338805 0.854553 0.142666 -0.415533
C62   C     C_3   0.312351 0.800926 0.041641 -0.880421
H33   H     H_    0.334227 0.734444 0.026294 0.267144
H34   H     H_    0.229626 0.774284 0.999799 0.262135
H35   H     H_    0.358680 0.859354 0.023600 0.251750
H36   H     H_    0.328873 0.928848 0.158904 0.171980
H37   H     H_    0.423181 0.876570 0.176085 0.227356
Cl1   Cl    Cl    0.625864 0.672037 0.988833 -0.583337
Cl2   Cl    Cl    0.833477 0.579244 0.745043 -0.791856
Cl3   Cl    Cl    0.140949 0.504750 0.432274 -0.711193
C63   C     C_3   0.776309 0.590406 0.464483 -0.349579
C64   C     C_3   0.692534 0.575977 0.378888 -0.877208
H38   H     H_    0.725923 0.635384 0.355737 0.271220
H39   H     H_    0.658240 0.493812 0.323306 0.252673
H40   H     H_    0.628753 0.588524 0.395019 0.255875
H41   H     H_    0.739279 0.529407 0.484842 0.199054
H42   H     H_    0.801199 0.670514 0.519603 0.201633
C65   C     C_3   0.747074 0.964880 0.719928 -0.416480
C66   C     C_3   0.775050 0.872772 0.685431 -0.818800
H43   H     H_    0.703846 0.795559 0.642792 0.254629
H44   H     H_    0.820167 0.886664 0.644977 0.256627
H45   H     H_    0.823784 0.867067 0.744646 0.261426
H46   H     H_    0.822546 0.034851 0.770433 0.202925
H47   H     H_    0.695699 0.946035 0.754448 0.195615
Cl4   Cl    Cl    0.794919 0.929844 0.154001 -0.556142
C67   C     C_3   0.710119 0.310553 0.660057 -0.329056
C68   C     C_3   0.757769 0.339164 0.597113 -0.858062
H48   H     H_    0.751033 0.409399 0.591264 0.286347
H49   H     H_    0.840399 0.352470 0.619610 0.246827
H50   H     H_    0.712372 0.275771 0.526190 0.226045
H51   H     H_    0.634525 0.237527 0.617461 0.179025
H52   H     H_    0.689032 0.373828 0.693086 0.223450

loop_
_geom_bond_atom_site_label_1
_geom_bond_atom_site_label_2
_ccdc_geom_bond_type
C40   C41   A    
N5    Ni2   S    
C26   H12   S    
C3    C23   A    
C19   C20   A    
C18   C26   S    
C66   H45   S    
C2    C12   A    
C62   H33   S    
C63   H41   S    
N3    N6    A    
C63   C64   S    
C39   C41   A    
N14   Ni4   S    
C53   C54   A    
C57   H26   S    
N7    N16   A    
N4    Ni4   S    
C18   C24   A    
C36   C37   A    
C67   H51   S    
C11   C14   A    
C23   N10   A    
C49   C54   A    
C29   C33   A    
C49   C57   S    
N16   Ni1   S    
C11   N7    A    
C18   C19   A    
C10   N6    A    
C33   C35   A    
C14   C39   S    
C37   C63   S    
C4    C19   S    
C15   C22   S    
C12   Cl2   S    
C47   C48   A    
C3    C38   S    
C6    N2    A    
C8    N4    A    
C43   C48   A    
C16   C27   S    
C6    C15   A    
C59   C60   A    
N6    Ni1   S    
C61   H37   S    
C21   C22   A    
C4    C56   A    
C26   H11   S    
N10   Ni3   S    
C44   C46   A    
C50   C51   A    
C39   C42   A    
C10   H6    S    
C4    C34   A    
C47   C65   S    
C51   C52   A    
C62   H35   S    
C24   C25   S    
C67   C68   S    
C1    C60   A    
C29   H14   S    
C27   C35   A    
N9    Ni2   S    
N2    Ni2   S    
C59   N15   A    
C21   H9    S    
N11   Ni4   S    
C58   N14   A    
C55   H25   S    
C43   C44   A    
C29   C30   A    
C45   N12   A    
C31   C32   A    
N2    N8    A    
C41   H21   S    
N4    N5    A    
C52   Cl4   S    
C38   C47   A    
C40   H19   S    
N11   N13   A    
C59   H31   S    
C32   C37   A    
N10   N12   A    
C58   H30   S    
C7    H3    S    
C5    C14   A    
C8    H4    S    
C64   H40   S    
C9    C17   A    
C56   H29   S    
C65   H46   S    
C55   C57   S    
C22   C24   A    
C42   C43   A    
C66   H43   S    
C25   Cl1   S    
C51   H23   S    
C52   C53   A    
C64   H39   S    
C61   C62   S    
C13   H7    S    
N9    N14   A    
N13   Ni1   S    
C54   C55   S    
C7    C16   A    
C9    N5    A    
N15   Ni3   S    
C20   H8    S    
C28   C31   A    
C65   H47   S    
C34   N11   A    
C66   H44   S    
C1    H1    S    
C46   H17   S    
C62   H34   S    
C68   H48   S    
C2    C58   A    
C27   C36   A    
C7    N3    A    
N3    Ni3   S    
C8    C17   A    
C57   H28   S    
C50   C60   S    
C32   C33   A    
C48   H20   S    
C13   N8    A    
C13   C15   A    
C65   C66   S    
C25   C26   S    
C12   N9    A    
C10   C16   A    
N1    N15   A    
N12   Ni2   S    
C30   H15   S    
C68   H49   S    
C6    H2    S    
C31   H16   S    
N7    Ni4   S    
C28   C30   A    
C45   C67   S    
C68   H50   S    
C3    C45   A    
C34   H27   S    
C23   H18   S    
C11   C61   S    
C9    H5    S    
C56   N13   A    
C38   C46   A    
C5    H32   S    
C2    C28   S    
C36   H13   S    
C61   H36   S    
C40   C44   A    
C20   C21   A    
N8    Ni3   S    
C1    N1    A    
C49   C50   A    
C67   H52   S    
C25   H10   S    
C55   H24   S    
C63   H42   S    
C35   Cl3   S    
C42   H22   S    
N1    Ni1   S    
C64   H38   S    
C5    N16   A    
