data_mof_unit_31238.cif
_audit_creation_date              2012-12-10T16:37:26-0500
_audit_creation_method            fapswitch 2.2
_symmetry_space_group_name_H-M    P1
_symmetry_Int_Tables_number       1
_space_group_crystal_system       triclinic
_cell_length_a                    16.776188
_cell_length_b                    16.740573
_cell_length_c                    16.940363
_cell_angle_alpha                 65.618974
_cell_angle_beta                  65.640491
_cell_angle_gamma                 66.019514
_cell_volume                      3784.26225699

loop_
_atom_site_label
_atom_site_type_symbol
_atom_type_description
_atom_site_fract_x
_atom_site_fract_y
_atom_site_fract_z
_atom_type_partial_charge
C1    C     C_R   0.433067 0.968483 0.686184 0.550771
C2    C     C_R   0.394944 0.653121 0.073467 0.549286
C3    C     C_3   0.312258 0.744040 0.974667 -0.255466
C4    C     C_3   0.838527 0.740260 0.344658 -0.394422
C5    C     C_3   0.754896 0.490233 0.737387 -0.265922
C6    C     C_R   0.943020 0.603982 0.334693 0.605090
C7    C     C_R   0.906035 0.472953 0.699307 0.568570
C8    C     C_R   0.962476 0.179409 0.437921 0.897667
C9    C     C_R   0.037983 0.820651 0.561771 0.892680
C10   C     C_R   0.175451 0.429707 0.982512 0.929217
C11   C     C_R   0.820556 0.561726 0.038365 0.886324
C12   C     C_R   0.428821 0.984346 0.174438 0.916588
C13   C     C_R   0.569158 0.020307 0.823597 0.912576
C14   C     C_R   0.561986 0.820207 0.037696 0.912625
C15   C     C_R   0.518383 0.095338 0.307101 0.561765
C16   C     C_R   0.438304 0.179671 0.962296 0.901777
C17   C     C_R   0.017698 0.570341 0.824530 0.928286
C18   C     C_R   0.963407 0.437228 0.179390 0.879162
C19   C     C_R   0.820632 0.038245 0.561663 0.895722
C20   C     C_R   0.179156 0.960410 0.438507 0.893392
C21   C     C_R   0.485834 0.968239 0.731011 -0.310938
C22   C     C_R   0.481295 0.071885 0.261990 -0.316358
C23   C     C_R   0.066723 0.700651 0.450571 -0.331671
C24   C     C_R   0.922018 0.296472 0.556237 -0.318973
C25   C     C_R   0.705430 0.439290 0.084944 -0.336406
C26   C     C_R   0.044711 0.661509 0.405148 0.525289
C27   C     C_R   0.256284 0.482789 0.075112 -0.306152
C28   C     C_R   0.313059 0.903615 0.546696 -0.298615
C29   C     C_R   0.698473 0.080926 0.446833 -0.310614
C30   C     C_R   0.550214 0.297596 0.941235 -0.332186
C31   C     C_R   0.442140 0.701574 0.079641 -0.320462
C32   C     C_R   0.929474 0.557460 0.291392 -0.293986
C33   C     C_R   0.930314 0.512217 0.741520 -0.307961
C34   C     C_R   0.541689 0.019880 0.541598 -0.114202
C35   C     C_R   0.447214 0.998055 0.450338 -0.117298
C36   C     C_R   0.982409 0.560207 0.552104 -0.127551
C37   C     C_R   0.931536 0.342731 0.602758 0.559711
C38   C     C_R   0.948044 0.470257 0.465339 -0.135379
C39   C     C_R   0.532705 0.525415 0.061485 -0.140443
C40   C     C_R   0.446700 0.434822 0.026869 -0.141794
C41   C     C_R   0.568708 0.048667 0.445199 -0.044670
C42   C     C_R   0.426279 0.961679 0.545659 -0.060074
C43   C     C_R   0.943698 0.486375 0.604353 -0.055852
C44   C     C_R   0.965011 0.556601 0.417461 -0.033291
C45   C     C_R   0.438743 0.562283 0.068036 -0.037559
C46   C     C_R   0.541868 0.400882 0.014758 0.004330
C47   C     C_R   0.513499 0.047335 0.399970 -0.051435
C48   C     C_R   0.662882 0.390138 0.071495 0.583806
C49   C     C_R   0.466205 0.982733 0.591517 -0.050555
C50   C     C_R   0.393707 0.508066 0.064859 -0.063077
C51   C     C_R   0.580819 0.438305 0.047359 -0.014752
C52   C     C_R   0.940107 0.432897 0.559091 -0.040163
C53   C     C_R   0.996670 0.594180 0.457109 -0.020648
C54   C     C_R   0.560124 0.005769 0.684353 0.011371
C55   C     C_R   0.426219 0.012288 0.310017 0.004470
C56   C     C_R   0.041546 0.675692 0.545570 0.049014
C57   C     C_R   0.932862 0.331224 0.462222 0.023249
C58   C     C_R   0.670440 0.534731 0.070324 0.033324
C59   C     C_R   0.298229 0.520910 0.101191 0.574736
C60   C     C_R   0.308352 0.425131 0.019042 -0.003449
C61   C     C_R   0.328475 0.945222 0.453586 0.017035
C62   C     C_R   0.670647 0.056027 0.541860 0.022860
C63   C     C_R   0.454562 0.322352 0.964408 0.042570
C64   C     C_R   0.536526 0.667169 0.070043 0.019811
C65   C     C_R   0.938024 0.462858 0.327559 0.008152
C66   C     C_R   0.985783 0.571701 0.690677 0.001171
C67   C     C_R   0.604106 0.024674 0.728914 -0.084698
C68   C     C_R   0.390174 0.982720 0.267554 -0.085188
C69   C     C_R   0.052573 0.722331 0.592979 -0.106487
C70   C     C_R   0.367869 0.903088 0.590612 0.578511
C71   C     C_R   0.938950 0.279166 0.409391 -0.097736
C72   C     C_R   0.721314 0.589833 0.062554 -0.094340
C73   C     C_R   0.268765 0.391541 0.983427 -0.088872
C74   C     C_R   0.277523 0.943348 0.405497 -0.107954
C75   C     C_R   0.721906 0.054893 0.592599 -0.097274
C76   C     C_R   0.407183 0.277398 0.950176 -0.104226
C77   C     C_R   0.590348 0.720246 0.061655 -0.099293
C78   C     C_R   0.941334 0.408944 0.278074 -0.087469
C79   C     C_R   0.018529 0.607646 0.731022 -0.089273
C80   C     C_R   0.682534 0.050525 0.682053 -0.312022
C81   C     C_R   0.652002 0.073560 0.399021 0.562132
C82   C     C_R   0.316125 0.948981 0.315679 -0.296822
C83   C     C_R   0.052924 0.681078 0.681204 -0.303226
C84   C     C_R   0.936982 0.320643 0.321070 -0.311853
C85   C     C_R   0.679350 0.679126 0.063308 -0.310972
C86   C     C_R   0.318901 0.319203 0.948485 -0.306310
C87   C     C_R   0.590044 0.028465 0.588950 0.055232
C88   C     C_R   0.401181 0.984771 0.404820 0.055507
C89   C     C_R   0.004301 0.601684 0.595787 0.057739
C90   C     C_R   0.939289 0.421481 0.418582 0.055521
C91   C     C_R   0.579604 0.575736 0.067765 0.062042
C92   C     C_R   0.595220 0.335479 0.965852 0.558294
C93   C     C_R   0.403562 0.394739 0.002630 0.056343
C94   C     C_3   0.282999 0.046620 0.724783 -0.321768
C95   C     C_3   0.480992 0.249869 0.269902 -0.270355
C96   C     C_3   0.082873 0.767532 0.263299 -0.120013
C97   C     C_3   0.030490 0.250074 0.685086 -0.336958
C98   C     C_3   0.782505 0.253817 0.090086 -0.190753
C99   C     C_3   0.259401 0.498109 0.252031 -0.257844
C100  C     C_3   0.446446 0.765623 0.665887 -0.325663
C101  C     C_3   0.746060 0.000791 0.292606 -0.324894
C102  C     C_3   0.739334 0.235432 0.918158 -0.190881
H1    H     H_    0.281285 0.078465 0.653190 0.154654
H2    H     H_    0.071522 0.299485 0.654015 0.158178
H3    H     H_    0.059645 0.198911 0.647173 0.160693
H4    H     H_    0.035586 0.212627 0.755014 0.185298
H5    H     H_    0.794524 0.249332 0.151748 0.153047
H6    H     H_    0.827107 0.289944 0.027109 0.145041
H7    H     H_    0.801651 0.182688 0.088493 0.175171
H8    H     H_    0.236118 0.437897 0.268935 0.135738
H9    H     H_    0.218265 0.530573 0.307154 0.223889
H10   H     H_    0.331977 0.475585 0.250986 0.128156
H11   H     H_    0.443654 0.713521 0.733183 0.189739
H12   H     H_    0.297506 0.092367 0.746545 0.156796
H13   H     H_    0.509136 0.786848 0.643182 0.153342
H14   H     H_    0.450497 0.732723 0.618552 0.152369
H15   H     H_    0.702395 0.955520 0.315132 0.149951
H16   H     H_    0.800419 0.967112 0.327090 0.148485
H17   H     H_    0.780074 0.011389 0.218819 0.188920
H18   H     H_    0.740410 0.234869 0.852389 0.156363
H19   H     H_    0.713175 0.179689 0.975574 0.144164
H20   H     H_    0.811179 0.221723 0.914120 0.194178
H21   H     H_    0.344974 0.694761 0.934205 0.157476
H22   H     H_    0.349176 0.796800 0.945545 0.168661
H23   H     H_    0.214006 0.039280 0.767610 0.185580
H24   H     H_    0.241861 0.779572 0.969251 0.198405
H25   H     H_    0.833253 0.729258 0.415836 0.168062
H26   H     H_    0.786040 0.716806 0.342985 0.163057
H27   H     H_    0.823882 0.814637 0.310226 0.188754
H28   H     H_    0.756678 0.512608 0.665154 0.132642
H29   H     H_    0.735307 0.550651 0.760705 0.142696
H30   H     H_    0.700927 0.454925 0.777857 0.219439
H31   H     H_    0.717673 0.059784 0.717605 0.188970
H32   H     H_    0.283211 0.934972 0.281436 0.187948
H33   H     H_    0.071201 0.712274 0.713780 0.189248
H34   H     H_    0.509538 0.309045 0.236379 0.205008
H35   H     H_    0.940280 0.280853 0.282376 0.190831
H36   H     H_    0.719293 0.719720 0.057203 0.195117
H37   H     H_    0.286517 0.289361 0.928203 0.187229
H38   H     H_    0.464525 0.938232 0.803259 0.204906
H39   H     H_    0.490015 0.106755 0.190387 0.190708
H40   H     H_    0.107979 0.747511 0.411770 0.163020
H41   H     H_    0.905573 0.232871 0.596904 0.196942
H42   H     H_    0.763332 0.402620 0.110964 0.169646
H43   H     H_    0.183263 0.494442 0.104275 0.198341
H44   H     H_    0.265111 0.863182 0.583787 0.174729
H45   H     H_    0.445946 0.247523 0.342446 0.134789
H46   H     H_    0.757014 0.107002 0.407278 0.189481
H47   H     H_    0.589576 0.252344 0.899310 0.164598
H48   H     H_    0.401723 0.766406 0.092445 0.199906
H49   H     H_    0.907439 0.598831 0.231619 0.196242
H50   H     H_    0.899714 0.500095 0.813911 0.197410
H51   H     H_    0.431137 0.262039 0.235748 0.142222
H52   H     H_    0.145510 0.778358 0.259679 0.132533
H53   H     H_    0.020339 0.817630 0.292087 0.121854
H54   H     H_    0.085326 0.780708 0.192674 0.208181
O1    O     O_R   0.982940 0.138950 0.510160 -0.636256
O2    O     O_R   0.982940 0.510160 0.138950 -0.643900
O3    O     O_R   0.861050 0.017060 0.489840 -0.632232
O4    O     O_R   0.138950 0.982940 0.510160 -0.619020
O5    O     O_R   0.867700 0.025880 0.612340 -0.624366
O6    O     O_R   0.132300 0.974120 0.387660 -0.629426
O7    O     O_R   0.025880 0.612340 0.867700 -0.619983
O8    O     O_R   0.974120 0.387660 0.132300 -0.640231
O9    O     O_R   0.612340 0.867700 0.025880 -0.623070
O10   O     O_R   0.387660 0.132300 0.974120 -0.622476
O11   O     O_R   0.387660 0.974120 0.132300 -0.636549
O12   O     O_R   0.017060 0.861050 0.489840 -0.632309
O13   O     O_R   0.612340 0.025880 0.867700 -0.634956
O14   O     O_R   0.132300 0.387660 0.974120 -0.625719
O15   O     O_R   0.867700 0.612340 0.025880 -0.634018
O16   O     O_R   0.974120 0.132300 0.387660 -0.627572
O17   O     O_R   0.025880 0.867700 0.612340 -0.619758
O18   O     O_3   0.346649 0.959107 0.737176 -0.563611
O19   O     O_3   0.553167 0.169641 0.260762 -0.524409
O20   O     O_3   0.081793 0.675913 0.311719 -0.571249
O21   O     O_3   0.937767 0.295355 0.689835 -0.564269
O22   O     O_3   0.689208 0.294618 0.095122 -0.559506
O23   O     O_R   0.138950 0.510160 0.982940 -0.624322
O24   O     O_3   0.246016 0.562416 0.169225 -0.530547
O25   O     O_3   0.367029 0.839959 0.675104 -0.556446
O26   O     O_3   0.693388 0.086535 0.307095 -0.545646
O27   O     O_3   0.689475 0.322394 0.931398 -0.592579
O28   O     O_3   0.307271 0.698825 0.066953 -0.578214
O29   O     O_3   0.927231 0.697571 0.297797 -0.578249
O30   O     O_3   0.838837 0.428839 0.751246 -0.540650
O31   O     O_R   0.861050 0.489840 0.017060 -0.647108
O32   O     O_R   0.510160 0.982940 0.138950 -0.630649
O33   O     O_R   0.489840 0.017060 0.861050 -0.644415
O34   O     O_R   0.489840 0.861050 0.017060 -0.647168
O35   O     O_R   0.510160 0.138950 0.982940 -0.642061
O36   O     O_R   0.017060 0.489840 0.861050 -0.630610
Zn1   Zn    Zn3+2 0.004880 0.004880 0.583590 0.949072
Zn2   Zn    Zn3+2 0.995120 0.995120 0.416410 0.922648
Zn3   Zn    Zn3+2 0.004880 0.583590 0.004880 0.966427
Zn4   Zn    Zn3+2 0.995120 0.416410 0.995120 0.928636
Zn5   Zn    Zn3+2 0.583590 0.004880 0.004880 0.935431
Zn6   Zn    Zn3+2 0.416410 0.995120 0.995120 0.934275

loop_
_geom_bond_atom_site_label_1
_geom_bond_atom_site_label_2
_ccdc_geom_bond_type
O33   Zn6   S    
C36   C89   A    
O3    Zn2   S    
C39   C51   A    
C1    C21   A    
O31   Zn4   S    
C64   C77   A    
C7    O30   S    
O16   Zn2   S    
C100  H14   S    
C17   C79   S    
C40   C93   A    
C35   C47   A    
C29   H46   S    
C48   O22   S    
C72   C85   A    
C94   H12   S    
C3    H24   S    
C98   H6    S    
C23   C56   A    
O23   Zn3   S    
C11   O15   A    
C66   C79   A    
C34   C41   A    
C6    O29   S    
O1    Zn1   S    
C101  H16   S    
O36   Zn4   S    
C59   O24   S    
C16   O35   A    
C9    C69   S    
C27   C60   A    
C13   C67   S    
C54   C87   A    
C10   C73   S    
C43   C52   A    
C23   C26   A    
C96   H53   S    
C46   C92   A    
C63   C76   A    
C24   H41   S    
C12   O32   A    
C60   C73   A    
C42   C70   A    
C13   O33   A    
C19   O5    A    
C14   C77   S    
C55   C88   A    
C35   C42   A    
C95   O19   S    
C36   C53   A    
C17   O7    A    
C18   O8    A    
C44   C53   A    
C5    H30   S    
C96   H52   S    
C16   O10   A    
C24   C57   A    
C8    C71   S    
C10   O23   A    
C67   C80   A    
C23   H40   S    
C9    O17   A    
C7    C43   A    
C98   O22   S    
C102  H19   S    
C3    O28   S    
C83   H33   S    
C50   C59   A    
C39   C45   A    
C97   H3    S    
C60   C93   A    
C13   O13   A    
C99   H9    S    
C17   O36   A    
C98   H7    S    
O12   Zn2   S    
C30   C63   A    
C7    C33   A    
C100  H13   S    
C5    O30   S    
C12   O11   A    
C8    O1    A    
C39   C91   A    
C27   H43   S    
C3    H21   S    
C33   C66   A    
C55   C68   A    
C66   C89   A    
C15   C22   A    
C2    C45   A    
C65   C90   A    
C28   C70   A    
C1    O18   S    
C48   C51   A    
C57   C90   A    
C4    H26   S    
C20   C74   S    
C101  H17   S    
C95   H45   S    
C30   C92   A    
C37   C52   A    
C11   C72   S    
C30   H47   S    
C54   C67   A    
C26   O20   S    
C99   H8    S    
C46   C51   A    
C92   O27   S    
C98   H5    S    
C2    C31   A    
C95   H51   S    
C4    O29   S    
C82   H32   S    
C40   C46   A    
O10   Zn6   S    
C38   C44   A    
C18   O2    A    
C61   C88   A    
O9    Zn5   S    
C12   C68   S    
C35   C88   A    
C70   O25   S    
C97   O21   S    
O7    Zn3   S    
C18   C78   S    
C41   C81   A    
C19   O3    A    
O6    Zn2   S    
C24   C37   A    
C41   C47   A    
O5    Zn1   S    
C2    O28   S    
C57   C71   A    
C14   O9    A    
C100  O25   S    
C25   C48   A    
C22   C55   A    
C86   H37   S    
C94   O18   S    
C97   H4    S    
O15   Zn3   S    
C56   C89   A    
C29   C81   A    
C56   C69   A    
O17   Zn1   S    
C20   O6    A    
C11   O31   A    
C62   C75   A    
C25   H42   S    
C25   C58   A    
C102  O27   S    
C26   C53   A    
C76   C86   A    
C102  H18   S    
C3    H22   S    
O34   Zn6   S    
O13   Zn5   S    
C71   C84   A    
C58   C91   A    
C94   H23   S    
C31   H48   S    
C63   C93   A    
C29   C62   A    
C5    H28   S    
C34   C49   A    
C65   C78   A    
C96   O20   S    
C4    H25   S    
C94   H1    S    
C16   C76   S    
C31   C64   A    
C9    O12   A    
C69   C83   A    
C100  H11   S    
O35   Zn5   S    
C36   C43   A    
C33   H50   S    
C84   H35   S    
O8    Zn4   S    
C4    H27   S    
C61   C74   A    
C10   O14   A    
C37   O21   S    
C62   C87   A    
C38   C90   A    
C28   H44   S    
O2    Zn3   S    
C21   H38   S    
C15   O19   S    
C21   C54   A    
C68   C82   A    
C19   C75   S    
C101  H15   S    
C99   O24   S    
C27   C59   A    
C28   C61   A    
C79   C83   A    
O14   Zn4   S    
C58   C72   A    
C96   H54   S    
C32   H49   S    
C1    C49   A    
O32   Zn5   S    
C40   C50   A    
C99   H10   S    
C22   H39   S    
C95   H34   S    
O11   Zn6   S    
C34   C87   A    
C73   C86   A    
C97   H2    S    
C80   H31   S    
C42   C49   A    
C77   C85   A    
C14   O34   A    
C78   C84   A    
C5    H29   S    
C75   C80   A    
C38   C52   A    
C6    C32   A    
C20   O4    A    
C32   C65   A    
C15   C47   A    
C6    C44   A    
C45   C50   A    
C64   C91   A    
C102  H20   S    
C81   O26   S    
C85   H36   S    
C74   C82   A    
C101  O26   S    
C8    O16   A    
O4    Zn1   S    
