data_mof_unit_57586.cif
_audit_creation_date              2012-12-10T17:49:39-0500
_audit_creation_method            fapswitch 2.2
_symmetry_space_group_name_H-M    P1
_symmetry_Int_Tables_number       1
_space_group_crystal_system       triclinic
_cell_length_a                    10.51186
_cell_length_b                    10.685026
_cell_length_c                    9.965103
_cell_angle_alpha                 91.796172
_cell_angle_beta                  90.515899
_cell_angle_gamma                 94.471815
_cell_volume                      1115.24619304

loop_
_atom_site_label
_atom_site_type_symbol
_atom_type_description
_atom_site_fract_x
_atom_site_fract_y
_atom_site_fract_z
_atom_type_partial_charge
C1    C     C_R   0.514862 0.261833 0.497551 0.976753
C2    C     C_3   0.962983 0.614672 0.459013 -0.266040
C3    C     C_3   0.038093 0.523006 0.374928 -0.087421
C4    C     C_3   0.122917 0.505268 0.497202 -0.147908
C5    C     C_R   0.635227 0.135416 0.717982 -0.109400
C6    C     C_R   0.642235 0.083194 0.843747 -0.241641
C7    C     C_R   0.574250 0.969386 0.867101 -0.208303
C8    C     C_R   0.508191 0.902723 0.762072 0.688830
C9    C     C_R   0.516021 0.946763 0.628586 -0.114469
C10   C     C_R   0.563865 0.071214 0.612250 0.030189
C11   C     C_R   0.536626 0.129424 0.491463 -0.278423
C12   C     C_R   0.257870 0.502447 0.499225 0.959621
C13   C     C_R   0.498952 0.056968 0.374812 -0.155679
C14   C     C_R   0.462933 0.931352 0.387601 0.613901
C15   C     C_R   0.479256 0.873973 0.510408 -0.229449
C16   C     C_R   0.311505 0.343882 0.131851 0.516826
C17   C     C_R   0.212828 0.279388 0.059707 0.600012
C18   C     C_R   0.211909 0.279931 0.922929 -0.425452
C19   C     C_R   0.310078 0.343604 0.855731 0.567821
C20   C     C_R   0.407187 0.423869 0.924383 -0.010380
C21   C     C_R   0.407439 0.423964 0.069270 -0.111669
C22   C     C_R   0.587343 0.572443 0.073460 0.066779
C23   C     C_R   0.489945 0.739596 0.503013 0.913459
C24   C     C_R   0.586993 0.571779 0.931030 -0.067464
C25   C     C_R   0.742208 0.500286 0.500744 0.831511
C26   C     C_3   0.035373 0.392401 0.540556 -0.141344
C27   C     C_3   0.949357 0.409752 0.416516 -0.102431
C28   C     C_3   0.876978 0.501265 0.502245 -0.013413
C29   C     C_3   0.959844 0.483609 0.626628 -0.177022
C30   C     C_3   0.048612 0.595480 0.581643 -0.049268
H1    H     H_    0.904347 0.333824 0.349117 0.198965
H2    H     H_    0.570597 0.933666 0.967584 0.225716
H3    H     H_    0.138486 0.222576 0.867382 0.230314
H4    H     H_    0.657862 0.630640 0.879053 0.135913
H5    H     H_    0.068660 0.302036 0.573492 0.198639
H6    H     H_    0.923976 0.467648 0.729656 0.189338
H7    H     H_    0.929239 0.704945 0.426249 0.175137
H8    H     H_    0.686047 0.226035 0.703518 0.154356
H9    H     H_    0.695113 0.133951 0.924719 0.215726
N1    N     N_R   0.498800 0.498800 0.142780 -0.099234
N2    N     N_R   0.498760 0.498720 0.857170 -0.074923
O1    O     O_R   0.500000 0.316780 0.614690 -0.555080
O2    O     O_R   0.499990 0.316750 0.385360 -0.543609
O3    O     O_R   0.313960 0.499980 0.614650 -0.537960
O4    O     O_R   0.313940 0.499960 0.385310 -0.578436
O5    O     O_R   0.500010 0.683250 0.614640 -0.579617
O6    O     O_R   0.500000 0.683220 0.385310 -0.551319
O7    O     O_R   0.686060 0.500040 0.614690 -0.660774
O8    O     O_R   0.686040 0.500020 0.385350 -0.607450
Zn1   Zn    Zn3+2 0.500010 0.500020 0.653130 1.051074
Zn2   Zn    Zn3+2 0.499990 0.499980 0.346870 1.089773
F1    F     F_    0.424517 0.806140 0.796340 -0.624399
F2    F     F_    0.417175 0.863236 0.277283 -0.577008
C31   C     C_2   0.686018 0.654117 0.144851 0.941665
O9    O     O_2   0.792758 0.618509 0.159405 -0.610015
O10   O     O_R   0.659957 0.775007 0.187717 -0.760917
H10   H     H_    0.735935 0.822903 0.234061 0.333595
F3    F     F_    0.312766 0.313120 0.260180 -0.602907
F4    F     F_    0.121834 0.207115 0.123649 -0.572320
F5    F     F_    0.307978 0.311965 0.725366 -0.629250
C32   C     C_2   0.106531 0.701171 0.669896 0.969004
O11   O     O_2   0.089426 0.700805 0.791017 -0.537622
O12   O     O_R   0.178861 0.800364 0.612336 -0.808064
H11   H     H_    0.210169 0.868108 0.680930 0.381160
C33   C     C_2   0.079834 0.550303 0.234268 1.043880
O13   O     O_2   0.038680 0.481691 0.141104 -0.538023
O14   O     O_R   0.162647 0.655123 0.207999 -0.691172
H12   H     H_    0.188712 0.706629 0.292290 0.341846
C34   C     C_2   0.506308 0.105628 0.236602 1.061339
O15   O     O_2   0.600212 0.171673 0.202963 -0.654104
O16   O     O_R   0.408638 0.071385 0.143305 -0.686545
H13   H     H_    0.425330 0.109457 0.052648 0.314781

loop_
_geom_bond_atom_site_label_1
_geom_bond_atom_site_label_2
_ccdc_geom_bond_type
C16   C21   A    
C19   C20   A    
C1    C11   S    
C20   N2    A    
C7    C8    A    
C22   C31   S    
C25   C28   S    
C29   H6    S    
C26   C27   S    
C28   C29   S    
C34   O15   D    
C5    C6    A    
O4    Zn2   S    
O10   H10   S    
C32   O12   S    
C18   C19   A    
C34   O16   S    
C1    O2    A    
C8    C9    A    
C33   O14   S    
C4    C12   S    
C9    C10   A    
C8    F1    S    
C15   C23   S    
C23   O5    A    
C13   C14   A    
C24   N2    A    
C3    C33   S    
C31   O10   S    
C23   O6    A    
C27   H1    S    
O14   H12   S    
C16   C17   A    
O6    Zn2   S    
O8    Zn2   S    
C24   H4    S    
C29   C30   S    
C26   H5    S    
C22   N1    A    
C17   C18   A    
C16   F3    S    
C25   O7    A    
C17   F4    S    
O1    Zn1   S    
C22   C24   A    
C3    C4    S    
N2    Zn1   S    
O3    Zn1   S    
C31   O9    D    
C7    H2    S    
C6    H9    S    
C12   O4    A    
C4    C26   S    
C6    C7    A    
C19   F5    S    
N1    Zn2   S    
O5    Zn1   S    
C2    C30   S    
C3    C27   S    
C2    C3    S    
C9    C15   A    
C5    C10   A    
C12   O3    A    
C11   C13   A    
C2    H7    S    
O2    Zn2   S    
C21   N1    A    
C13   C34   S    
O7    Zn1   S    
C32   O11   D    
C18   H3    S    
C25   O8    A    
C10   C11   A    
O12   H11   S    
C1    O1    A    
O16   H13   S    
C14   F2    S    
C20   C21   A    
C26   C29   S    
C33   O13   D    
C30   C32   S    
C27   C28   S    
C14   C15   A    
C2    C28   S    
C5    H8    S    
C4    C30   S    
