data_mof_unit_41882.cif
_audit_creation_date              2012-12-10T17:25:19-0500
_audit_creation_method            fapswitch 2.2
_symmetry_space_group_name_H-M    P1
_symmetry_Int_Tables_number       1
_space_group_crystal_system       triclinic
_cell_length_a                    27.787978
_cell_length_b                    10.797522
_cell_length_c                    9.631132
_cell_angle_alpha                 89.958105
_cell_angle_beta                  90.54719
_cell_angle_gamma                 94.641889
_cell_volume                      2880.12764934

loop_
_atom_site_label
_atom_site_type_symbol
_atom_type_description
_atom_site_fract_x
_atom_site_fract_y
_atom_site_fract_z
_atom_type_partial_charge
C1    C     C_R   0.502648 0.262754 0.500627 0.815644
C2    C     C_R   0.278185 0.448195 0.608282 -0.167126
C3    C     C_R   0.253555 0.503836 0.501080 0.250234
C4    C     C_R   0.101611 0.495991 0.511950 -0.097023
C5    C     C_R   0.123852 0.386326 0.478929 -0.128193
C6    C     C_R   0.094062 0.277528 0.445724 0.415891
C7    C     C_R   0.130389 0.607275 0.538238 -0.030543
C8    C     C_R   0.354670 0.506465 0.497331 -0.163083
C9    C     C_R   0.645301 0.494677 0.503079 -0.157979
C10   C     C_R   0.971006 0.378656 0.522156 -0.017891
C11   C     C_R   0.977635 0.607970 0.526336 0.052957
C12   C     C_R   0.407649 0.502668 0.499146 0.880169
C13   C     C_R   0.949008 0.492941 0.522470 0.044671
C14   C     C_R   0.941131 0.266888 0.544642 0.348806
C15   C     C_R   0.891006 0.268135 0.541566 -0.123640
C16   C     C_R   0.869075 0.379286 0.525567 -0.102397
C17   C     C_R   0.897951 0.492332 0.519915 -0.045561
C18   C     C_R   0.875685 0.604864 0.512281 -0.031200
C19   C     C_R   0.825119 0.601914 0.507273 0.652369
C20   C     C_R   0.818590 0.380623 0.521261 0.670694
C21   C     C_R   0.720958 0.481104 0.381547 0.415829
C22   C     C_R   0.670786 0.483278 0.379125 -0.162809
C23   C     C_R   0.495131 0.736039 0.500917 0.830636
C24   C     C_R   0.670733 0.501474 0.629934 -0.252636
C25   C     C_R   0.720843 0.500025 0.633064 0.400920
C26   C     C_R   0.746202 0.490332 0.508667 0.154239
C27   C     C_R   0.021680 0.381879 0.501420 -0.002486
C28   C     C_R   0.050508 0.495116 0.517706 0.080260
C29   C     C_R   0.028586 0.607930 0.537223 0.053847
C30   C     C_R   0.044063 0.277569 0.454849 -0.158683
C31   C     C_R   0.108439 0.716351 0.567022 -0.081239
C32   C     C_R   0.954248 0.719296 0.517487 -0.160676
C33   C     C_R   0.904230 0.717498 0.509883 -0.083522
C34   C     C_R   0.592397 0.498302 0.500764 0.866349
C35   C     C_R   0.058506 0.717129 0.565502 -0.167655
C36   C     C_R   0.528905 0.116177 0.751951 -0.155502
C37   C     C_R   0.524061 0.054417 0.878795 0.367366
C38   C     C_R   0.496634 0.940936 0.886234 -0.140869
C39   C     C_R   0.478061 0.883085 0.765172 0.389832
C40   C     C_R   0.490833 0.935998 0.633110 -0.047168
C41   C     C_R   0.508205 0.061864 0.629405 0.013591
C42   C     C_R   0.504066 0.127767 0.502936 -0.083026
C43   C     C_R   0.494080 0.062356 0.379117 -0.103792
C44   C     C_R   0.489197 0.934118 0.379504 -0.077160
C45   C     C_R   0.174913 0.391736 0.476904 0.622405
C46   C     C_R   0.488948 0.869301 0.505333 -0.117786
C47   C     C_R   0.580242 0.637075 0.134502 0.315863
C48   C     C_R   0.620772 0.669108 0.051496 0.404081
C49   C     C_R   0.614539 0.682025 0.911005 -0.287334
C50   C     C_R   0.570577 0.645846 0.851230 -0.184605
C51   C     C_R   0.534996 0.573068 0.924326 0.105756
C52   C     C_R   0.536979 0.571488 0.073973 -0.005239
C53   C     C_R   0.467381 0.426751 0.073115 0.454158
C54   C     C_R   0.467958 0.425227 0.925546 0.428239
C55   C     C_R   0.180736 0.607256 0.535319 0.630309
C56   C     C_R   0.278980 0.562217 0.390386 0.436488
C57   C     C_R   0.330138 0.565985 0.389459 0.250818
C58   C     C_R   0.328157 0.449171 0.606270 -0.200151
Cu1   Cu    Cu3+1 0.500000 0.499990 0.640660 1.024750
Cu2   Cu    Cu3+1 0.500000 0.500010 0.359340 1.086904
H1    H     H_    0.346080 0.403735 0.689922 0.239944
H2    H     H_    0.129835 0.802504 0.589493 0.215142
H3    H     H_    0.973807 0.809535 0.511608 0.181257
H4    H     H_    0.651833 0.507980 0.726980 0.205202
H5    H     H_    0.888011 0.805233 0.502487 0.211142
H6    H     H_    0.044253 0.804258 0.590630 0.175604
H7    H     H_    0.490760 0.110097 0.281097 0.227047
H8    H     H_    0.550152 0.204553 0.750264 0.191927
H9    H     H_    0.258356 0.403403 0.693301 0.193614
H10   H     H_    0.488964 0.898422 0.986367 0.189050
H11   H     H_    0.485678 0.885809 0.280912 0.195359
H12   H     H_    0.643396 0.724889 0.847999 0.222920
H13   H     H_    0.567268 0.671603 0.745434 0.230004
H14   H     H_    0.651845 0.475735 0.280347 0.204608
H15   H     H_    0.869160 0.181503 0.556784 0.227780
H16   H     H_    0.022811 0.196137 0.417468 0.220092
N1    N     N_R   0.201820 0.500813 0.504795 -0.452496
N2    N     N_R   0.797811 0.490856 0.511560 -0.443190
N3    N     N_R   0.500460 0.501210 0.147910 -0.231449
N4    N     N_R   0.500480 0.501290 0.852040 -0.227006
O1    O     O_R   0.500000 0.319640 0.618810 -0.556134
O2    O     O_2   0.790444 0.272890 0.526934 -0.473703
O3    O     O_2   0.208572 0.712810 0.563098 -0.477136
O4    O     O_2   0.803335 0.708966 0.498616 -0.465435
O5    O     O_R   0.500000 0.319660 0.381240 -0.545436
O6    O     O_R   0.430260 0.500010 0.618770 -0.544651
O7    O     O_R   0.430270 0.500030 0.381200 -0.495859
O8    O     O_R   0.500000 0.680340 0.618760 -0.592795
O9    O     O_R   0.500000 0.680360 0.381190 -0.520408
O10   O     O_R   0.569730 0.499970 0.618800 -0.618931
O11   O     O_R   0.569740 0.499990 0.381230 -0.556080
O12   O     O_2   0.197890 0.289839 0.447591 -0.426995
O13   O     O_3   0.252309 0.614344 0.286878 -0.668783
H17   H     H_    0.273186 0.639227 0.207575 0.384404
Cl1   Cl    Cl    0.751271 0.510720 0.794169 -0.448144
Cl2   Cl    Cl    0.549486 0.124094 0.029829 -0.585596
O14   O     O_3   0.444127 0.783586 0.780915 -0.667500
H18   H     H_    0.424708 0.774172 0.694077 0.334250
Cl3   Cl    Cl    0.425143 0.324400 0.159848 -0.472073
Cl4   Cl    Cl    0.584283 0.736368 0.279451 -0.531467
Cl5   Cl    Cl    0.677929 0.721303 0.121273 -0.404641
Cl6   Cl    Cl    0.427516 0.317910 0.837345 -0.520222
Cl7   Cl    Cl    0.115894 0.137478 0.387992 -0.472365
Cl8   Cl    Cl    0.751680 0.466929 0.224226 -0.424282
Cl9   Cl    Cl    0.962899 0.127014 0.605202 -0.599561
Cl10  Cl    Cl    0.363105 0.653433 0.260916 -0.554103

loop_
_geom_bond_atom_site_label_1
_geom_bond_atom_site_label_2
_ccdc_geom_bond_type
C10   C27   A    
C15   H15   S    
C21   C26   A    
C38   H10   S    
Cu2   N3    S    
O13   H17   S    
C20   O2    S    
C41   C42   A    
C7    C55   A    
O14   H18   S    
C33   H5    S    
C53   C54   A    
C53   Cl3   S    
C40   C46   A    
C26   N2    S    
C28   C29   A    
C53   N3    A    
C5    C6    A    
C55   N1    A    
C9    C22   A    
C39   O14   S    
C1    O1    A    
C15   C16   A    
C56   C57   A    
C44   H11   S    
C18   C19   A    
C45   O12   S    
C34   O11   A    
C8    C58   A    
Cu1   O8    S    
C21   Cl8   S    
C14   Cl9   S    
C16   C17   A    
C49   H12   S    
C23   O9    A    
C52   N3    A    
C16   C20   A    
C58   H1    S    
C57   Cl10  S    
Cu1   Cu2   S    
C24   H4    S    
C23   C46   S    
C21   C22   A    
C27   C30   A    
C31   H2    S    
C36   C41   A    
C4    C7    A    
C4    C28   A    
Cu2   O7    S    
C44   C46   A    
C50   C51   A    
C54   N4    A    
C1    O5    A    
C56   O13   S    
C7    C31   A    
C51   C52   A    
C24   C25   A    
C10   C14   A    
C50   H13   S    
C39   C40   A    
C35   H6    S    
C25   C26   A    
Cu2   O9    S    
C5    C45   A    
C47   Cl4   S    
C37   Cl2   S    
Cu1   O10   S    
C19   N2    A    
C43   C44   A    
C34   O10   A    
C37   C38   A    
C8    C57   A    
C30   H16   S    
C3    C56   A    
C47   C48   A    
C8    C12   S    
C2    C58   A    
C17   C18   A    
C6    Cl7   S    
C43   H7    S    
C48   C49   A    
C6    C30   A    
C11   C32   A    
C25   Cl1   S    
C23   O8    A    
C9    C34   S    
C31   C35   A    
C42   C43   A    
C22   H14   S    
C55   O3    S    
C19   O4    S    
C2    H9    S    
Cu2   O11   S    
C40   C41   A    
C12   O7    A    
C54   Cl6   S    
Cu1   O1    S    
C32   H3    S    
C4    C5    A    
C10   C13   A    
Cu1   N4    S    
Cu2   O5    S    
C36   H8    S    
C9    C24   A    
C47   C52   A    
C20   N2    A    
C29   C35   A    
C12   O6    A    
C32   C33   A    
C2    C3    A    
Cu1   O6    S    
C11   C13   A    
C38   C39   A    
C48   Cl5   S    
C51   N4    A    
C18   C33   A    
C13   C17   A    
C1    C42   S    
C11   C29   A    
C36   C37   A    
C49   C50   A    
C27   C28   A    
C14   C15   A    
C45   N1    A    
C3    N1    S    
