data_mof_unit_35068.cif
_audit_creation_date              2012-12-10T16:51:27-0500
_audit_creation_method            fapswitch 2.2
_symmetry_space_group_name_H-M    P1
_symmetry_Int_Tables_number       1
_space_group_crystal_system       triclinic
_cell_length_a                    7.852801
_cell_length_b                    8.564266
_cell_length_c                    12.094698
_cell_angle_alpha                 92.673935
_cell_angle_beta                  101.231283
_cell_angle_gamma                 94.029298
_cell_volume                      794.346022254

loop_
_atom_site_label
_atom_site_type_symbol
_atom_type_description
_atom_site_fract_x
_atom_site_fract_y
_atom_site_fract_z
_atom_type_partial_charge
C1    C     C_R   0.044451 0.794600 0.497333 0.969124
C2    C     C_R   0.158971 0.503015 0.832253 -0.119127
C3    C     C_2   0.067629 0.958313 0.495875 -0.393865
C4    C     C_R   0.105920 0.503519 0.710293 0.850095
C5    C     C_2   0.932551 0.041774 0.504446 -0.378455
C6    C     C_R   0.955610 0.205424 0.502773 0.961038
C7    C     C_R   0.892376 0.488059 0.289673 0.872701
C8    C     C_R   0.809251 0.286471 0.002034 -0.185377
C9    C     C_R   0.829438 0.456126 0.169808 -0.066546
C10   C     C_R   0.073341 0.593449 0.900714 -0.181047
C11   C     C_R   0.144463 0.622814 0.014682 -0.129854
C12   C     C_R   0.395611 0.481873 0.990273 0.081228
C13   C     C_R   0.305895 0.570589 0.059246 -0.195652
C14   C     C_1   0.473571 0.340338 0.398350 0.401472
C15   C     C_R   0.310079 0.431952 0.879870 0.078449
C16   C     C_R   0.567818 0.441813 0.026860 0.084676
C17   C     C_R   0.640706 0.331236 0.962198 0.167190
C18   C     C_R   0.543024 0.265372 0.860079 -0.245057
C19   C     C_R   0.379606 0.315413 0.818991 -0.202596
C20   C     C_R   0.670892 0.511842 0.125348 -0.261085
C21   C     C_R   0.902050 0.345948 0.107506 -0.178615
H1    H     H_    0.025690 0.301305 0.142195 0.159495
H2    H     H_    0.307430 0.260844 0.739576 0.168610
H3    H     H_    0.194997 0.009570 0.487726 0.179817
H4    H     H_    0.805188 0.990556 0.512610 0.181051
H5    H     H_    0.530585 0.626823 0.582824 0.184148
H6    H     H_    0.594183 0.177511 0.810917 0.147592
H7    H     H_    0.865702 0.201083 0.954037 0.136789
H8    H     H_    0.626977 0.605772 0.172624 0.147280
H9    H     H_    0.954644 0.645788 0.865404 0.157526
H10   H     H_    0.355367 0.597889 0.148213 0.140256
H11   H     H_    0.077480 0.691193 0.067809 0.145992
N1    N     N_2   0.434800 0.456690 0.470850 -0.142937
N2    N     N_2   0.565200 0.543310 0.529150 -0.181288
N3    N     N_1   0.504067 0.242694 0.337362 -0.258331
O1    O     O_R   0.893060 0.738880 0.507150 -0.613009
O2    O     O_R   0.172250 0.711130 0.488470 -0.627512
O3    O     O_R   0.944700 0.520730 0.667600 -0.614461
O4    O     O_R   0.223890 0.492980 0.648920 -0.620826
O5    O     O_R   0.827750 0.288870 0.511530 -0.621551
O6    O     O_R   0.106940 0.261120 0.492850 -0.626360
O7    O     O_R   0.776110 0.507020 0.351080 -0.614898
O8    O     O_R   0.055300 0.479270 0.332400 -0.626435
Zn1   Zn    Zn3+2 0.813580 0.518530 0.512470 0.941318
Zn2   Zn    Zn3+2 0.186420 0.481470 0.487530 0.929036

loop_
_geom_bond_atom_site_label_1
_geom_bond_atom_site_label_2
_ccdc_geom_bond_type
C2    C4    S    
C4    O4    A    
O3    Zn1   S    
C7    O8    A    
N1    Zn2   S    
C10   H9    S    
C9    C20   A    
C19   H2    S    
C8    C17   A    
C12   C15   A    
C16   C20   A    
O4    Zn2   S    
C14   N1    S    
C8    C21   A    
O8    Zn2   S    
C21   H1    S    
C15   C19   A    
C2    C15   A    
C11   C13   A    
C9    C21   A    
C3    H3    S    
O7    Zn1   S    
C5    H4    S    
C13   H10   S    
C11   H11   S    
N1    N2    D    
C20   H8    S    
C5    C6    S    
C8    H7    S    
C6    O5    A    
O1    Zn1   S    
C10   C11   A    
O2    Zn2   S    
C2    C10   A    
O5    Zn1   S    
N2    Zn1   S    
C12   C13   A    
C17   C18   A    
C18   C19   A    
C7    O7    A    
C14   N3    T    
C7    C9    S    
O6    Zn2   S    
C16   C17   A    
C3    C5    D    
H5    N2    S    
C18   H6    S    
C12   C16   A    
C1    O1    A    
C4    O3    A    
C1    O2    A    
C1    C3    S    
C6    O6    A    
