data_mof_unit_63905.cif
_audit_creation_date              2012-12-10T17:30:08-0500
_audit_creation_method            fapswitch 2.2
_symmetry_space_group_name_H-M    P1
_symmetry_Int_Tables_number       1
_space_group_crystal_system       triclinic
_cell_length_a                    18.744671
_cell_length_b                    18.649945
_cell_length_c                    18.731727
_cell_angle_alpha                 109.372947
_cell_angle_beta                  110.115272
_cell_angle_gamma                 109.335429
_cell_volume                      5015.04755361

loop_
_atom_site_label
_atom_site_type_symbol
_atom_type_description
_atom_site_fract_x
_atom_site_fract_y
_atom_site_fract_z
_atom_type_partial_charge
C1    C     C_R   0.622097 0.620313 0.502686 0.773652
C2    C     C_3   0.177578 0.418997 0.200251 -0.191232
C3    C     C_3   0.221146 0.479716 0.300724 -0.190801
C4    C     C_3   0.311688 0.499556 0.311040 -0.008527
C5    C     C_3   0.763175 0.667241 0.501996 -0.419200
C6    C     C_3   0.834974 0.740109 0.504229 -0.471290
C7    C     C_3   0.647966 0.696444 0.421835 -0.504961
C8    C     C_3   0.736275 0.782918 0.588526 -0.178189
C9    C     C_3   0.691726 0.690689 0.504771 0.024442
C10   C     C_3   0.810992 0.812100 0.501697 0.036516
C11   C     C_3   0.717268 0.767528 0.418369 0.759015
C12   C     C_R   0.379974 0.499844 0.379771 0.814132
C13   C     C_3   0.806308 0.855437 0.586179 -0.269348
C14   C     C_3   0.667202 0.403341 0.665487 -0.411079
C15   C     C_3   0.742159 0.403579 0.734193 -0.388999
C16   C     C_3   0.776985 0.547909 0.697699 -0.513674
C17   C     C_3   0.695221 0.544434 0.782735 0.770023
C18   C     C_3   0.687851 0.499230 0.690696 0.098354
C19   C     C_3   0.811567 0.498865 0.810926 0.063382
C20   C     C_3   0.850624 0.553936 0.773237 -0.371223
C21   C     C_3   0.765582 0.538970 0.851813 -0.479366
C22   C     C_3   0.280995 0.216497 0.429764 -0.386505
C23   C     C_R   0.378991 0.379894 0.498375 0.885785
C24   C     C_3   0.205439 0.146552 0.427077 -0.198282
C25   C     C_3   0.348459 0.324120 0.593413 0.077927
C26   C     C_3   0.229086 0.323472 0.477424 0.147266
C27   C     C_3   0.310815 0.311276 0.498861 -0.058715
C28   C     C_3   0.190817 0.191822 0.503623 -0.126233
C29   C     C_3   0.281744 0.248330 0.595165 0.318413
C30   C     C_3   0.158400 0.253687 0.480829 -0.294958
C31   C     C_R   0.999072 0.620032 0.118695 0.895762
C32   C     C_R   0.121261 0.499815 0.120874 0.830093
C33   C     C_R   0.002346 0.379896 0.882830 0.777685
C34   C     C_R   0.618739 0.498709 0.620580 0.818371
C35   C     C_R   0.880981 0.498698 0.879556 0.798635
C36   C     C_R   0.001243 0.880982 0.380031 0.870659
C37   C     C_R   0.879797 0.879584 0.499574 0.823756
C38   C     C_R   0.999041 0.119371 0.619949 0.772565
C39   C     C_R   0.120372 0.122298 0.502510 0.789263
C40   C     C_3   0.909728 0.652638 0.185282 -0.408292
C41   C     C_3   0.909648 0.725559 0.255615 0.256281
C42   C     C_3   0.076117 0.723420 0.279092 0.135536
C43   C     C_3   0.012284 0.768665 0.171417 0.168484
C44   C     C_3   0.998716 0.689192 0.187031 -0.039038
C45   C     C_3   0.323220 0.579608 0.299108 -0.218895
C46   C     C_3   0.000460 0.811872 0.310029 -0.046143
C47   C     C_3   0.075043 0.793004 0.351451 -0.526308
C48   C     C_3   0.015813 0.842383 0.245567 0.147454
C49   C     C_3   0.970804 0.223022 0.817126 -0.168468
C50   C     C_3   0.968413 0.150779 0.743461 -0.430245
C51   C     C_3   0.934271 0.289051 0.720898 -0.266481
C52   C     C_3   0.093700 0.342723 0.823941 -0.406320
C53   C     C_3   0.000819 0.310368 0.813081 -0.003880
C54   C     C_3   0.998960 0.187811 0.689885 -0.016246
C55   C     C_3   0.936456 0.219945 0.648466 0.242261
C56   C     C_3   0.231726 0.559878 0.287955 -0.115432
C57   C     C_3   0.094143 0.269573 0.754862 -0.250244
C58   C     C_3   0.189630 0.499395 0.188685 -0.053128
C59   C     C_3   0.280140 0.519403 0.198591 -0.232747
C60   C     C_3   0.268705 0.440579 0.212264 0.454186
Cu1   Cu    Cu3+1 0.500160 0.437540 0.437660 0.992070
Cu2   Cu    Cu3+1 0.499840 0.562460 0.562340 1.018986
Cu3   Cu    Cu3+1 0.938720 0.437560 0.001120 0.970614
Cu4   Cu    Cu3+1 0.063680 0.562470 0.001100 0.970768
Cu5   Cu    Cu3+1 0.062620 0.000040 0.562660 1.029416
Cu6   Cu    Cu3+1 0.937380 0.999960 0.437350 1.070629
H1    H     H_    0.215052 0.609350 0.317924 0.183828
H2    H     H_    0.844847 0.711243 0.448633 0.201030
H3    H     H_    0.613703 0.631149 0.361641 0.177058
H4    H     H_    0.684749 0.800597 0.586921 0.144253
H5    H     H_    0.784021 0.903032 0.581976 0.155845
H6    H     H_    0.595748 0.712243 0.422460 0.160207
H7    H     H_    0.659322 0.368310 0.599852 0.189839
H8    H     H_    0.383750 0.645260 0.340905 0.150816
H9    H     H_    0.604287 0.365708 0.661012 0.214791
H10   H     H_    0.714007 0.361627 0.758865 0.196306
H11   H     H_    0.773762 0.374242 0.702679 0.173564
H12   H     H_    0.773770 0.511778 0.634894 0.203082
H13   H     H_    0.888846 0.529794 0.748404 0.212334
H14   H     H_    0.734276 0.497823 0.875618 0.189791
H15   H     H_    0.815171 0.605166 0.910896 0.184791
H16   H     H_    0.792409 0.614744 0.708240 0.184876
H17   H     H_    0.303030 0.534271 0.155195 0.157774
H18   H     H_    0.896436 0.624035 0.826018 0.186993
H19   H     H_    0.337772 0.205295 0.444087 0.155066
H20   H     H_    0.257534 0.209353 0.363210 0.227224
H21   H     H_    0.144383 0.115865 0.363129 0.154694
H22   H     H_    0.250699 0.391257 0.527181 0.117111
H23   H     H_    0.098041 0.212477 0.414406 0.209770
H24   H     H_    0.356562 0.387968 0.636179 0.145154
H25   H     H_    0.896571 0.595214 0.195340 0.188072
H26   H     H_    0.854492 0.627677 0.119159 0.200017
H27   H     H_    0.858473 0.738545 0.220402 0.221685
H28   H     H_    0.067843 0.771819 0.398657 0.220315
H29   H     H_    0.076774 0.796427 0.174571 0.070240
H30   H     H_    0.117701 0.352864 0.158376 0.175660
H31   H     H_    0.082611 0.901341 0.283733 0.071637
H32   H     H_    0.138794 0.756131 0.280780 0.152512
H33   H     H_    0.139815 0.854519 0.390599 0.200293
H34   H     H_    0.903050 0.198368 0.806226 0.144453
H35   H     H_    0.010625 0.125654 0.771148 0.209926
H36   H     H_    0.901026 0.092627 0.699986 0.147032
H37   H     H_    0.867563 0.262144 0.712643 0.135027
H38   H     H_    0.198394 0.463985 0.343858 0.159721
H39   H     H_    0.113772 0.401125 0.815422 0.199970
H40   H     H_    0.143041 0.365658 0.892478 0.171326
H41   H     H_    0.116545 0.295336 0.716417 0.159043
H42   H     H_    0.963942 0.250654 0.615229 0.165603
H43   H     H_    0.733345 0.604085 0.440922 0.199302
H44   H     H_    0.793102 0.658108 0.558499 0.178423
H45   H     H_    0.898447 0.769514 0.565156 0.216286
O1    O     O_R   0.591300 0.538410 0.447360 -0.590224
O2    O     O_R   0.053760 0.643910 0.092060 -0.602718
O3    O     O_R   0.039800 0.447260 0.092470 -0.575739
O4    O     O_R   0.145330 0.552750 0.092450 -0.590304
O5    O     O_R   0.948640 0.356110 0.910160 -0.601490
O6    O     O_R   0.054170 0.461590 0.910140 -0.581532
O7    O     O_R   0.857070 0.447280 0.909760 -0.596143
O8    O     O_R   0.962600 0.552760 0.909740 -0.583383
O9    O     O_R   0.053170 0.908900 0.462020 -0.597116
O10   O     O_R   0.947410 0.908840 0.356190 -0.538581
O11   O     O_R   0.961720 0.908880 0.552900 -0.602275
O12   O     O_R   0.591030 0.643900 0.552660 -0.595851
O13   O     O_R   0.855960 0.908820 0.447080 -0.510107
O14   O     O_R   0.052590 0.091170 0.643810 -0.589522
O15   O     O_R   0.946830 0.091100 0.537990 -0.539263
O16   O     O_R   0.144040 0.091190 0.552920 -0.533964
O17   O     O_R   0.038280 0.091120 0.447100 -0.605434
O18   O     O_R   0.408770 0.447260 0.356000 -0.531812
O19   O     O_R   0.408500 0.552750 0.461290 -0.600776
O20   O     O_R   0.408970 0.356100 0.447340 -0.596731
O21   O     O_R   0.408700 0.461590 0.552640 -0.591603
O22   O     O_R   0.591500 0.447250 0.538710 -0.620033
O23   O     O_R   0.591230 0.552740 0.644000 -0.508598
O24   O     O_R   0.948230 0.538430 0.092080 -0.581664
O25   O     O_3   0.718828 0.730299 0.340068 -0.705984
H46   H     H_    0.722644 0.676701 0.332169 0.323345
C61   C     C_1   0.771610 0.779220 0.670640 0.288614
N1    N     N_1   0.799012 0.776362 0.734601 -0.278922
C62   C     C_1   0.893772 0.909077 0.668076 0.249988
N2    N     N_1   0.961867 0.950749 0.731900 -0.257111
O26   O     O_3   0.693489 0.831914 0.419224 -0.721000
H47   H     H_    0.639255 0.804425 0.361960 0.347017
O27   O     O_3   0.717121 0.633039 0.810717 -0.704829
H48   H     H_    0.779493 0.668362 0.829011 0.316809
O28   O     O_3   0.613235 0.499004 0.774189 -0.681767
H49   H     H_    0.616938 0.532899 0.830219 0.353255
C63   C     C_1   0.221606 0.074031 0.426269 0.231356
N3    N     N_1   0.235503 0.018064 0.426376 -0.310980
O29   O     O_3   0.433868 0.335862 0.630417 -0.670695
H50   H     H_    0.440169 0.298943 0.583699 0.308374
O30   O     O_3   0.315030 0.194667 0.613121 -0.658520
H51   H     H_    0.346016 0.183863 0.581009 0.351888
O31   O     O_3   0.194329 0.315272 0.393669 -0.732259
H52   H     H_    0.153917 0.339208 0.389720 0.325726
O32   O     O_3   0.289414 0.378159 0.174121 -0.694080
H53   H     H_    0.254751 0.354036 0.109880 0.334050
C64   C     C_1   0.131179 0.296055 0.539837 0.174132
N4    N     N_1   0.109453 0.329441 0.585482 -0.291806
C65   C     C_1   0.271504 0.289731 0.670218 0.314427
N5    N     N_1   0.266197 0.324285 0.730426 -0.301251
O33   O     O_3   0.885435 0.698268 0.309491 -0.753583
H54   H     H_    0.923744 0.676581 0.334208 0.321650
O34   O     O_3   0.076032 0.654800 0.295301 -0.729276
H55   H     H_    0.025660 0.630193 0.303346 0.336119
O35   O     O_3   0.944553 0.740094 0.087665 -0.707546
H56   H     H_    0.967799 0.782318 0.069236 0.331397
O36   O     O_3   0.953459 0.865203 0.209301 -0.673891
H57   H     H_    0.979741 0.906306 0.191075 0.328443
C66   C     C_1   0.027332 0.237291 0.904129 0.273982
N6    N     N_1   0.071543 0.248466 0.972204 -0.303109
O37   O     O_3   0.850577 0.150007 0.582567 -0.695167
H58   H     H_    0.821589 0.124876 0.610609 0.325854
C67   C     C_1   0.158938 0.248480 0.800953 0.365887
N7    N     N_1   0.209528 0.232102 0.837180 -0.236916
C68   C     C_1   0.950875 0.367771 0.711461 0.232660
N8    N     N_1   0.963959 0.429247 0.703961 -0.282089

loop_
_geom_bond_atom_site_label_1
_geom_bond_atom_site_label_2
_ccdc_geom_bond_type
C3    H38   S    
O36   H57   S    
C33   O6    A    
C8    C13   S    
C6    H45   S    
C14   C18   S    
C35   O8    A    
C19   C20   S    
C32   C58   S    
C60   O32   S    
Cu1   O22   S    
C51   C55   S    
C52   C53   S    
C15   C19   S    
C48   H31   S    
C49   C66   S    
C25   H24   S    
C50   C54   S    
Cu4   O8    S    
C12   O19   A    
C17   O27   S    
Cu5   O16   S    
O34   H55   S    
C19   C21   S    
C59   H17   S    
O33   H54   S    
C42   H32   S    
C1    O1    A    
C5    C6    S    
C2    C60   S    
C66   N6    T    
C34   O23   A    
C51   H37   S    
C47   H33   S    
C8    C61   S    
C3    C56   S    
C22   H19   S    
C49   C50   S    
Cu2   O19   S    
C67   N7    T    
C54   C55   S    
Cu3   O3    S    
Cu5   O9    S    
C45   C59   S    
C45   C56   S    
Cu6   O17   S    
C8    C9    S    
C48   O36   S    
C43   H29   S    
C41   C46   S    
C36   C46   S    
C39   O17   A    
C23   C27   S    
C4    C12   S    
C43   C48   S    
C16   H12   S    
Cu1   O18   S    
C6    H2    S    
C15   H10   S    
C10   C11   S    
C52   H40   S    
C59   C60   S    
C40   H25   S    
Cu4   O4    S    
C41   O33   S    
C33   C53   S    
O35   H56   S    
C51   C68   S    
C42   C44   S    
C30   H23   S    
Cu2   O12   S    
C38   O15   A    
C29   C65   S    
C4    C45   S    
C25   C29   S    
C46   C48   S    
C37   O11   A    
C39   O16   A    
C31   C44   S    
C13   C62   S    
Cu2   O21   S    
C1    C9    S    
C62   N2    T    
C31   O24   A    
C24   C63   S    
C7    H6    S    
Cu3   O7    S    
O27   H48   S    
C13   H5    S    
C34   O22   A    
C58   C59   S    
C17   C21   S    
Cu4   O6    S    
C57   C67   S    
C25   O29   S    
C51   C53   S    
O32   H53   S    
C7    C11   S    
C43   C44   S    
C1    O12   A    
C6    C10   S    
C5    C9    S    
C37   O13   A    
C14   H7    S    
C38   C54   S    
C30   C64   S    
C16   C20   S    
C4    C60   S    
C16   H16   S    
C17   C18   S    
C26   C27   S    
Cu6   O10   S    
C23   O20   A    
Cu5   O11   S    
C63   N3    T    
C18   C34   S    
O31   H52   S    
Cu3   O5    S    
C16   C18   S    
C40   C41   S    
C57   H41   S    
C21   H15   S    
C52   H39   S    
C26   C30   S    
C22   C27   S    
C20   H18   S    
C64   N4    T    
Cu6   O13   S    
C22   C24   S    
C26   O31   S    
C52   C57   S    
C55   O37   S    
C38   O14   A    
O37   H58   S    
Cu3   O24   S    
O28   H49   S    
C43   O35   S    
C7    C9    S    
C46   C47   S    
C28   C29   S    
C33   O5    A    
Cu4   O2    S    
C20   H13   S    
O26   H47   S    
C24   C28   S    
O25   H46   S    
C10   C13   S    
C7    H3    S    
C24   H21   S    
C2    C58   S    
C50   H36   S    
C10   C37   S    
C25   C27   S    
C56   H1    S    
C8    H4    S    
C28   C39   S    
C55   H42   S    
C41   H27   S    
C65   N5    T    
Cu2   O23   S    
C68   N8    T    
C36   O10   A    
C28   C30   S    
C19   C35   S    
C11   O25   S    
C14   H9    S    
C29   O30   S    
C15   H11   S    
C5    H43   S    
C49   C53   S    
C21   H14   S    
C2    H30   S    
C47   H28   S    
C56   C58   S    
C23   O21   A    
C2    C3    S    
C42   O34   S    
C42   C47   S    
C22   H20   S    
C32   O4    A    
Cu1   Cu2   S    
C36   O9    A    
C11   O26   S    
C12   O18   A    
C40   H26   S    
C61   N1    T    
Cu1   O20   S    
C17   O28   S    
Cu3   Cu4   S    
Cu6   O15   S    
C40   C44   S    
O30   H51   S    
C50   H35   S    
C26   H22   S    
Cu5   Cu6   S    
C5    H44   S    
C14   C15   S    
C45   H8    S    
C35   O7    A    
C32   O3    A    
Cu1   O1    S    
C31   O2    A    
C3    C4    S    
Cu5   O14   S    
O29   H50   S    
C49   H34   S    
C54   C57   S    
