data_mof_unit_21760.cif
_audit_creation_date              2012-12-10T20:49:09-0500
_audit_creation_method            fapswitch 2.2
_symmetry_space_group_name_H-M    P1
_symmetry_Int_Tables_number       1
_space_group_crystal_system       triclinic
_cell_length_a                    8.957516
_cell_length_b                    8.11918
_cell_length_c                    10.575362
_cell_angle_alpha                 89.310513
_cell_angle_beta                  91.535512
_cell_angle_gamma                 89.752708
_cell_volume                      768.781462302

loop_
_atom_site_label
_atom_site_type_symbol
_atom_type_description
_atom_site_fract_x
_atom_site_fract_y
_atom_site_fract_z
_atom_type_partial_charge
C1    C     C_R   0.217972 0.500256 0.498942 0.939842
C2    C     C_3   0.625620 0.549785 0.050774 0.079382
C3    C     C_3   0.501547 0.499779 0.877270 -0.251264
C4    C     C_3   0.484612 0.501787 0.122927 -0.239987
C5    C     C_1   0.065125 0.500363 0.499219 -0.146336
C6    C     C_1   0.934857 0.499665 0.499910 -0.146115
C7    C     C_3   0.152150 0.758122 0.984361 -0.714235
C8    C     C_3   0.814144 0.212573 0.019062 -0.673491
C9    C     C_3   0.464402 0.928649 0.864952 -0.631440
C10   C     C_3   0.283398 0.163351 0.144326 -0.695224
C11   C     C_R   0.782020 0.499754 0.500599 0.953149
C12   C     C_R   0.487698 0.500748 0.257311 0.922590
C13   C     C_R   0.506239 0.499563 0.743118 0.933457
C14   C     C_3   0.384293 0.605059 0.032191 0.151284
C15   C     C_3   0.600757 0.396669 0.968446 0.104155
C16   C     C_3   0.523908 0.652739 0.960021 0.179704
C17   C     C_3   0.460922 0.349122 0.040230 0.179821
C18   C     C_3   0.358930 0.450895 0.948679 0.105448
H1    H     H_    0.231777 0.688547 0.163340 0.236699
H2    H     H_    0.520779 0.043878 0.835801 0.254404
H3    H     H_    0.383514 0.960279 0.937460 0.281407
H4    H     H_    0.404103 0.878750 0.781368 0.241309
H5    H     H_    0.514260 0.136936 0.146245 0.259204
H6    H     H_    0.282915 0.047615 0.201424 0.241081
H7    H     H_    0.197149 0.151491 0.068299 0.255121
H8    H     H_    0.253743 0.267449 0.206086 0.235183
H9    H     H_    0.094657 0.872244 0.013575 0.245730
H10   H     H_    0.070083 0.657105 0.980216 0.277072
H11   H     H_    0.194942 0.776608 0.887965 0.251367
H12   H     H_    0.769728 0.330167 0.846938 0.242196
H13   H     H_    0.873387 0.106365 0.977886 0.244066
H14   H     H_    0.752815 0.167633 0.101964 0.245060
H15   H     H_    0.898562 0.303844 0.050562 0.259313
H16   H     H_    0.670416 0.807768 0.865394 0.240126
I1    I     I_    0.164841 0.363153 0.845984 -0.468791
I2    I     I_    0.820531 0.641418 0.147645 -0.445077
N1    N     N_1   0.500000 0.073640 0.500000 -0.033321
N2    N     N_1   0.500000 0.926360 0.500000 -0.036016
N3    N     N_2   0.270816 0.717646 0.075064 -0.292885
N4    N     N_2   0.714170 0.284925 0.923996 -0.293011
N5    N     N_2   0.573986 0.813250 0.916297 -0.278639
N6    N     N_2   0.429039 0.186227 0.090500 -0.284741
O1    O     O_R   0.285350 0.636850 0.500000 -0.624378
O2    O     O_R   0.714650 0.363150 0.500000 -0.616907
O3    O     O_R   0.714650 0.636850 0.500000 -0.603284
O4    O     O_R   0.285350 0.363150 0.500000 -0.607745
O5    O     O_R   0.499970 0.636850 0.313950 -0.597195
O6    O     O_R   0.500030 0.363150 0.686050 -0.604388
O7    O     O_R   0.500030 0.636850 0.686050 -0.633857
O8    O     O_R   0.499970 0.363150 0.313950 -0.626436
Zn1   Zn    Zn3+2 0.500000 0.682780 0.500000 0.993162
Zn2   Zn    Zn3+2 0.500000 0.317220 0.500000 0.993431

loop_
_geom_bond_atom_site_label_1
_geom_bond_atom_site_label_2
_ccdc_geom_bond_type
C13   O6    A    
O8    Zn2   S    
N1    N2    T    
C7    H11   S    
C4    C12   S    
C2    C16   S    
C18   I1    S    
C14   C18   S    
C9    H2    S    
C2    C4    S    
C3    C13   S    
C9    H3    S    
O2    Zn2   S    
C17   C18   S    
H12   N4    S    
C11   O2    A    
C2    C15   S    
H16   N5    S    
O1    Zn1   S    
H5    N6    S    
H1    N3    S    
C12   O5    A    
C13   O7    A    
C4    C17   S    
C10   H7    S    
C14   C16   S    
C8    H15   S    
C4    C14   S    
C5    C6    T    
C1    O4    A    
C1    C5    S    
C15   N4    S    
C11   O3    A    
C10   N6    S    
O3    Zn1   S    
C8    H14   S    
O4    Zn2   S    
O6    Zn2   S    
C7    H9    S    
C3    C18   S    
C9    H4    S    
C2    I2    S    
C6    C11   S    
C15   C17   S    
N1    Zn2   S    
C7    N3    S    
C17   N6    S    
C3    C15   S    
O5    Zn1   S    
N2    Zn1   S    
C8    N4    S    
C7    H10   S    
C10   H6    S    
C14   N3    S    
C8    H13   S    
C9    N5    S    
C16   N5    S    
C1    O1    A    
C10   H8    S    
C3    C16   S    
C12   O8    A    
O7    Zn1   S    
