data_mof_unit_23126.cif
_audit_creation_date              2012-12-10T20:58:02-0500
_audit_creation_method            fapswitch 2.2
_symmetry_space_group_name_H-M    P1
_symmetry_Int_Tables_number       1
_space_group_crystal_system       triclinic
_cell_length_a                    18.193902
_cell_length_b                    18.26093
_cell_length_c                    18.392223
_cell_angle_alpha                 120.049452
_cell_angle_beta                  89.966987
_cell_angle_gamma                 119.907361
_cell_volume                      4324.89093956

loop_
_atom_site_label
_atom_site_type_symbol
_atom_type_description
_atom_site_fract_x
_atom_site_fract_y
_atom_site_fract_z
_atom_type_partial_charge
C1    C     C_R   0.360967 0.220088 0.361025 0.497705
C2    C     C_3   0.775526 0.942989 0.667251 -0.213065
C3    C     C_3   0.699150 0.897451 0.702004 0.056703
C4    C     C_R   0.640953 0.780960 0.640447 0.505672
C5    C     C_3   0.799603 0.102735 0.806688 0.053431
C6    C     C_3   0.808050 0.060428 0.861491 0.006400
C7    C     C_3   0.827334 0.061803 0.722398 -0.239156
C8    C     C_3   0.689170 0.397719 0.253084 -0.247548
C9    C     C_3   0.745210 0.393795 0.189320 -0.092718
C10   C     C_3   0.669567 0.514618 0.232681 -0.233162
C11   C     C_3   0.798525 0.591288 0.358819 -0.240025
C12   C     C_3   0.278127 0.579712 0.360132 -0.238160
C13   C     C_3   0.698348 0.501388 0.302344 0.046057
C14   C     C_3   0.798831 0.499383 0.199910 0.037460
C15   C     C_3   0.732737 0.520687 0.176546 -0.256168
C16   C     C_R   0.359611 0.500930 0.641070 0.502071
C17   C     C_3   0.857799 0.586962 0.299604 -0.250060
C18   C     C_R   0.471761 0.186483 0.554991 -0.103371
C19   C     C_R   0.429855 0.142623 0.466557 -0.057951
C20   C     C_R   0.337876 0.098805 0.435881 0.062080
C21   C     C_R   0.288316 0.098766 0.494433 -0.085644
C22   C     C_R   0.330610 0.143256 0.582949 -0.109823
C23   C     C_3   0.300550 0.500933 0.302258 0.023886
C24   C     C_R   0.422213 0.186964 0.613176 -0.102772
C25   C     C_R   0.236020 0.943910 0.286460 -0.148227
C26   C     C_R   0.195446 0.892388 0.195674 0.041486
C27   C     C_R   0.212535 0.949273 0.159045 0.020924
C28   C     C_R   0.640755 0.501143 0.359599 0.508025
C29   C     C_R   0.267183 0.056192 0.214974 -0.115260
C30   C     C_R   0.307076 0.107741 0.305942 0.023372
C31   C     C_R   0.292965 0.050861 0.341959 -0.030932
C32   C     C_R   0.217966 0.874903 0.000849 0.066018
C33   C     C_R   0.175510 0.826934 0.910885 -0.128044
C34   C     C_3   0.197247 0.499603 0.200523 0.050071
C35   C     C_R   0.091506 0.805168 0.882986 -0.093952
C36   C     C_R   0.048501 0.830937 0.944405 -0.088638
C37   C     C_R   0.089364 0.878696 0.034045 -0.106795
C38   C     C_R   0.173743 0.900898 0.063315 0.067381
C39   C     C_R   0.891296 0.586342 0.541935 -0.128702
C40   C     C_R   0.641818 0.499504 0.639472 0.503838
C41   C     C_R   0.839231 0.539603 0.580950 -0.081472
C42   C     C_R   0.839910 0.600493 0.666939 0.029420
C43   C     C_R   0.892921 0.708581 0.713535 -0.031951
C44   C     C_R   0.945214 0.756001 0.674309 0.043428
C45   C     C_3   0.149476 0.390262 0.182019 -0.083373
C46   C     C_R   0.943676 0.693975 0.588048 -0.145622
C47   C     C_R   0.841111 0.551008 0.767338 -0.161396
C48   C     C_R   0.799170 0.496958 0.804593 0.023717
C49   C     C_R   0.704993 0.441654 0.785432 -0.033735
C50   C     C_R   0.656105 0.446658 0.733043 -0.163556
C51   C     C_R   0.697954 0.499792 0.694979 0.022777
C52   C     C_R   0.358018 0.500186 0.359556 0.516845
C53   C     C_R   0.791454 0.551242 0.711026 -0.039622
C54   C     C_R   0.631791 0.273502 0.767642 -0.101248
C55   C     C_R   0.581748 0.208576 0.793611 -0.073812
C56   C     C_3   0.221393 0.582286 0.300885 -0.216893
C57   C     C_R   0.552424 0.243460 0.866644 0.047409
C58   C     C_R   0.574448 0.344343 0.913466 -0.154588
C59   C     C_R   0.624816 0.409420 0.887644 -0.102245
C60   C     C_R   0.653982 0.374416 0.814824 0.053984
C61   C     C_R   0.422348 0.836896 0.771685 -0.101276
C62   C     C_R   0.390992 0.758393 0.784369 -0.102954
C63   C     C_R   0.315179 0.658260 0.719693 0.056793
C64   C     C_3   0.347646 0.527220 0.239325 -0.092299
C65   C     C_R   0.270292 0.637818 0.642864 -0.058300
C66   C     C_R   0.302282 0.716407 0.630127 -0.106358
C67   C     C_3   0.641994 0.939757 0.705139 -0.269356
C68   C     C_R   0.378321 0.815829 0.694432 -0.084530
C69   C     C_R   0.228148 0.572469 0.786992 -0.153228
C70   C     C_R   0.196085 0.499190 0.806348 0.019257
C71   C     C_R   0.219441 0.427714 0.772188 -0.034327
C72   C     C_R   0.272011 0.429871 0.717741 -0.155940
C73   C     C_R   0.303623 0.502726 0.697902 0.017724
C74   C     C_R   0.281874 0.575651 0.733677 -0.033404
C75   C     C_R   0.240581 0.379341 0.871825 -0.061912
C76   C     C_3   0.286996 0.528127 0.180742 -0.265380
C77   C     C_R   0.215227 0.305995 0.890144 -0.110291
C78   C     C_3   0.698925 0.058606 0.771251 -0.263886
C79   C     C_R   0.142021 0.203419 0.828644 -0.070493
C80   C     C_R   0.093906 0.174021 0.748787 -0.102482
C81   C     C_R   0.118800 0.247215 0.730342 -0.099120
C82   C     C_R   0.192057 0.350395 0.792009 0.061506
C83   C     C_R   0.856953 0.499925 0.142749 0.519751
C84   C     C_R   0.138738 0.499683 0.861774 0.501959
C85   C     C_R   0.856891 0.219182 0.862250 0.541859
C86   C     C_R   0.138048 0.779982 0.141126 0.507197
C87   C     C_R   0.855807 0.499433 0.861783 0.499314
C88   C     C_3   0.210163 0.392135 0.243397 -0.225247
C89   C     C_3   0.739664 0.937715 0.800104 -0.077294
C90   C     C_R   0.139779 0.500021 0.142840 0.506377
C91   C     C_2   0.056111 0.348694 0.189142 0.214014
C92   C     C_2   0.782817 0.103837 0.945099 0.163119
C93   C     C_2   0.439896 0.628465 0.289968 0.212044
C94   C     C_2   0.774944 0.882051 0.809888 0.252389
C95   C     C_2   0.905212 0.096360 0.893376 0.288600
C96   C     C_2   0.684356 0.302216 0.094853 0.264739
C97   C     C_2   0.306728 0.894008 0.024924 0.229158
C98   C     C_2   0.003152 0.869830 0.723012 0.251950
C99   C     C_2   0.498218 0.175442 0.894268 0.216465
H1    H     H_    0.356088 0.464733 0.193897 0.156992
H2    H     H_    0.811981 0.083217 0.680374 0.093729
H3    H     H_    0.900742 0.098288 0.739381 0.177805
H4    H     H_    0.713485 0.389921 0.302648 0.109800
H5    H     H_    0.599335 0.448112 0.187769 0.137600
H6    H     H_    0.321447 0.605124 0.192051 0.112814
H7    H     H_    0.807344 0.666953 0.392768 0.130968
H8    H     H_    0.820754 0.586186 0.411177 0.143703
H9    H     H_    0.904475 0.573285 0.320565 0.135538
H10   H     H_    0.899620 0.663295 0.309678 0.131671
H11   H     H_    0.671278 0.586127 0.266722 0.148523
H12   H     H_    0.159786 0.569828 0.318697 0.186005
H13   H     H_    0.771326 0.598976 0.190232 0.117630
H14   H     H_    0.454703 0.221102 0.681644 0.116357
H15   H     H_    0.542629 0.220096 0.578395 0.102265
H16   H     H_    0.468802 0.142650 0.422000 0.106368
H17   H     H_    0.278032 0.099118 0.186728 0.141770
H18   H     H_    0.207375 0.805759 0.861773 0.095710
H19   H     H_    0.059694 0.767962 0.813465 0.116837
H20   H     H_    0.983220 0.813593 0.922586 0.116694
H21   H     H_    0.054846 0.897740 0.080852 0.097149
H22   H     H_    0.983706 0.728862 0.556697 0.087397
H23   H     H_    0.176311 0.370818 0.286801 0.156144
H24   H     H_    0.223078 0.332900 0.201252 0.109217
H25   H     H_    0.891468 0.539025 0.475956 0.110839
H26   H     H_    0.799707 0.456209 0.544954 0.104900
H27   H     H_    0.912946 0.590766 0.779518 0.143064
H28   H     H_    0.584287 0.406790 0.720791 0.146103
H29   H     H_    0.653286 0.245272 0.710770 0.094133
H30   H     H_    0.565484 0.131030 0.756265 0.133106
H31   H     H_    0.552368 0.372626 0.969847 0.085223
H32   H     H_    0.140676 0.335117 0.111895 0.090127
H33   H     H_    0.640944 0.486886 0.924185 0.108750
H34   H     H_    0.583489 0.905912 0.725673 0.143013
H35   H     H_    0.403041 0.876574 0.684494 0.135878
H36   H     H_    0.480971 0.913973 0.821619 0.149297
H37   H     H_    0.211319 0.561054 0.592754 0.107023
H38   H     H_    0.268110 0.700290 0.570484 0.097919
H39   H     H_    0.211867 0.628589 0.813931 0.137215
H40   H     H_    0.288827 0.374242 0.691354 0.144407
H41   H     H_    0.297550 0.458576 0.919768 0.102484
H42   H     H_    0.252491 0.328551 0.951842 0.097364
H43   H     H_    0.240111 0.557473 0.401192 0.150767
H44   H     H_    0.081147 0.223718 0.668299 0.097038
H45   H     H_    0.614807 0.917011 0.637589 0.132936
H46   H     H_    0.340576 0.658665 0.407224 0.114876
H47   H     H_    0.260047 0.660770 0.314906 0.111853
H48   H     H_    0.997987 0.289826 0.128930 0.142784
H49   H     H_    0.719396 0.055629 0.949814 0.132793
H50   H     H_    0.447294 0.700882 0.334759 0.103832
H51   H     H_    0.746828 0.909486 0.596124 0.098121
H52   H     H_    0.762329 0.864881 0.858984 0.073492
H53   H     H_    0.943853 0.149090 0.963890 0.116903
H54   H     H_    0.616897 0.331820 0.216531 0.134243
H55   H     H_    0.794630 0.382410 0.208905 0.158347
H56   H     H_    0.691890 0.091684 0.736894 0.121561
H57   H     H_    0.629009 0.295794 0.063585 0.097485
H58   H     H_    0.692229 0.464680 0.104595 0.122780
H59   H     H_    0.273262 0.471688 0.109288 0.119321
H60   H     H_    0.217258 0.064866 0.471604 0.097362
H61   H     H_    0.292335 0.143667 0.628064 0.107110
H62   H     H_    0.225221 0.900755 0.314463 0.138789
H63   H     H_    0.335909 0.870965 0.973405 0.098566
H64   H     H_    0.893920 0.755227 0.780365 0.155646
H65   H     H_    0.039972 0.904656 0.690137 0.079933
H66   H     H_    0.474723 0.203169 0.949763 0.093678
H67   H     H_    0.672140 0.080664 0.827162 0.173181
H68   H     H_    0.425724 0.775410 0.844311 0.105312
H69   H     H_    0.122762 0.146673 0.842762 0.173251
H70   H     H_    0.037403 0.094479 0.701158 0.116432
H71   H     H_    0.680093 0.914596 0.822491 0.022139
H72   H     H_    0.822893 0.922333 0.670234 0.209462
O1    O     O_3   0.500000 0.500000 0.500000 -0.444528
O2    O     O_R   0.113800 0.731630 0.056520 -0.532135
O3    O     O_R   0.819390 0.439310 0.886160 -0.542774
O4    O     O_R   0.383400 0.268380 0.323710 -0.553549
O5    O     O_R   0.115110 0.560720 0.179280 -0.541797
O6    O     O_R   0.941380 0.560750 0.885620 -0.554590
O7    O     O_R   0.115110 0.439270 0.057830 -0.549745
O8    O     O_R   0.942690 0.268390 0.886930 -0.534336
O9    O     O_R   0.114340 0.731630 0.178520 -0.561657
O10   O     O_R   0.820160 0.439310 0.057830 -0.517154
O11   O     O_R   0.113800 0.560730 0.885620 -0.552544
O12   O     O_R   0.383400 0.560740 0.616060 -0.536347
O13   O     O_R   0.555060 0.731630 0.615290 -0.554891
O14   O     O_R   0.383950 0.439280 0.616600 -0.550911
O15   O     O_R   0.677590 0.560710 0.444390 -0.547166
O16   O     O_R   0.556370 0.439260 0.616600 -0.553636
O17   O     O_R   0.382640 0.439290 0.322940 -0.536544
O18   O     O_R   0.678360 0.560700 0.616060 -0.523723
O19   O     O_R   0.382640 0.560750 0.444390 -0.550198
O20   O     O_2   0.044787 0.381910 0.261341 -0.521976
O21   O     O_2   0.832299 0.194965 0.007720 -0.491527
O22   O     O_2   0.506868 0.629755 0.280537 -0.524701
O23   O     O_R   0.555060 0.439270 0.322940 -0.539691
O24   O     O_2   0.819772 0.859229 0.766163 -0.434377
O25   O     O_2   0.941928 0.067536 0.841180 -0.486515
O26   O     O_2   0.695955 0.233998 0.053468 -0.455382
O27   O     O_2   0.348425 0.934947 0.101230 -0.506828
O28   O     O_2   0.011222 0.926136 0.800473 -0.468278
O29   O     O_2   0.479273 0.087950 0.855768 -0.536108
O30   O     O_R   0.383950 0.268380 0.445700 -0.535061
O31   O     O_R   0.677590 0.731610 0.615290 -0.502222
O32   O     O_3   0.997750 0.500010 0.002220 -0.444824
O33   O     O_R   0.942690 0.560750 0.179280 -0.551242
O34   O     O_R   0.114340 0.439270 0.886160 -0.537460
O35   O     O_R   0.820160 0.268410 0.886930 -0.516701
Zn1   Zn    Zn3+2 0.456040 0.586770 0.543190 0.932816
Zn2   Zn    Zn3+2 0.456820 0.413240 0.543960 0.929542
Zn3   Zn    Zn3+2 0.631110 0.586750 0.543190 0.963606
Zn4   Zn    Zn3+2 0.456040 0.413240 0.369660 0.940642
Zn5   Zn    Zn3+2 0.041710 0.413240 0.959030 0.956677
Zn6   Zn    Zn3+2 0.866640 0.413270 0.959030 0.975284
Zn7   Zn    Zn3+2 0.040930 0.586780 0.958260 0.928899
Zn8   Zn    Zn3+2 0.041710 0.586770 0.132560 0.937517

loop_
_geom_bond_atom_site_label_1
_geom_bond_atom_site_label_2
_ccdc_geom_bond_type
C2    H51   S    
C66   C68   A    
C63   C65   A    
C34   C56   S    
C76   H6    S    
O33   Zn8   S    
C92   H49   S    
C64   H1    S    
O12   Zn1   S    
C41   C42   A    
O32   Zn8   S    
C93   H50   S    
C35   C36   A    
O14   Zn2   S    
C43   C44   A    
C1    O30   A    
C18   H15   S    
C90   O7    A    
C81   C82   A    
C23   C52   S    
C16   O12   A    
C39   C41   A    
C40   O16   A    
C54   C60   A    
C33   H18   S    
C37   H21   S    
C12   C23   S    
C76   H59   S    
C26   C27   A    
C29   C30   A    
C49   C60   S    
C98   O28   D    
O10   Zn6   S    
O3    Zn6   S    
C5    C6    S    
C80   H70   S    
C36   C37   A    
C67   H34   S    
C37   C38   A    
C89   H71   S    
C15   H58   S    
O1    Zn4   S    
C16   O14   A    
C42   C53   S    
C30   C31   A    
C78   H56   S    
C27   C29   A    
O34   Zn5   S    
C27   C38   S    
C28   O15   A    
C87   O6    A    
C57   C99   S    
C90   O5    A    
C32   C97   S    
C83   O10   A    
C18   C19   A    
C73   C74   A    
O4    Zn4   S    
C89   C94   S    
C36   H20   S    
C81   H44   S    
C44   C98   S    
C84   O34   A    
C72   H40   S    
C11   C17   S    
C40   O18   A    
C2    C7    S    
C25   H62   S    
C8    C9    S    
C55   H30   S    
C7    H3    S    
O16   Zn2   S    
O11   Zn7   S    
C28   O23   A    
C46   H22   S    
C70   C71   A    
C32   C38   A    
C79   H69   S    
C70   C84   S    
C56   H12   S    
C85   O8    A    
C2    H72   S    
C47   C53   A    
C71   C82   S    
C5    C85   S    
C62   H68   S    
C24   H14   S    
C21   C22   A    
C21   H60   S    
C14   C17   S    
O32   Zn5   S    
C61   C62   A    
C67   C78   S    
O17   Zn4   S    
C14   C83   S    
C88   H24   S    
C67   H45   S    
C15   H13   S    
C91   H48   S    
C44   C46   A    
C85   O35   A    
C77   C79   A    
C95   O25   D    
C96   O26   D    
C93   O22   D    
C59   H33   S    
C78   H67   S    
C16   C73   S    
C41   H26   S    
O1    Zn2   S    
C45   C88   S    
C72   C73   A    
C88   H23   S    
O1    Zn3   S    
C17   H9    S    
C5    C7    S    
C83   O33   A    
O8    Zn5   S    
C25   C26   A    
C54   H29   S    
C39   H25   S    
C94   O24   D    
C51   C53   A    
C12   H46   S    
C99   O29   D    
O2    Zn7   S    
C9    C14   S    
C34   C90   S    
C62   C63   A    
O6    Zn7   S    
O23   Zn4   S    
C4    O31   A    
C47   C48   A    
C19   H16   S    
C91   O20   D    
C26   C86   S    
C11   H7    S    
C86   O9    A    
C50   C51   A    
C64   C76   S    
C48   C87   S    
C69   C74   A    
C13   C28   S    
C34   C45   S    
C52   O19   A    
C4    O13   A    
C8    H54   S    
C75   C77   A    
C9    C96   S    
C12   C56   S    
C39   C46   A    
C84   O11   A    
C48   C49   A    
C29   H17   S    
C9    H55   S    
C49   C50   A    
C23   C88   S    
C55   C57   A    
C11   H8    S    
C18   C24   A    
O32   Zn6   S    
C94   H52   S    
C42   C43   A    
O31   Zn3   S    
C3    C4    S    
C6    C89   S    
C61   H36   S    
C47   H27   S    
C25   C31   A    
C69   H39   S    
C87   O3    A    
C54   C55   A    
C1    O4    A    
C10   C15   S    
C97   O27   D    
O32   Zn7   S    
O1    Zn1   S    
C3    C67   S    
C80   C81   A    
C10   C13   S    
C17   H10   S    
C64   C93   S    
C98   H65   S    
C75   C82   A    
C45   H32   S    
C50   H28   S    
C63   C74   S    
C40   C51   S    
C3    C89   S    
C75   H41   S    
C86   O2    A    
C32   C33   A    
C6    C95   S    
C19   C20   A    
C68   H35   S    
C2    C3    S    
C58   C59   A    
C23   C64   S    
O13   Zn1   S    
O18   Zn3   S    
C11   C13   S    
C61   C68   A    
C57   C58   A    
C96   H57   S    
C66   H38   S    
C22   H61   S    
C58   H31   S    
C6    C92   S    
O5    Zn8   S    
O9    Zn8   S    
C1    C30   S    
C33   C35   A    
O30   Zn2   S    
C12   H43   S    
O7    Zn5   S    
C10   H11   S    
C22   C24   A    
C10   H5    S    
C65   C66   A    
C56   H47   S    
C69   C70   A    
C45   C91   S    
C8    H4    S    
C77   H42   S    
C65   H37   S    
C79   C80   A    
C8    C13   S    
O35   Zn6   S    
O19   Zn1   S    
C59   C60   A    
C71   C72   A    
C20   C21   A    
C97   H63   S    
C7    H2    S    
O15   Zn3   S    
C14   C15   S    
C35   H19   S    
C95   H53   S    
C52   O17   A    
C5    C78   S    
C92   O21   D    
C34   C76   S    
C99   H66   S    
C20   C31   S    
C43   H64   S    
