data_mof_unit_64341.cif
_audit_creation_date              2012-12-10T16:43:18-0500
_audit_creation_method            fapswitch 2.2
_symmetry_space_group_name_H-M    P1
_symmetry_Int_Tables_number       1
_space_group_crystal_system       triclinic
_cell_length_a                    30.206613
_cell_length_b                    30.785504
_cell_length_c                    21.748079
_cell_angle_alpha                 89.877491
_cell_angle_beta                  134.112401
_cell_angle_gamma                 90.172562
_cell_volume                      14520.3455531

loop_
_atom_site_label
_atom_site_type_symbol
_atom_type_description
_atom_site_fract_x
_atom_site_fract_y
_atom_site_fract_z
_atom_type_partial_charge
C1    C     C_R   0.690650 0.809056 0.883086 0.858881
C2    C     C_R   0.523638 0.666130 0.001566 0.386482
C3    C     C_R   0.664031 0.249633 0.999413 0.836526
C4    C     C_R   0.404758 0.785936 0.993949 -0.301054
C5    C     C_R   0.591716 0.786009 0.998322 -0.301590
C6    C     C_R   0.904762 0.285937 0.993959 -0.301062
C7    C     C_R   0.091720 0.286009 0.998331 -0.301573
C8    C     C_R   0.381495 0.747116 0.995178 -0.151841
C9    C     C_R   0.617972 0.747273 0.003634 -0.147312
C10   C     C_R   0.881496 0.247116 0.995180 -0.151827
C11   C     C_R   0.117973 0.247273 0.003635 -0.147317
C12   C     C_R   0.403747 0.706663 0.995252 0.389884
C13   C     C_R   0.980954 0.166272 0.008413 0.385888
C14   C     C_R   0.598211 0.706891 0.008939 0.389888
C15   C     C_R   0.903744 0.206664 0.995247 0.389885
C16   C     C_R   0.098208 0.206891 0.008934 0.389886
C17   C     C_R   0.454066 0.705798 0.002414 -0.126682
C18   C     C_R   0.547824 0.705764 0.001648 -0.125996
C19   C     C_R   0.954063 0.205798 0.002409 -0.126684
C20   C     C_R   0.047822 0.205765 0.001643 -0.125997
C21   C     C_R   0.476035 0.745491 0.998708 -0.040715
C22   C     C_R   0.522961 0.745492 0.999078 -0.040458
C23   C     C_R   0.976036 0.245491 0.998711 -0.040713
C24   C     C_R   0.023632 0.166130 0.001553 0.386484
C25   C     C_R   0.022962 0.245493 0.999080 -0.040461
C26   C     C_3   0.083267 0.653571 0.924425 0.038878
C27   C     C_3   0.107693 0.608579 0.931343 -0.311713
C28   C     C_3   0.064468 0.585088 0.845313 -0.911346
C29   C     C_3   0.821886 0.838377 0.910285 0.073335
C30   C     C_3   0.826605 0.864135 0.854688 -0.384415
C31   C     C_3   0.763291 0.879071 0.771537 -0.882562
C32   C     C_3   0.583231 0.153590 0.924314 0.038897
C33   C     C_3   0.607448 0.108503 0.931237 -0.311827
C34   C     C_3   0.564240 0.085074 0.845141 -0.911233
C35   C     C_R   0.519773 0.824766 0.992943 -0.195825
C36   C     C_3   0.322030 0.338461 0.910611 0.073345
C37   C     C_3   0.326769 0.364444 0.855231 -0.384185
C38   C     C_3   0.263463 0.379473 0.772191 -0.882728
C39   C     C_3   0.490478 0.880308 0.699129 0.075785
C40   C     C_3   0.455602 0.839265 0.685091 -0.346947
C41   C     C_3   0.447413 0.837421 0.746871 -0.901627
C42   C     C_3   0.518991 0.871025 0.322577 0.075828
C43   C     C_3   0.554353 0.828478 0.348266 -0.349306
C44   C     C_3   0.571795 0.821456 0.297881 -0.902189
C45   C     C_3   0.990523 0.380350 0.699220 0.075793
C46   C     C_R   0.473202 0.824747 0.991806 -0.192836
C47   C     C_3   0.955652 0.339317 0.685233 -0.346951
C48   C     C_3   0.947495 0.337499 0.747048 -0.901638
C49   C     C_3   0.018958 0.371064 0.322495 0.075838
C50   C     C_3   0.054319 0.328522 0.348136 -0.349309
C51   C     C_3   0.071726 0.321522 0.297702 -0.902183
C52   C     C_R   0.019782 0.324767 0.992961 -0.195819
C53   C     C_R   0.973211 0.324748 0.991823 -0.192832
C54   C     C_2   0.561360 0.875994 0.688351 0.481272
C55   C     C_2   0.438889 0.874578 0.315667 0.478524
C56   C     C_2   0.061362 0.376000 0.688367 0.481269
C57   C     C_R   0.309626 0.809063 0.116947 0.879531
C58   C     C_2   0.938888 0.374583 0.315653 0.478523
C59   C     C_2   0.588251 0.902962 0.673532 -0.388491
C60   C     C_2   0.410698 0.903625 0.325014 -0.379742
C61   C     C_2   0.088246 0.402957 0.673521 -0.388599
C62   C     C_2   0.910701 0.403623 0.325018 -0.379769
C63   C     C_2   0.597290 0.838529 0.746326 -0.250876
C64   C     C_2   0.402265 0.837574 0.256258 -0.261598
C65   C     C_2   0.097288 0.338534 0.746337 -0.250837
C66   C     C_2   0.902266 0.337577 0.256250 -0.261578
C67   C     C_2   0.656077 0.843707 0.820177 -0.402229
C68   C     C_R   0.190652 0.309056 0.883086 0.858839
C69   C     C_2   0.344897 0.843703 0.179937 -0.386920
C70   C     C_2   0.156081 0.343707 0.820177 -0.402170
C71   C     C_2   0.844893 0.343703 0.179936 -0.386924
C72   C     C_R   0.090182 0.788484 0.993884 -0.313363
C73   C     C_R   0.906747 0.711802 0.000221 -0.311643
C74   C     C_R   0.590219 0.288487 0.993951 -0.313337
C75   C     C_R   0.406691 0.211804 0.000106 -0.311604
C76   C     C_R   0.115143 0.749013 0.998376 -0.153851
C77   C     C_R   0.882778 0.751279 0.997725 -0.161011
C78   C     C_R   0.615143 0.249014 0.998374 -0.153791
C79   C     C_R   0.809625 0.309063 0.116947 0.879521
C80   C     C_R   0.382780 0.251282 0.997725 -0.161070
C81   C     C_R   0.093592 0.709376 0.002130 0.380103
C82   C     C_R   0.904091 0.791076 0.993612 0.401774
C83   C     C_R   0.593556 0.209376 0.002054 0.380061
C84   C     C_R   0.404154 0.291083 0.993730 0.401718
C85   C     C_R   0.664798 0.749421 0.000794 0.790401
C86   C     C_R   0.334999 0.749311 0.998752 0.790062
C87   C     C_R   0.164798 0.249421 0.000794 0.790413
C88   C     C_R   0.835000 0.249312 0.998752 0.790053
C89   C     C_R   0.047616 0.709745 0.003451 0.011342
C90   C     C_R   0.451112 0.785498 0.994555 0.158303
C91   C     C_R   0.951902 0.790711 0.996023 0.018367
C92   C     C_R   0.547568 0.209744 0.003353 0.011378
C93   C     C_R   0.451950 0.290715 0.996112 0.018469
C94   C     C_R   0.022771 0.749836 0.999100 0.028323
C95   C     C_R   0.975991 0.750577 0.998819 0.021173
C96   C     C_R   0.522765 0.249838 0.999082 0.028303
C97   C     C_R   0.475985 0.250579 0.998803 0.021179
C98   C     C_R   0.044702 0.789227 0.995216 0.115040
C99   C     C_R   0.953545 0.711144 0.001597 0.117371
C100  C     C_R   0.544740 0.289231 0.995285 0.115049
C101  C     C_R   0.544997 0.785539 0.996966 0.160294
C102  C     C_R   0.453490 0.211145 0.001482 0.117348
C103  C     C_R   0.025855 0.670899 0.008796 -0.189901
C104  C     C_R   0.976010 0.829618 0.995283 -0.183551
C105  C     C_R   0.525757 0.170895 0.008596 -0.189823
C106  C     C_R   0.476099 0.329622 0.995454 -0.183559
C107  C     C_R   0.978860 0.671608 0.007013 -0.199726
C108  C     C_R   0.021422 0.828844 0.993881 -0.202060
C109  C     C_R   0.478756 0.171605 0.006803 -0.199747
C110  C     C_R   0.521505 0.328848 0.994039 -0.202056
C111  C     C_2   0.938980 0.627230 0.319870 0.438848
C112  C     C_R   0.951117 0.285499 0.994565 0.158303
C113  C     C_2   0.061725 0.628182 0.677693 0.421449
C114  C     C_2   0.438980 0.127230 0.319871 0.438857
C115  C     C_2   0.561730 0.128193 0.677667 0.421384
C116  C     C_2   0.910045 0.595483 0.323290 -0.316866
C117  C     C_2   0.090539 0.595251 0.677076 -0.308712
C118  C     C_2   0.410045 0.095483 0.323289 -0.316858
C119  C     C_2   0.590543 0.095247 0.677083 -0.308742
C120  C     C_2   0.902300 0.663294 0.257730 -0.267145
C121  C     C_2   0.098777 0.663988 0.740460 -0.281502
C122  C     C_2   0.402300 0.163294 0.257730 -0.267135
C123  C     C_R   0.045001 0.285540 0.996976 0.160296
C124  C     C_2   0.598786 0.163996 0.740442 -0.281586
C125  C     C_2   0.845585 0.656463 0.180355 -0.348811
C126  C     C_2   0.154139 0.656556 0.819335 -0.359368
C127  C     C_2   0.345585 0.156463 0.180355 -0.348813
C128  C     C_2   0.654133 0.156557 0.819333 -0.359474
C129  C     C_R   0.057865 0.559789 0.615302 0.882247
C130  C     C_R   0.942299 0.559859 0.384803 0.882970
C131  C     C_R   0.557866 0.059789 0.615304 0.882304
C132  C     C_R   0.442299 0.059859 0.384803 0.882990
C133  C     C_R   0.809918 0.690943 0.116961 0.861575
C134  C     C_R   0.480960 0.666272 0.008425 0.385885
C135  C     C_R   0.190026 0.690945 0.882990 0.856925
C136  C     C_R   0.309918 0.190943 0.116961 0.861596
C137  C     C_R   0.690025 0.190945 0.882989 0.856957
C138  C     C_R   0.557329 0.939753 0.614524 0.866703
C139  C     C_R   0.442431 0.939878 0.385233 0.868444
C140  C     C_R   0.057328 0.439752 0.614522 0.866702
C141  C     C_R   0.942431 0.439877 0.385234 0.868418
C142  C     C_R   0.835427 0.750307 0.999602 0.822757
C143  C     C_R   0.164030 0.749633 0.999412 0.836594
C144  C     C_R   0.335426 0.250309 0.999598 0.822723
Cu1   Cu    Cu3+1 0.719490 0.719480 0.938970 0.965987
Cu2   Cu    Cu3+1 0.544470 0.999980 0.500010 1.009108
Cu3   Cu    Cu3+1 0.955530 0.499980 0.499990 1.011373
Cu4   Cu    Cu3+1 0.044470 0.499980 0.500010 1.009092
Cu5   Cu    Cu3+1 0.280510 0.719480 0.061030 0.991231
Cu6   Cu    Cu3+1 0.219490 0.219480 0.938970 0.966002
Cu7   Cu    Cu3+1 0.780510 0.219480 0.061030 0.991288
Cu8   Cu    Cu3+1 0.780480 0.780500 0.060980 0.976612
Cu9   Cu    Cu3+1 0.219520 0.780500 0.939020 0.951964
Cu10  Cu    Cu3+1 0.280480 0.280500 0.060980 0.976565
Cu11  Cu    Cu3+1 0.719520 0.280500 0.939020 0.951958
Cu12  Cu    Cu3+1 0.455530 0.999980 0.499990 1.011357
H1    H     H_    0.386900 0.816673 0.993226 0.157812
H2    H     H_    0.038578 0.859326 0.992155 0.151084
H3    H     H_    0.033937 0.383836 0.768456 0.125001
H4    H     H_    0.909555 0.338870 0.618336 0.231837
H5    H     H_    0.981151 0.309977 0.694949 0.216440
H6    H     H_    0.993147 0.336681 0.814348 0.254297
H7    H     H_    0.921614 0.307660 0.734817 0.266036
H8    H     H_    0.921285 0.366225 0.737977 0.254733
H9    H     H_    0.050007 0.398415 0.339875 0.163558
H10   H     H_    0.979361 0.372707 0.251430 0.125924
H11   H     H_    0.096965 0.329321 0.417699 0.230443
H12   H     H_    0.025714 0.300703 0.336176 0.216366
H13   H     H_    0.462314 0.141152 0.009954 0.144459
H14   H     H_    0.029595 0.319398 0.228037 0.257708
H15   H     H_    0.097818 0.290705 0.318355 0.263295
H16   H     H_    0.101143 0.348666 0.309425 0.255771
H17   H     H_    0.538693 0.359331 0.992378 0.151079
H18   H     H_    0.860828 0.597658 0.284477 0.115550
H19   H     H_    0.140151 0.596326 0.718260 0.114819
H20   H     H_    0.360828 0.097657 0.284477 0.115545
H21   H     H_    0.640160 0.096307 0.718298 0.114828
H22   H     H_    0.923477 0.695206 0.274356 0.173630
H23   H     H_    0.078772 0.696291 0.722844 0.175269
H24   H     H_    0.423476 0.195207 0.274356 0.173635
H25   H     H_    0.607564 0.816669 0.994573 0.153521
H26   H     H_    0.578797 0.196304 0.722814 0.175318
H27   H     H_    0.826549 0.623825 0.160026 0.155110
H28   H     H_    0.171769 0.623662 0.840263 0.158336
H29   H     H_    0.326549 0.123825 0.160026 0.155108
H30   H     H_    0.671746 0.123660 0.840269 0.158356
H31   H     H_    0.536185 0.855545 0.990804 0.136234
H32   H     H_    0.454421 0.855515 0.988810 0.136659
H33   H     H_    0.036196 0.355546 0.990826 0.136234
H34   H     H_    0.954433 0.355516 0.988833 0.136657
H35   H     H_    0.634803 0.896327 0.702871 0.124519
H36   H     H_    0.886907 0.316673 0.993241 0.157806
H37   H     H_    0.362473 0.899163 0.290551 0.127244
H38   H     H_    0.134788 0.396310 0.702833 0.124632
H39   H     H_    0.862480 0.399153 0.290573 0.127257
H40   H     H_    0.574115 0.807670 0.731218 0.175866
H41   H     H_    0.423972 0.805989 0.273130 0.177900
H42   H     H_    0.074108 0.307679 0.731237 0.175853
H43   H     H_    0.923979 0.305995 0.273117 0.177893
H44   H     H_    0.677346 0.875698 0.839110 0.147908
H45   H     H_    0.325352 0.876176 0.159747 0.153383
H46   H     H_    0.177357 0.375695 0.839103 0.147869
H47   H     H_    0.107571 0.316670 0.994587 0.153518
H48   H     H_    0.825343 0.376174 0.159749 0.153378
H49   H     H_    0.107314 0.818755 0.991282 0.169448
H50   H     H_    0.889764 0.681530 0.003119 0.166429
H51   H     H_    0.607381 0.318760 0.991408 0.169414
H52   H     H_    0.389668 0.181530 0.002922 0.166474
H53   H     H_    0.086472 0.674984 0.886271 0.130078
H54   H     H_    0.033899 0.650424 0.890367 0.140233
H55   H     H_    0.153954 0.611956 0.954552 0.229454
H56   H     H_    0.112498 0.588660 0.978415 0.225938
H57   H     H_    0.019703 0.578108 0.824860 0.256949
H58   H     H_    0.044703 0.639755 0.013755 0.176883
H59   H     H_    0.085519 0.553893 0.851203 0.254184
H60   H     H_    0.056014 0.605258 0.795776 0.276015
H61   H     H_    0.796192 0.858205 0.919449 0.177272
H62   H     H_    0.794003 0.808385 0.875751 0.110475
H63   H     H_    0.856292 0.893171 0.890410 0.234539
H64   H     H_    0.847670 0.843436 0.838962 0.216643
H65   H     H_    0.731856 0.850821 0.735469 0.258006
H66   H     H_    0.767895 0.895942 0.731044 0.263416
H67   H     H_    0.743196 0.902100 0.785789 0.250077
H68   H     H_    0.586661 0.174932 0.886324 0.130314
H69   H     H_    0.959713 0.860850 0.995327 0.184393
H70   H     H_    0.533809 0.150597 0.890083 0.140081
H71   H     H_    0.653802 0.111713 0.954690 0.229443
H72   H     H_    0.611983 0.088632 0.978125 0.225827
H73   H     H_    0.519301 0.078346 0.824330 0.256989
H74   H     H_    0.585095 0.053750 0.851117 0.254158
H75   H     H_    0.556174 0.105166 0.795829 0.276002
H76   H     H_    0.296320 0.358158 0.919899 0.177370
H77   H     H_    0.294157 0.308493 0.875844 0.110336
H78   H     H_    0.356465 0.393448 0.891190 0.234613
H79   H     H_    0.347837 0.343879 0.839356 0.216614
H80   H     H_    0.544566 0.139747 0.013480 0.176866
H81   H     H_    0.232036 0.351246 0.735861 0.257986
H82   H     H_    0.268089 0.396543 0.731872 0.263485
H83   H     H_    0.243343 0.402349 0.786613 0.249995
H84   H     H_    0.015283 0.653229 0.365408 0.321038
H85   H     H_    0.985435 0.655945 0.627894 0.317226
H86   H     H_    0.515283 0.153229 0.365410 0.321044
H87   H     H_    0.485441 0.155984 0.627805 0.317266
H88   H     H_    0.331393 0.673851 0.952499 0.324405
H89   H     H_    0.672115 0.675555 0.054121 0.322645
H90   H     H_    0.831388 0.173854 0.952490 0.324409
H91   H     H_    0.459840 0.360855 0.995571 0.184354
H92   H     H_    0.172110 0.175553 0.054113 0.322645
H93   H     H_    0.469246 0.630425 0.068365 0.355510
H94   H     H_    0.537822 0.628006 0.947176 0.355070
H95   H     H_    0.969237 0.130423 0.068348 0.355513
H96   H     H_    0.037812 0.128009 0.947157 0.355072
H97   H     H_    0.461785 0.908958 0.683210 0.162778
H98   H     H_    0.533877 0.883787 0.768377 0.125002
H99   H     H_    0.409515 0.838825 0.618183 0.231834
H100  H     H_    0.481110 0.809932 0.694805 0.216443
H101  H     H_    0.493055 0.836593 0.814181 0.254316
H102  H     H_    0.962457 0.641158 0.010244 0.144463
H103  H     H_    0.421526 0.807578 0.734599 0.266025
H104  H     H_    0.421197 0.866141 0.737803 0.254737
H105  H     H_    0.550048 0.898371 0.339960 0.163561
H106  H     H_    0.479410 0.872659 0.251508 0.125927
H107  H     H_    0.596984 0.829285 0.417836 0.230443
H108  H     H_    0.525736 0.800667 0.336298 0.216365
H109  H     H_    0.529680 0.819325 0.228209 0.257714
H110  H     H_    0.597885 0.790635 0.318566 0.263290
H111  H     H_    0.601225 0.848592 0.309614 0.255773
H112  H     H_    0.961840 0.409006 0.683306 0.162785
O1    O     O_R   0.679710 0.768740 0.859430 -0.578431
O2    O     O_R   0.493030 0.955460 0.410980 -0.552895
O3    O     O_R   0.006970 0.455460 0.589020 -0.550333
O4    O     O_R   0.993030 0.455460 0.410980 -0.552885
O5    O     O_R   0.582050 0.955480 0.588990 -0.594625
O6    O     O_R   0.417950 0.955480 0.411010 -0.593561
O7    O     O_R   0.082050 0.455480 0.588990 -0.594612
O8    O     O_R   0.917950 0.455480 0.411010 -0.593564
O9    O     O_R   0.731220 0.820270 0.962460 -0.591140
O10   O     O_R   0.268780 0.820270 0.037540 -0.592583
O11   O     O_R   0.231220 0.320270 0.962460 -0.591256
O12   O     O_R   0.320290 0.768740 0.140570 -0.579007
O13   O     O_R   0.768780 0.320270 0.037540 -0.592585
O14   O     O_R   0.659370 0.724200 0.948480 -0.573187
O15   O     O_R   0.340630 0.724200 0.051520 -0.573785
O16   O     O_R   0.159370 0.224200 0.948480 -0.573184
O17   O     O_R   0.840630 0.224200 0.051520 -0.573791
O18   O     O_R   0.710880 0.775730 0.051510 -0.582554
O19   O     O_R   0.289120 0.775730 0.948490 -0.583053
O20   O     O_R   0.210880 0.275730 0.051510 -0.582546
O21   O     O_R   0.789120 0.275730 0.948490 -0.583051
O22   O     O_R   0.768760 0.679710 0.037490 -0.588668
O23   O     O_R   0.179710 0.268740 0.859430 -0.578387
O24   O     O_R   0.231240 0.679710 0.962510 -0.590522
O25   O     O_R   0.268760 0.179710 0.037490 -0.588667
O26   O     O_R   0.731240 0.179710 0.962510 -0.590397
O27   O     O_R   0.820270 0.731240 0.140520 -0.579236
O28   O     O_R   0.179730 0.731240 0.859480 -0.579693
O29   O     O_R   0.320270 0.231240 0.140520 -0.579225
O30   O     O_R   0.679730 0.231240 0.859480 -0.579727
O31   O     O_R   0.789100 0.724240 0.948440 -0.597489
O32   O     O_R   0.210900 0.724240 0.051560 -0.541650
O33   O     O_R   0.289100 0.224240 0.948440 -0.597469
O34   O     O_R   0.820290 0.268740 0.140570 -0.579006
O35   O     O_R   0.710900 0.224240 0.051560 -0.541667
O36   O     O_R   0.840600 0.775770 0.051470 -0.552597
O37   O     O_R   0.159400 0.775770 0.948530 -0.602717
O38   O     O_R   0.340600 0.275770 0.051470 -0.552588
O39   O     O_R   0.659400 0.275770 0.948530 -0.602712
O40   O     O_R   0.006940 0.544490 0.589000 -0.541617
O41   O     O_R   0.993060 0.544490 0.411000 -0.538603
O42   O     O_R   0.506940 0.044490 0.589000 -0.541659
O43   O     O_R   0.493060 0.044490 0.411000 -0.538604
O44   O     O_3   0.119203 0.670520 0.007751 -0.598378
O45   O     O_R   0.082020 0.544510 0.588970 -0.592985
O46   O     O_3   0.881206 0.830390 0.992589 -0.605515
O47   O     O_3   0.619151 0.170518 0.007651 -0.598387
O48   O     O_3   0.381349 0.330398 0.992866 -0.605495
O49   O     O_3   0.002617 0.627623 0.377885 -0.701070
O50   O     O_3   0.998037 0.629754 0.616829 -0.705992
O51   O     O_3   0.502617 0.127624 0.377886 -0.701057
O52   O     O_3   0.498043 0.129782 0.616765 -0.705966
O53   O     O_3   0.374803 0.668116 0.983069 -0.705687
O54   O     O_3   0.629533 0.668843 0.026348 -0.707309
O55   O     O_3   0.874797 0.168117 0.983057 -0.705679
O56   O     O_R   0.917980 0.544510 0.411030 -0.592071
O57   O     O_3   0.129527 0.168843 0.026336 -0.707307
O58   O     O_3   0.466442 0.626736 0.020463 -0.625217
O59   O     O_3   0.540952 0.626234 0.995620 -0.625318
O60   O     O_3   0.966433 0.126735 0.020444 -0.625203
O61   O     O_3   0.040942 0.126235 0.995601 -0.625312
O62   O     O_3   0.499303 0.880553 0.643023 -0.584247
O63   O     O_3   0.502514 0.876291 0.369282 -0.587888
O64   O     O_3   0.999314 0.380573 0.643076 -0.584233
O65   O     O_3   0.002509 0.376306 0.369238 -0.587879
O66   O     O_R   0.582020 0.044510 0.588970 -0.592974
O67   O     O_R   0.417980 0.044510 0.411030 -0.592068
O68   O     O_R   0.506970 0.955460 0.589020 -0.550350

loop_
_geom_bond_atom_site_label_1
_geom_bond_atom_site_label_2
_ccdc_geom_bond_type
C28   H60   S    
C73   H50   S    
Cu4   O4    S    
C59   H35   S    
C15   O55   S    
C23   C112  A    
C2    C134  A    
C107  H102  S    
C43   H108  S    
Cu8   O18   S    
C48   H6    S    
C54   C63   S    
C98   C108  A    
Cu5   O12   S    
C89   C94   A    
Cu5   Cu9   S    
C7    H47   S    
H89   O54   S    
H84   O49   S    
C31   H65   S    
Cu10  O29   S    
C139  O6    A    
C37   H79   S    
Cu7   Cu11  S    
C53   H34   S    
Cu12  O6    S    
H96   O61   S    
C74   H51   S    
C21   C22   A    
Cu11  O21   S    
C113  O50   S    
C115  O52   S    
C32   H68   S    
C49   O65   S    
C143  O32   A    
C130  O56   A    
C21   C90   A    
C45   C47   S    
C5    C101  A    
Cu2   O2    S    
C127  C136  S    
C67   H44   S    
C120  C125  D    
C74   C100  A    
C17   C21   A    
C82   C91   A    
Cu9   O10   S    
C41   H104  S    
C19   C23   A    
C43   C44   S    
C1    O9    A    
C37   C38   S    
C36   H76   S    
Cu7   O34   S    
C39   H98   S    
C39   H97   S    
Cu11  O39   S    
C30   H64   S    
C51   H16   S    
C7    C123  A    
C33   H71   S    
Cu1   O31   S    
C44   H109  S    
C48   H8    S    
C79   O13   A    
Cu5   O32   S    
Cu2   O66   S    
C49   H10   S    
C32   C33   S    
C77   C82   A    
C127  H29   S    
C8    C86   S    
C52   H33   S    
C84   O48   S    
Cu8   O9    S    
C40   H100  S    
C116  C130  S    
C68   O23   A    
C73   C77   A    
C63   H40   S    
C102  C109  A    
C103  C107  A    
C114  O51   S    
C119  H21   S    
C144  O33   A    
C70   H46   S    
C34   H75   S    
C128  C137  S    
C71   C79   S    
H85   O50   S    
Cu11  O30   S    
C83   O47   S    
C36   C37   S    
C143  O37   A    
C1    O1    A    
C65   C70   D    
C92   C96   A    
Cu6   O33   S    
C141  O4    A    
C122  C127  D    
C87   O16   A    
C81   O44   S    
C9    C85   S    
C16   O57   S    
C11   C87   S    
C142  O31   A    
C36   O48   S    
Cu9   O19   S    
C119  C131  S    
Cu10  O20   S    
C106  H91   S    
C117  C129  S    
C12   O53   S    
C84   C93   A    
C57   O10   A    
C117  H19   S    
C118  H20   S    
C55   C64   S    
C42   H105  S    
Cu7   O17   S    
C109  H13   S    
C60   H37   S    
C111  O49   S    
C44   H111  S    
C54   C59   D    
C71   H48   S    
C85   O18   A    
Cu1   O22   S    
C39   C40   S    
Cu12  O67   S    
C59   C138  S    
Cu3   O40   S    
Cu11  O13   S    
C5    C9    A    
C29   C30   S    
C56   O64   S    
C93   C106  A    
C38   H82   S    
H95   O60   S    
C4    H1    S    
C103  H58   S    
C8    C12   A    
Cu5   O15   S    
C26   H54   S    
C64   C69   D    
C41   H101  S    
H90   O55   S    
C25   C123  A    
C79   O34   A    
C42   O63   S    
C113  C117  D    
C29   H62   S    
C32   H70   S    
C115  C119  D    
C50   H12   S    
C34   H73   S    
Cu7   O35   S    
Cu8   O36   S    
C93   C97   A    
C52   C53   A    
C28   H57   S    
C105  C109  A    
C142  O36   A    
H86   O51   S    
C18   C22   A    
C61   C140  S    
C129  O45   A    
C140  O3    A    
C88   O17   A    
C43   H107  S    
C3    C78   S    
Cu2   O43   S    
C96   C100  A    
C27   H56   S    
C1    C67   S    
C132  O43   A    
H93   O58   S    
Cu1   Cu8   S    
C118  C132  S    
C91   C95   A    
C65   H42   S    
C57   O12   A    
C113  C121  S    
C49   C50   S    
C55   C60   D    
Cu4   O41   S    
C58   C62   D    
C100  C110  A    
C86   O19   A    
C45   H3    S    
C80   C84   A    
C14   O54   S    
C104  H69   S    
C121  H23   S    
C136  O29   A    
C15   C19   A    
C26   C27   S    
C22   C101  A    
C128  H30   S    
H87   O52   S    
C140  O7    A    
C137  O26   A    
C30   C31   S    
C125  H27   S    
C20   C25   A    
C94   C98   A    
C95   C99   A    
C2    O59   S    
C41   H103  S    
C120  H22   S    
C138  O68   A    
C131  O66   A    
C78   C83   A    
Cu3   Cu4   S    
C26   O44   S    
C12   C17   A    
C111  C116  D    
C135  O24   A    
C97   C102  A    
C72   C76   A    
C124  C128  D    
C81   C89   A    
C33   H72   S    
C28   H59   S    
Cu10  O38   S    
Cu5   O24   S    
C64   H41   S    
C62   H39   S    
C5    H25   S    
C144  O38   A    
C4    C90   A    
Cu9   O28   S    
C139  O2    A    
C13   C19   A    
C138  O5    A    
C88   O21   A    
Cu8   O27   S    
C87   O20   A    
C48   H7    S    
C44   H110  S    
C9    C14   A    
C49   H9    S    
C31   H66   S    
C11   C16   A    
C66   C71   D    
C10   C88   S    
C50   C51   S    
Cu6   O16   S    
C122  H24   S    
C126  C135  S    
C85   O14   A    
C57   C69   S    
C105  H80   S    
C42   C43   S    
C104  C108  A    
C132  O67   A    
C39   O62   S    
Cu10  O11   S    
C115  C124  S    
C58   O65   S    
C54   O62   S    
Cu6   O25   S    
C6    C112  A    
C51   H14   S    
C35   C101  A    
C6    C10   A    
C72   H49   S    
C46   C90   A    
C99   C107  A    
C116  H18   S    
C133  O22   A    
C129  O40   A    
C94   C95   A    
C136  O25   A    
C47   H5    S    
C76   C143  S    
C92   C105  A    
C121  C126  D    
C23   C25   A    
C35   H31   S    
C124  H26   S    
C74   C78   A    
C6    H36   S    
C17   C134  A    
C134  O58   S    
C56   C61   D    
C35   C46   A    
C30   H63   S    
C69   H45   S    
C2    C18   A    
Cu7   O26   S    
C14   C18   A    
C126  H28   S    
C91   C104  A    
C4    C8    A    
Cu2   O5    S    
H92   O57   S    
C37   H78   S    
C68   O11   A    
C72   C98   A    
C7    C11   A    
C83   C92   A    
H88   O53   S    
C10   C15   A    
Cu12  O68   S    
C52   C123  A    
Cu9   O37   S    
C108  H2    S    
C56   C65   S    
Cu1   O1    S    
C75   H52   S    
C77   C142  S    
Cu4   O45   S    
C40   H99   S    
C58   C66   S    
C45   H112  S    
C20   C24   A    
C75   C102  A    
C86   O15   A    
C13   O60   S    
H94   O59   S    
C75   C80   A    
C66   H43   S    
C16   C20   A    
C29   H61   S    
C38   H83   S    
Cu6   O23   S    
C137  O30   A    
C34   H74   S    
Cu1   O14   S    
C3    O35   A    
C47   H4    S    
C131  O42   A    
C63   C67   D    
C29   O46   S    
C32   O47   S    
C80   C144  S    
C36   H77   S    
C13   C24   A    
C111  C120  S    
C135  O28   A    
C47   C48   S    
C96   C97   A    
C27   H55   S    
C33   C34   S    
Cu4   O7    S    
C114  C118  D    
C45   O64   S    
C31   H67   S    
C53   C112  A    
C40   C41   S    
C24   O61   S    
C62   C141  S    
C50   H11   S    
C106  C110  A    
C110  H17   S    
C125  C133  S    
C42   H106  S    
C73   C99   A    
Cu12  O42   S    
Cu3   O8    S    
C76   C81   A    
C55   O63   S    
C51   H15   S    
Cu3   O56   S    
C38   H81   S    
Cu3   O3    S    
C82   O46   S    
C26   H53   S    
C133  O27   A    
C60   C139  S    
C114  C122  S    
Cu2   Cu12  S    
C68   C70   S    
Cu6   Cu10  S    
C27   C28   S    
C3    O39   A    
C141  O8    A    
C46   H32   S    
C61   H38   S    
C89   C103  A    
C130  O41   A    
