data_mof_unit_52253.cif
_audit_creation_date              2012-12-11T14:23:15-0500
_audit_creation_method            fapswitch 2.2
_symmetry_space_group_name_H-M    P1
_symmetry_Int_Tables_number       1
_space_group_crystal_system       triclinic
_cell_length_a                    11.091889
_cell_length_b                    11.058989
_cell_length_c                    18.630125
_cell_angle_alpha                 90.264656
_cell_angle_beta                  89.762888
_cell_angle_gamma                 59.79183
_cell_volume                      1974.857374

loop_
_atom_site_label
_atom_site_type_symbol
_atom_type_description
_atom_site_fract_x
_atom_site_fract_y
_atom_site_fract_z
_atom_type_partial_charge
C1    C     C_R   0.241040 0.644100 0.611053 0.538198
C2    C     C_R   0.544530 0.238771 0.724814 -0.150130
C3    C     C_R   0.560862 0.231133 0.797633 -0.173583
C4    C     C_R   0.654691 0.624203 0.599493 0.547284
C5    C     C_R   0.944972 0.112769 0.808868 0.290966
C6    C     C_R   0.055781 0.071013 0.760546 -0.052644
C7    C     C_R   0.039787 0.055239 0.688027 -0.126245
C8    C     C_R   0.911260 0.086487 0.661747 -0.116155
C9    C     C_R   0.659219 0.190106 0.678718 -0.002919
C10   C     C_R   0.198448 0.651717 0.838970 0.004369
C11   C     C_R   0.195812 0.542721 0.799710 0.007753
C12   C     C_3   0.643763 0.577064 0.800182 -0.254625
C13   C     C_R   0.187267 0.551019 0.723911 -0.021600
C14   C     C_R   0.242883 0.737249 0.729961 -0.159231
C15   C     C_R   0.234921 0.739295 0.803812 -0.158237
C16   C     C_R   0.626582 0.231046 0.603597 0.528991
C17   C     C_R   0.202044 0.425887 0.833874 -0.159223
C18   C     C_R   0.194205 0.322926 0.794297 -0.097968
C19   C     C_R   0.171002 0.338230 0.720695 0.222854
C20   C     C_R   0.161010 0.455454 0.686421 -0.114905
C21   C     C_R   0.210127 0.651432 0.688488 0.003484
C22   C     C_R   0.695664 0.697050 0.180727 -0.000802
C23   C     C_3   0.699620 0.677796 0.811138 0.044082
C24   C     C_R   0.799182 0.586878 0.220785 0.032654
C25   C     C_R   0.759957 0.526256 0.274159 0.052107
C26   C     C_R   0.530150 0.732984 0.274931 -0.162234
C27   C     C_R   0.560422 0.771395 0.208887 -0.127399
C28   C     C_R   0.278047 0.625391 0.390972 0.563833
C29   C     C_R   0.941287 0.539104 0.211558 -0.090945
C30   C     C_R   0.040712 0.421889 0.247477 -0.117810
C31   C     C_R   0.000654 0.351612 0.292999 -0.122402
C32   C     C_R   0.861311 0.394307 0.299651 -0.046756
C33   C     C_R   0.630664 0.611058 0.308988 -0.021021
C34   C     C_3   0.670497 0.651250 0.674705 0.052609
C35   C     C_R   0.658359 0.136285 0.185050 -0.010735
C36   C     C_R   0.566125 0.111486 0.228064 -0.018220
C37   C     C_R   0.593906 0.082975 0.301956 -0.017818
C38   C     C_R   0.778978 0.132632 0.294306 -0.100255
C39   C     C_R   0.763164 0.151279 0.220332 0.216296
C40   C     C_R   0.616404 0.587767 0.385546 0.536683
C41   C     C_R   0.437917 0.131471 0.203194 -0.139088
C42   C     C_R   0.348836 0.114168 0.249263 -0.092560
C43   C     C_R   0.386544 0.065944 0.319141 0.309218
C44   C     C_R   0.515451 0.041798 0.343770 -0.028554
C45   C     C_3   0.822678 0.610290 0.689910 -0.249807
C46   C     C_R   0.679789 0.123758 0.335535 -0.066760
C47   C     C_R   0.218820 0.644568 0.162029 -0.006471
C48   C     C_R   0.244290 0.741136 0.198259 0.050031
C49   C     C_R   0.214748 0.756364 0.272372 -0.077962
C50   C     C_R   0.279788 0.513605 0.271906 0.172852
C51   C     C_R   0.256266 0.520974 0.197220 -0.161806
C52   C     C_R   0.625139 0.215990 0.399868 0.514440
C53   C     C_R   0.252967 0.846239 0.159979 0.305950
C54   C     C_R   0.173183 0.982650 0.187104 -0.072257
C55   C     C_R   0.117357 0.003957 0.255999 -0.086590
C56   C     C_3   0.631986 0.556753 0.719784 -0.210625
C57   C     C_R   0.143342 0.892897 0.300148 -0.088385
C58   C     C_R   0.246940 0.635089 0.312268 0.012566
C59   C     C_R   0.703507 0.103733 0.897005 0.544787
C60   C     C_R   0.724360 0.688942 0.887862 0.552653
C61   C     C_R   0.122603 0.702292 0.907409 0.537721
C62   C     C_R   0.676974 0.099980 0.107295 0.525586
C63   C     C_R   0.728316 0.715284 0.106556 0.563050
C64   C     C_3   0.592619 0.822437 0.778234 -0.220862
C65   C     C_R   0.116281 0.698386 0.101967 0.552308
C66   C     C_3   0.574642 0.806297 0.697457 -0.238546
C67   C     C_R   0.692718 0.171233 0.827804 -0.012969
C68   C     C_3   0.840334 0.623204 0.770370 -0.219376
C69   C     C_3   0.922497 0.262918 0.899304 -0.105910
C70   C     C_3   0.288261 0.084886 0.432218 -0.113035
C71   C     C_3   0.296634 0.925403 0.050525 -0.077542
C72   C     C_R   0.810944 0.141211 0.783303 0.013594
C73   C     C_R   0.793845 0.139147 0.707435 -0.027807
Cr1   Cr    Cr6+3 0.392940 0.397950 0.502230 1.008667
Cr2   Cr    Cr6+3 0.398400 0.708500 0.501260 0.995275
Cr3   Cr    Cr6+3 0.708640 0.393530 0.496460 0.982357
Cr4   Cr    Cr6+3 0.937880 0.938320 0.007620 1.065323
Cr5   Cr    Cr6+3 0.625560 0.937220 0.994510 0.977735
Cr6   Cr    Cr6+3 0.938080 0.625010 0.001190 0.978314
H1    H     H_    0.629424 0.898563 0.785790 0.148956
H2    H     H_    0.276683 0.803396 0.705385 0.128479
H3    H     H_    0.489525 0.866153 0.805734 0.122571
H4    H     H_    0.222878 0.407868 0.890659 0.132473
H5    H     H_    0.249657 0.815452 0.833314 0.135720
H6    H     H_    0.204654 0.231742 0.821288 0.125784
H7    H     H_    0.131557 0.470155 0.630675 0.124416
H8    H     H_    0.429938 0.798599 0.299829 0.186071
H9    H     H_    0.972941 0.601211 0.183533 0.149444
H10   H     H_    0.480795 0.860745 0.180989 0.157989
H11   H     H_    0.148671 0.383356 0.240988 0.170574
H12   H     H_    0.703079 0.444537 0.705806 0.152574
H13   H     H_    0.077069 0.267599 0.325252 0.151006
H14   H     H_    0.463481 0.841089 0.686759 0.137700
H15   H     H_    0.834157 0.335036 0.334087 0.148239
H16   H     H_    0.859969 0.139034 0.321712 0.113256
H17   H     H_    0.396595 0.175784 0.151420 0.135650
H18   H     H_    0.246492 0.146484 0.231092 0.098666
H19   H     H_    0.548586 0.005409 0.397900 0.109885
H20   H     H_    0.266188 0.432906 0.166828 0.113515
H21   H     H_    0.601647 0.874966 0.666103 0.122457
H22   H     H_    0.148677 0.073365 0.155173 0.099710
H23   H     H_    0.917785 0.518629 0.790760 0.154971
H24   H     H_    0.053263 0.107293 0.275334 0.151273
H25   H     H_    0.094791 0.917758 0.352583 0.162147
H26   H     H_    0.882206 0.694767 0.779531 0.131778
H27   H     H_    0.851379 0.678647 0.659450 0.109858
H28   H     H_    0.714209 0.474466 0.824314 0.110287
H29   H     H_    0.539977 0.619568 0.826656 0.120273
H30   H     H_    0.524421 0.580365 0.707499 0.129863
H31   H     H_    0.946514 0.320800 0.858344 0.113674
H32   H     H_    0.808906 0.314162 0.910622 0.125791
H33   H     H_    0.973400 0.266209 0.949817 0.130564
H34   H     H_    0.894582 0.500349 0.672813 0.163653
H35   H     H_    0.146948 0.260965 0.631594 0.311625
H36   H     H_    0.794476 0.249701 0.143515 0.334532
H37   H     H_    0.283612 0.187621 0.436884 0.142395
H38   H     H_    0.376434 0.003151 0.463497 0.132656
H39   H     H_    0.190773 0.098032 0.456406 0.116812
H40   H     H_    0.439003 0.353955 0.297574 0.327052
H41   H     H_    0.338519 0.986430 0.077369 0.093865
H42   H     H_    0.184483 0.992697 0.037076 0.129344
H43   H     H_    0.354403 0.885144 0.999097 0.151694
H44   H     H_    0.439925 0.284646 0.704516 0.173521
H45   H     H_    0.470191 0.261452 0.830900 0.148118
H46   H     H_    0.156940 0.048099 0.779932 0.133720
H47   H     H_    0.127639 0.019416 0.651575 0.152510
H48   H     H_    0.905223 0.068574 0.605109 0.136942
O1    O     O_R   0.507340 0.255690 0.581430 -0.529316
O2    O     O_R   0.837290 0.593240 0.915240 -0.536776
O3    O     O_R   0.065320 0.635310 0.931580 -0.520266
O4    O     O_R   0.280360 0.527380 0.578910 -0.511297
O5    O     O_R   0.068470 0.828620 0.091850 -0.473863
O6    O     O_R   0.799150 0.057200 0.079350 -0.474890
O7    O     O_R   0.585220 0.080180 0.076770 -0.549997
O8    O     O_R   0.627170 0.809480 0.067050 -0.494382
O9    O     O_R   0.816200 0.596410 0.076500 -0.508096
O10   O     O_R   0.045770 0.638240 0.081070 -0.551901
O11   O     O_3   0.833840 0.833520 0.001110 -0.275464
O12   O     O_R   0.524510 0.695820 0.424050 -0.496648
O13   O     O_R   0.260600 0.739610 0.584580 -0.531269
O14   O     O_R   0.532370 0.695050 0.573830 -0.511489
O15   O     O_R   0.744850 0.503430 0.576380 -0.519855
O16   O     O_R   0.699080 0.276500 0.571950 -0.506784
O17   O     O_R   0.498860 0.256520 0.419860 -0.496802
O18   O     O_R   0.272490 0.528150 0.429140 -0.442887
O19   O     O_R   0.252110 0.740440 0.423010 -0.534300
O20   O     O_3   0.975238 0.122097 0.879845 -0.555556
O21   O     O_3   0.161384 0.236048 0.683153 -0.742137
O22   O     O_3   0.846852 0.191194 0.184967 -0.711340
O23   O     O_R   0.736370 0.504260 0.414810 -0.521170
O24   O     O_3   0.295881 0.041664 0.360113 -0.607497
O25   O     O_3   0.338780 0.387287 0.304282 -0.680723
O26   O     O_3   0.318049 0.810251 0.092333 -0.563132
O27   O     O_R   0.691220 0.277270 0.422180 -0.539542
O28   O     O_3   0.499990 0.499990 0.499980 -0.283411
O29   O     O_R   0.089570 0.825450 0.930590 -0.481381
O30   O     O_R   0.818700 0.054260 0.929860 -0.437690
O31   O     O_R   0.606310 0.077010 0.915520 -0.539336
O32   O     O_R   0.646730 0.806540 0.917560 -0.508673

loop_
_geom_bond_atom_site_label_1
_geom_bond_atom_site_label_2
_ccdc_geom_bond_type
C32   H15   S    
C34   C56   S    
C5    O20   S    
C46   C52   S    
C59   O30   A    
C41   C42   A    
Cr1   O18   S    
C19   C20   A    
C60   O32   A    
C30   H11   S    
C34   C66   S    
C7    C8    A    
C53   C54   A    
C3    H45   S    
C1    C21   S    
Cr6   O9    S    
C12   C23   S    
C28   O18   A    
C52   O17   A    
C9    C73   A    
C71   H41   S    
C14   C21   A    
C36   C37   A    
C9    C16   S    
C68   H23   S    
C18   C19   A    
C5    C72   A    
C10   C15   A    
Cr4   O29   S    
C4    O15   A    
C5    C6    A    
C59   O31   A    
C41   H17   S    
C70   H38   S    
C52   O27   A    
Cr6   O2    S    
C40   O12   A    
C55   H24   S    
C11   C13   A    
C49   C57   A    
C67   C72   A    
C71   H43   S    
C66   H21   S    
C24   C29   A    
C29   H9    S    
Cr2   O14   S    
C59   C67   S    
C22   C63   S    
C54   C55   A    
C44   H19   S    
Cr5   O31   S    
C56   H12   S    
Cr1   O1    S    
C35   C36   A    
C26   H8    S    
C20   H7    S    
C38   H16   S    
C71   O26   S    
Cr5   O8    S    
C65   O10   A    
C25   C32   A    
Cr1   O4    S    
C64   H1    S    
C36   C41   A    
C23   C60   S    
Cr4   O6    S    
Cr5   O11   S    
C50   C51   A    
C6    C7    A    
Cr2   O19   S    
C51   H20   S    
C48   C53   A    
C4    C34   S    
C33   C40   S    
C13   C21   A    
C50   C58   A    
C47   C48   A    
C16   O16   A    
C24   C25   A    
C42   H18   S    
C4    O14   A    
C12   H29   S    
C47   C51   A    
C70   H37   S    
C2    H44   S    
Cr6   O3    S    
C49   C58   A    
C17   H4    S    
Cr4   O5    S    
C63   O8    A    
C23   C68   S    
C35   C39   A    
C43   C44   A    
C29   C30   A    
C45   H34   S    
Cr5   O7    S    
C69   H31   S    
C8    H48   S    
C31   C32   A    
Cr3   O23   S    
C30   C31   A    
H36   O22   S    
C45   C68   S    
C17   C18   A    
C26   C27   A    
C40   O23   A    
C34   C45   S    
Cr4   O11   S    
C16   O1    A    
C64   H3    S    
C12   C56   S    
C54   H22   S    
C61   O3    A    
C66   H14   S    
C48   C49   A    
Cr6   O10   S    
C22   C27   A    
C55   C57   A    
C69   O20   S    
C22   C24   A    
C10   C61   S    
C42   C43   A    
C61   O29   A    
C56   H30   S    
C65   O5    A    
C43   O24   S    
C45   H27   S    
C62   O6    A    
H40   O25   S    
C57   H25   S    
Cr1   O17   S    
C53   O26   S    
C23   C64   S    
C13   C20   A    
C18   H6    S    
C71   H42   S    
C3    C67   A    
C70   O24   S    
C6    H46   S    
C72   C73   A    
C1    O4    A    
C11   C17   A    
C60   O2    A    
C12   H28   S    
Cr2   O28   S    
C15   H5    S    
C28   C58   S    
C39   O22   S    
Cr3   O28   S    
C28   O19   A    
C19   O21   S    
Cr2   O13   S    
C63   O9    A    
C62   O7    A    
C37   C44   A    
C2    C3    A    
H35   O21   S    
Cr2   O12   S    
C69   H32   S    
C38   C39   A    
C70   H39   S    
Cr3   O27   S    
C8    C73   A    
C69   H33   S    
Cr1   O28   S    
C27   H10   S    
C35   C62   S    
C7    H47   S    
C38   C46   A    
C10   C11   A    
Cr3   O16   S    
C50   O25   S    
Cr5   O32   S    
Cr6   O11   S    
C31   H13   S    
C68   H26   S    
C25   C33   A    
C14   C15   A    
Cr4   O30   S    
C1    O13   A    
C14   H2    S    
C37   C46   A    
C2    C9    A    
C47   C65   S    
C26   C33   A    
C64   C66   S    
Cr3   O15   S    
