data_mof_unit_66704.cif
_audit_creation_date              2012-12-11T14:41:14-0500
_audit_creation_method            fapswitch 2.2
_symmetry_space_group_name_H-M    P1
_symmetry_Int_Tables_number       1
_space_group_crystal_system       monoclinic
_cell_length_a                    7.081102
_cell_length_b                    17.475693
_cell_length_c                    19.517468
_cell_angle_alpha                 90.0
_cell_angle_beta                  90.0
_cell_angle_gamma                 93.317675
_cell_volume                      2411.18342595

loop_
_atom_site_label
_atom_site_type_symbol
_atom_type_description
_atom_site_fract_x
_atom_site_fract_y
_atom_site_fract_z
_atom_type_partial_charge
O1    O     O_R   0.377350 0.828520 0.186660 -0.530521
O2    O     O_R   0.622650 0.171480 0.813340 -0.533946
O3    O     O_R   0.122650 0.171480 0.686660 -0.530519
O4    O     O_R   0.877350 0.828520 0.313340 -0.533946
O5    O     O_R   0.877350 0.671480 0.313340 -0.537256
O6    O     O_R   0.122650 0.328520 0.686660 -0.531996
O7    O     O_R   0.622650 0.328520 0.813340 -0.537255
O8    O     O_R   0.377350 0.671480 0.186660 -0.531996
O9    O     O_R   0.707090 0.671930 0.178410 -0.529170
O10   O     O_R   0.292910 0.328070 0.821590 -0.534200
O11   O     O_R   0.792910 0.328070 0.678410 -0.529170
O12   O     O_R   0.207090 0.671930 0.321590 -0.534200
O13   O     O_R   0.207090 0.828070 0.321590 -0.534341
O14   O     O_R   0.792910 0.171930 0.678410 -0.531478
O15   O     O_R   0.292910 0.171930 0.821590 -0.534340
O16   O     O_R   0.707090 0.828070 0.178410 -0.531477
C1    C     C_R   0.534212 0.645400 0.161552 0.726522
C2    C     C_R   0.464031 0.350037 0.841865 0.737408
C3    C     C_R   0.965788 0.354600 0.661552 0.726523
C4    C     C_R   0.035969 0.649962 0.341865 0.737407
C5    C     C_R   0.043494 0.856069 0.336966 0.737307
C6    C     C_R   0.958735 0.146408 0.660339 0.726557
C7    C     C_R   0.456505 0.143930 0.836965 0.737305
C8    C     C_R   0.541265 0.853591 0.160339 0.726553
O17   O     O_3   0.543850 0.750000 0.294270 -0.362140
O18   O     O_3   0.456150 0.250000 0.705730 -0.352039
O19   O     O_3   0.956150 0.250000 0.794270 -0.362140
O20   O     O_3   0.043850 0.750000 0.205730 -0.352038
V1    V     V_3+5 0.818700 0.750000 0.241790 1.523644
V2    V     V_3+5 0.181300 0.250000 0.758210 1.522117
V3    V     V_3+5 0.681300 0.250000 0.741790 1.523643
V4    V     V_3+5 0.318700 0.750000 0.258210 1.522117
C9    C     C_R   0.984167 0.421672 0.611879 -0.166009
C10   C     C_R   0.024735 0.585292 0.393064 -0.154928
C11   C     C_R   0.515833 0.578328 0.111879 -0.166009
C12   C     C_R   0.475264 0.414708 0.893064 -0.154928
C13   C     C_R   0.452977 0.079412 0.889066 -0.156061
C14   C     C_R   0.543210 0.914918 0.104871 -0.177388
C15   C     C_R   0.047022 0.920587 0.389067 -0.156060
C16   C     C_R   0.956790 0.085081 0.604872 -0.177390
C17   C     C_R   0.026559 0.447727 0.421075 0.194962
C18   C     C_R   0.935421 0.555874 0.580401 0.201229
C19   C     C_R   0.473440 0.552273 0.921075 0.194962
C20   C     C_R   0.564578 0.444126 0.080401 0.201229
C21   C     C_R   0.722010 0.019404 0.045133 0.213424
C22   C     C_R   0.328651 0.953068 0.931608 0.223851
C23   C     C_R   0.777988 0.980595 0.545134 0.213427
C24   C     C_R   0.171346 0.046932 0.431609 0.223851
C25   C     C_R   0.033096 0.508093 0.370719 -0.025564
C26   C     C_R   0.934700 0.496718 0.631389 -0.025821
C27   C     C_R   0.466904 0.491907 0.870719 -0.025564
C28   C     C_R   0.565299 0.503282 0.131389 -0.025821
C29   C     C_R   0.686440 0.975157 0.104655 0.042381
C30   C     C_R   0.323790 0.013784 0.883413 0.022247
C31   C     C_R   0.813558 0.024843 0.604656 0.042376
C32   C     C_R   0.176209 0.986216 0.383413 0.022249
C33   C     C_R   0.029201 0.601189 0.463861 0.166260
C34   C     C_R   0.048504 0.410553 0.544246 0.164587
C35   C     C_R   0.470798 0.398811 0.963861 0.166260
C36   C     C_R   0.451496 0.589447 0.044245 0.164587
C37   C     C_R   0.409501 0.912782 0.050292 0.171997
C38   C     C_R   0.583420 0.082372 0.944059 0.153177
C39   C     C_R   0.090497 0.087218 0.550292 0.171993
C40   C     C_R   0.916578 0.917627 0.444060 0.153175
C41   C     C_R   0.995794 0.541611 0.512461 -0.024764
C42   C     C_R   0.023130 0.465952 0.492280 -0.019588
C43   C     C_R   0.504205 0.458389 0.012461 -0.024764
C44   C     C_R   0.476870 0.534048 0.992280 -0.019588
C45   C     C_R   0.438722 0.962008 0.991904 -0.001695
C46   C     C_R   0.584227 0.021460 0.993133 -0.041132
C47   C     C_R   0.061276 0.037991 0.491905 -0.001694
C48   C     C_R   0.915771 0.978539 0.493134 -0.041131
I1    I     I_    0.282122 0.340530 0.532662 -0.252064
I2    I     I_    0.197307 0.701018 0.495454 -0.256817
I3    I     I_    0.217879 0.659471 0.032663 -0.252065
I4    I     I_    0.302691 0.298982 0.995454 -0.256815
I5    I     I_    0.732776 0.191332 0.961703 -0.228198
I6    I     I_    0.130494 0.861131 0.070328 -0.264489
I7    I     I_    0.767219 0.808668 0.461702 -0.228198
I8    I     I_    0.369504 0.138870 0.570327 -0.264488
C49   C     C_3   0.896150 0.510738 0.707547 -0.340760
C50   C     C_3   0.946018 0.590943 0.738094 -0.314339
C51   C     C_3   0.955837 0.588914 0.816495 -0.696502
H1    H     H_    0.823915 0.561371 0.837656 0.245004
H2    H     H_    0.072922 0.555838 0.835388 0.232663
H3    H     H_    0.975890 0.648191 0.836800 0.272713
H4    H     H_    0.076720 0.617307 0.716106 0.228313
H5    H     H_    0.838476 0.631279 0.725992 0.234088
H6    H     H_    0.748321 0.494178 0.717175 0.179717
H7    H     H_    0.976340 0.470310 0.738216 0.157988
C52   C     C_3   0.086828 0.499513 0.295016 -0.345632
C53   C     C_3   0.068550 0.421989 0.259260 -0.322137
C54   C     C_3   0.100045 0.431271 0.182021 -0.710939
H8    H     H_    0.980554 0.458231 0.157264 0.248005
H9    H     H_    0.225061 0.469752 0.171498 0.235910
H10   H     H_    0.118965 0.374614 0.158078 0.265636
H11   H     H_    0.170095 0.382842 0.280690 0.239001
H12   H     H_    0.927236 0.395632 0.267219 0.239526
H13   H     H_    0.004881 0.538752 0.264325 0.160873
H14   H     H_    0.234121 0.523166 0.289166 0.174516
C55   C     C_3   0.603848 0.489262 0.207547 -0.340759
C56   C     C_3   0.553981 0.409058 0.238094 -0.314339
C57   C     C_3   0.544162 0.411086 0.316495 -0.696503
H15   H     H_    0.676084 0.438629 0.337655 0.245005
H16   H     H_    0.427078 0.444162 0.335388 0.232663
H17   H     H_    0.524109 0.351809 0.336800 0.272712
H18   H     H_    0.423280 0.382692 0.216106 0.228313
H19   H     H_    0.661524 0.368721 0.225992 0.234088
H20   H     H_    0.751678 0.505822 0.217175 0.179716
H21   H     H_    0.523658 0.529690 0.238216 0.157988
C58   C     C_3   0.413170 0.500487 0.795016 -0.345632
C59   C     C_3   0.431450 0.578011 0.759260 -0.322137
C60   C     C_3   0.399954 0.568728 0.682021 -0.710939
H22   H     H_    0.519444 0.541769 0.657264 0.248005
H23   H     H_    0.274937 0.530248 0.671498 0.235909
H24   H     H_    0.381034 0.625386 0.658078 0.265636
H25   H     H_    0.329905 0.617158 0.780690 0.239001
H26   H     H_    0.572763 0.604368 0.767218 0.239526
H27   H     H_    0.495117 0.461248 0.764324 0.160873
H28   H     H_    0.265878 0.476834 0.789165 0.174515
C61   C     C_3   0.194245 0.002814 0.821992 -0.331275
C62   C     C_3   0.304724 0.968043 0.763985 -0.353019
C63   C     C_3   0.207328 0.973801 0.695654 -0.759163
H29   H     H_    0.055834 0.960189 0.701203 0.255235
H30   H     H_    0.231687 0.032710 0.676729 0.244447
H31   H     H_    0.263296 0.933266 0.658322 0.258304
H32   H     H_    0.442902 0.999997 0.761657 0.198210
H33   H     H_    0.328440 0.907062 0.773846 0.248971
H34   H     H_    0.067652 0.965350 0.834807 0.200860
H35   H     H_    0.132824 0.056393 0.805597 0.194968
C64   C     C_3   0.791174 0.998357 0.169823 -0.370542
C65   C     C_3   0.798523 0.086610 0.183448 -0.298288
C66   C     C_3   0.767799 0.109028 0.258677 -0.719498
H36   H     H_    0.619506 0.123866 0.267104 0.245580
H37   H     H_    0.800737 0.062928 0.295065 0.219479
H38   H     H_    0.858906 0.160977 0.271396 0.255353
H39   H     H_    0.938195 0.112226 0.167341 0.235132
H40   H     H_    0.692331 0.115150 0.151892 0.234642
H41   H     H_    0.727523 0.968093 0.214940 0.160730
H42   H     H_    0.934807 0.978518 0.163388 0.208920
C67   C     C_3   0.305753 0.997185 0.321993 -0.331271
C68   C     C_3   0.195271 0.031955 0.263985 -0.353037
C69   C     C_3   0.292664 0.026194 0.195655 -0.759184
H43   H     H_    0.444151 0.039821 0.201203 0.255244
H44   H     H_    0.268329 0.967283 0.176738 0.244453
H45   H     H_    0.236674 0.066719 0.158318 0.258306
H46   H     H_    0.057094 0.000001 0.261658 0.198214
H47   H     H_    0.171556 0.092935 0.273845 0.248977
H48   H     H_    0.432342 0.034652 0.334807 0.200861
H49   H     H_    0.367178 0.943607 0.305599 0.194969
C70   C     C_3   0.708822 0.001644 0.669824 -0.370544
C71   C     C_3   0.701471 0.913392 0.683450 -0.298285
C72   C     C_3   0.732196 0.890974 0.758679 -0.719501
H50   H     H_    0.880491 0.876139 0.767107 0.245583
H51   H     H_    0.699252 0.937073 0.795067 0.219478
H52   H     H_    0.641094 0.839024 0.771398 0.255354
H53   H     H_    0.561797 0.887775 0.667343 0.235132
H54   H     H_    0.807664 0.884850 0.651894 0.234642
H55   H     H_    0.772471 0.031908 0.714940 0.160728
H56   H     H_    0.565189 0.021484 0.663388 0.208918
I9    I     I_    0.947883 0.329858 0.396750 -0.369737
I10   I     I_    0.777726 0.655952 0.592881 -0.379115
I11   I     I_    0.552115 0.670142 0.896750 -0.369739
I12   I     I_    0.722272 0.344048 0.092881 -0.379115
I13   I     I_    0.010985 0.058377 0.026874 -0.393515
I14   I     I_    0.222184 0.839860 0.900071 -0.326375
I15   I     I_    0.489012 0.941623 0.526875 -0.393517
I16   I     I_    0.277805 0.160140 0.400071 -0.326376

loop_
_geom_bond_atom_site_label_1
_geom_bond_atom_site_label_2
_ccdc_geom_bond_type
C69   H45   S    
C2    C12   S    
C55   C56   S    
C17   I9    S    
C38   I5    S    
C58   C59   S    
C61   H35   S    
C12   C35   A    
C49   C50   S    
C53   H12   S    
C63   H29   S    
O5    C4    A    
C15   C40   A    
O11   C3    A    
C9    C34   A    
C16   C39   A    
O20   V1    S    
C59   H25   S    
C63   H30   S    
C65   H40   S    
C69   H43   S    
C69   H44   S    
C38   C46   A    
C58   H27   S    
C62   H32   S    
C22   C45   A    
C64   H42   S    
O13   V4    S    
C35   C43   A    
C34   C42   A    
C72   H50   S    
C15   C32   A    
C19   C44   A    
C5    C15   S    
C53   H11   S    
C18   C41   A    
C8    C14   S    
C70   C71   S    
C56   H19   S    
C29   C64   S    
C52   H14   S    
C72   H51   S    
O14   V3    S    
O4    V1    S    
O9    V1    S    
C14   C37   A    
C4    C10   S    
C20   C28   A    
O17   V4    S    
O15   C7    A    
O11   V3    S    
O18   V3    S    
C54   H9    S    
O12   V4    S    
O19   V2    S    
O12   C4    A    
C45   C46   A    
C25   C52   S    
C17   C25   A    
C59   C60   S    
C67   H49   S    
C13   C38   A    
O5    V1    S    
C39   I8    S    
O17   V1    S    
C71   H54   S    
C28   C55   S    
C62   C63   S    
O7    V3    S    
O19   V3    S    
C43   C44   A    
O8    V4    S    
C68   H47   S    
O20   V4    S    
C3    C9    S    
C61   H34   S    
C52   C53   S    
C65   C66   S    
C63   H31   S    
O16   V1    S    
C7    C13   S    
O1    V4    S    
C58   H28   S    
C70   H55   S    
C33   I2    S    
O3    V2    S    
O6    C3    A    
C66   H38   S    
C23   I15   S    
O10   V2    S    
C51   H1    S    
C24   I16   S    
C37   I6    S    
O7    C2    A    
C6    C16   S    
C22   C30   A    
O13   C5    A    
C56   H18   S    
C57   H16   S    
C54   H8    S    
C72   H52   S    
C55   H21   S    
C20   I12   S    
C61   C62   S    
C12   C27   A    
C18   C26   A    
C49   H7    S    
O9    C1    A    
C51   H2    S    
C30   C61   S    
C39   C47   A    
C41   C42   A    
C54   H10   S    
C66   H36   S    
C40   I7    S    
C32   C67   S    
C24   C47   A    
C64   C65   S    
C11   C36   A    
C11   C28   A    
O15   V2    S    
C23   C31   A    
C60   H22   S    
C26   C49   S    
C37   C45   A    
C24   C32   A    
C71   H53   S    
C10   C25   A    
C27   C58   S    
C22   I14   S    
O6    V2    S    
C21   C46   A    
C68   H46   S    
C33   C41   A    
C20   C43   A    
C16   C31   A    
C18   I10   S    
C60   H24   S    
C31   C70   S    
C17   C42   A    
C13   C30   A    
C67   H48   S    
C36   I3    S    
O8    C1    A    
C70   H56   S    
O14   C6    A    
C9    C26   A    
C49   H6    S    
C47   C48   A    
C67   C68   S    
C59   H26   S    
O4    C5    A    
C19   C27   A    
C14   C29   A    
C21   I13   S    
O10   C2    A    
C10   C33   A    
C50   H5    S    
C53   C54   S    
C57   H17   S    
O2    C7    A    
C40   C48   A    
C62   H33   S    
C56   C57   S    
C23   C48   A    
C64   H41   S    
C21   C29   A    
C51   H3    S    
C71   C72   S    
C36   C44   A    
O1    C8    A    
O16   C8    A    
C50   C51   S    
C57   H15   S    
C66   H37   S    
C68   C69   S    
O2    V3    S    
O3    C6    A    
C1    C11   S    
C52   H13   S    
C65   H39   S    
C55   H20   S    
C35   I4    S    
C50   H4    S    
C34   I1    S    
C60   H23   S    
O18   V2    S    
C19   I11   S    
