data_mof_unit_30757.cif
_audit_creation_date              2012-12-11T17:43:39-0500
_audit_creation_method            fapswitch 2.2
_symmetry_space_group_name_H-M    P1
_symmetry_Int_Tables_number       1
_space_group_crystal_system       triclinic
_cell_length_a                    15.041945
_cell_length_b                    15.171948
_cell_length_c                    16.948422
_cell_angle_alpha                 108.824603
_cell_angle_beta                  106.462939
_cell_angle_gamma                 109.017154
_cell_volume                      3117.90870361

loop_
_atom_site_label
_atom_site_type_symbol
_atom_type_description
_atom_site_fract_x
_atom_site_fract_y
_atom_site_fract_z
_atom_type_partial_charge
C1    C     C_R   0.088007 0.291938 0.080240 -0.172596
C2    C     C_R   0.076491 0.084582 0.030609 -0.231324
C3    C     C_R   0.997374 0.918292 0.027394 0.065057
C4    C     C_R   0.006764 0.111309 0.059215 0.059380
C5    C     C_R   0.070302 0.987330 0.011357 0.008779
C6    C     C_R   0.934098 0.043985 0.076881 0.020077
C7    C     C_R   0.756542 0.004737 0.072387 -0.169252
C8    C     C_R   0.239513 0.002574 0.007079 -0.189410
C9    C     C_R   0.729465 0.134051 0.177674 -0.100149
C10   C     C_R   0.243490 0.911495 0.862498 -0.095886
C11   C     C_R   0.453407 0.537360 0.257590 -0.307966
C12   C     C_R   0.908372 0.721772 0.960127 -0.145381
C13   C     C_R   0.528270 0.367916 0.653156 -0.271763
C14   C     C_R   0.460054 0.527488 0.174839 -0.172528
C15   C     C_R   0.508080 0.357736 0.726291 -0.210436
C16   C     C_R   0.935333 0.512650 0.743619 -0.143151
C17   C     C_R   0.064563 0.551019 0.264625 -0.143334
C18   C     C_R   0.432247 0.428774 0.105748 0.123441
C19   C     C_R   0.480914 0.427972 0.779111 0.132998
C20   C     C_R   0.404018 0.341355 0.122761 -0.282717
C21   C     C_R   0.470854 0.506008 0.755313 -0.235127
C22   C     C_R   0.397476 0.351379 0.205570 -0.238600
C23   C     C_R   0.026782 0.567327 0.739660 0.074051
C24   C     C_R   0.489478 0.514968 0.681509 -0.279753
C25   C     C_R   0.418589 0.448385 0.272186 0.636645
C26   C     C_R   0.520947 0.447914 0.631611 0.646197
C27   C     C_R   0.511756 0.401212 0.000799 -0.235083
C28   C     C_R   0.378044 0.429124 0.870507 -0.245770
C29   C     C_R   0.534305 0.412968 0.929271 0.050883
C30   C     C_R   0.364731 0.432059 0.949505 0.061687
C31   C     C_R   0.464279 0.421583 0.859851 0.043890
C32   C     C_R   0.431873 0.416269 0.015057 0.038712
C33   C     C_R   0.689962 0.034591 0.104786 -0.107875
C34   C     C_R   0.972369 0.537631 0.273413 0.061610
C35   C     C_R   0.295831 0.978889 0.957606 -0.119208
C36   C     C_R   0.963926 0.582073 0.359866 0.125772
C37   C     C_R   0.035277 0.601675 0.669675 0.133884
C38   C     C_R   0.140606 0.674633 0.600443 -0.239119
C39   C     C_R   0.859716 0.558753 0.443931 -0.234201
C40   C     C_R   0.776691 0.203419 0.812405 -0.135601
C41   C     C_R   0.279428 0.784356 0.176575 -0.140967
C42   C     C_R   0.133466 0.651810 0.671951 -0.197112
C43   C     C_R   0.866023 0.549551 0.361693 -0.169822
C44   C     C_R   0.944786 0.579898 0.597411 -0.303495
C45   C     C_R   0.759765 0.197565 0.725548 0.060635
C46   C     C_R   0.054957 0.640606 0.443122 -0.268456
C47   C     C_R   0.950940 0.596839 0.523066 0.189118
C48   C     C_R   0.049477 0.642013 0.523657 0.200044
C49   C     C_R   0.719493 0.102396 0.639305 0.130797
C50   C     C_R   0.445251 0.856135 0.321709 0.127682
C51   C     C_R   0.589775 0.030082 0.392582 -0.217900
C52   C     C_R   0.618595 0.913419 0.554120 -0.222863
C53   C     C_R   0.497640 0.948940 0.317656 -0.174176
C54   C     C_R   0.685816 0.003449 0.637533 -0.172562
C55   C     C_R   0.493565 0.840132 0.396021 -0.285855
C56   C     C_R   0.336242 0.782153 0.255256 0.068815
C57   C     C_R   0.700081 0.108715 0.555879 -0.277573
C58   C     C_R   0.582588 0.922690 0.473032 0.193563
C59   C     C_R   0.627800 0.020038 0.472916 0.186632
C60   C     C_R   0.835753 0.203740 0.218664 -0.108027
C61   C     C_R   0.134795 0.867287 0.817000 -0.102345
C62   C     C_R   0.902700 0.174109 0.186799 -0.130662
C63   C     C_R   0.078071 0.888214 0.866638 -0.135623
C64   C     C_R   0.261000 0.534702 0.951048 -0.135258
C65   C     C_R   0.698734 0.402584 0.993113 -0.150938
C66   C     C_R   0.863558 0.074510 0.112702 0.118524
C67   C     C_R   0.286160 0.459204 0.966303 0.051501
C68   C     C_R   0.130120 0.956237 0.961868 0.131358
C69   C     C_R   0.781638 0.297829 0.734586 -0.128639
C70   C     C_R   0.274557 0.690043 0.253266 -0.135556
C71   C     C_R   0.241628 0.431164 0.020057 -0.113230
C72   C     C_R   0.705080 0.502522 0.921495 -0.127839
C73   C     C_R   0.108569 0.596707 0.821297 -0.134816
C74   C     C_R   0.890339 0.465447 0.186997 -0.130830
C75   C     C_R   0.915276 0.204737 0.001227 -0.122073
C76   C     C_R   0.083496 0.806252 0.040609 -0.104306
C77   C     C_R   0.002030 0.201331 0.052441 0.060632
C78   C     C_R   0.640419 0.436171 0.943472 0.062551
C79   C     C_R   0.995082 0.819299 0.014129 0.055296
C80   C     C_3   0.338811 0.494249 0.364234 0.158919
C81   C     C_3   0.303502 0.467788 0.433352 -0.188726
C82   C     C_3   0.223698 0.505289 0.446462 -1.083235
C83   C     C_3   0.646123 0.518602 0.588015 0.204546
C84   C     C_3   0.674104 0.635344 0.624483 -0.317345
C85   C     C_3   0.786919 0.701870 0.646053 -1.016639
C86   C     C_R   0.930506 0.946475 0.060700 -0.240758
H1    H     H_    0.166811 0.318300 0.129000 0.101328
H2    H     H_    0.450222 0.561265 0.794844 0.133529
H3    H     H_    0.373374 0.282959 0.217071 0.144553
H4    H     H_    0.481291 0.575503 0.664251 0.126805
H5    H     H_    0.565077 0.395293 0.054850 0.129889
H6    H     H_    0.323436 0.437241 0.819219 0.133698
H7    H     H_    0.131025 0.672371 0.444026 0.120434
H8    H     H_    0.868564 0.542177 0.594492 0.121011
H9    H     H_    0.794155 0.509162 0.299097 0.121017
H10   H     H_    0.204919 0.670595 0.727005 0.118145
H11   H     H_    0.216700 0.709507 0.601676 0.131728
H12   H     H_    0.828181 0.704373 0.924049 0.100724
H13   H     H_    0.783554 0.526036 0.443081 0.128851
H14   H     H_    0.856713 0.491034 0.698626 0.079225
H15   H     H_    0.143611 0.601147 0.317269 0.105867
H16   H     H_    0.607564 0.980738 0.073051 0.102385
H17   H     H_    0.380088 0.014081 0.992662 0.104170
H18   H     H_    0.730324 0.183618 0.555422 0.118798
H19   H     H_    0.456666 0.768259 0.399522 0.106369
H20   H     H_    0.704038 0.995292 0.700402 0.115722
H21   H     H_    0.464539 0.962583 0.260002 0.113420
H22   H     H_    0.625048 0.103838 0.390986 0.127115
H23   H     H_    0.724315 0.927918 0.014969 0.107618
H24   H     H_    0.586654 0.838506 0.554634 0.125486
H25   H     H_    0.677717 0.157074 0.202424 0.099922
H26   H     H_    0.287189 0.894627 0.823863 0.103355
H27   H     H_    0.866336 0.280762 0.275187 0.119049
H28   H     H_    0.094348 0.818330 0.742989 0.136280
H29   H     H_    0.985008 0.228902 0.219899 0.113928
H30   H     H_    0.994035 0.854463 0.830528 0.116353
H31   H     H_    0.767336 0.140723 0.831206 0.092952
H32   H     H_    0.308476 0.835965 0.148469 0.086471
H33   H     H_    0.284496 0.574697 0.912482 0.094945
H34   H     H_    0.280802 0.056971 0.080251 0.110596
H35   H     H_    0.670315 0.339571 0.010524 0.094060
H36   H     H_    0.775885 0.322542 0.681288 0.092714
H37   H     H_    0.298599 0.654799 0.295803 0.075125
H38   H     H_    0.240124 0.370569 0.040067 0.118318
H39   H     H_    0.684183 0.537596 0.877688 0.107295
H40   H     H_    0.188933 0.653660 0.848497 0.088491
H41   H     H_    0.807827 0.436498 0.167888 0.094792
H42   H     H_    0.834589 0.149728 0.976210 0.098884
H43   H     H_    0.163873 0.865958 0.080153 0.101844
H44   H     H_    0.876806 0.892967 0.074796 0.134396
H45   H     H_    0.474964 0.613973 0.309891 0.130944
H46   H     H_    0.129453 0.135833 0.014099 0.138767
H47   H     H_    0.268206 0.459034 0.297698 0.080289
H48   H     H_    0.377865 0.580974 0.392383 0.084002
H49   H     H_    0.268295 0.381545 0.408432 0.205839
H50   H     H_    0.372390 0.506016 0.501009 0.215195
H51   H     H_    0.256679 0.591127 0.469861 0.261532
H52   H     H_    0.202865 0.488490 0.499677 0.286294
H53   H     H_    0.151645 0.463703 0.380567 0.277642
H54   H     H_    0.663046 0.494134 0.527035 0.135180
H55   H     H_    0.696874 0.505702 0.640852 0.050151
H56   H     H_    0.550123 0.314102 0.613501 0.138692
H57   H     H_    0.621189 0.646507 0.572028 0.219724
H58   H     H_    0.664103 0.663160 0.688974 0.183119
H59   H     H_    0.840977 0.690327 0.697179 0.264324
H60   H     H_    0.805694 0.786030 0.675687 0.272341
H61   H     H_    0.798336 0.680462 0.581896 0.276243
H62   H     H_    0.484451 0.596093 0.163586 0.141014
H63   H     H_    0.514890 0.296069 0.742464 0.143851
H64   H     H_    0.384118 0.265010 0.070766 0.151554
N1    N     N_R   0.055660 0.348550 0.045620 -0.038110
N2    N     N_R   0.185200 0.638170 0.176300 -0.038596
N3    N     N_R   0.201680 0.494570 0.045620 -0.043166
N4    N     N_R   0.798320 0.505430 0.954380 -0.039800
N5    N     N_R   0.068420 0.560530 0.871650 -0.037566
N6    N     N_R   0.931580 0.439470 0.128350 -0.037966
N7    N     N_R   0.948070 0.295860 0.997670 -0.039053
N8    N     N_R   0.051930 0.704140 0.002330 -0.041988
N9    N     N_R   0.944340 0.651450 0.954380 -0.039968
N10   N     N_R   0.960830 0.507850 0.823700 -0.038084
N11   N     N_R   0.039170 0.492150 0.176300 -0.040895
N12   N     N_R   0.811290 0.303410 0.871650 -0.040442
N13   N     N_R   0.188710 0.696590 0.128350 -0.038764
N14   N     N_R   0.205200 0.552990 0.997670 -0.040496
N15   N     N_R   0.794800 0.447010 0.002330 -0.037984
N16   N     N_R   0.814800 0.361830 0.823700 -0.040364
Ni1   Ni    Ni4+2 0.119340 0.493420 0.109960 0.205765
Ni2   Ni    Ni4+2 0.880660 0.506580 0.890040 0.210879
Ni3   Ni    Ni4+2 0.872590 0.372590 0.000000 0.214562
Ni4   Ni    Ni4+2 0.127410 0.627410 0.000000 0.215509
O1    O     O_3   0.409921 0.454747 0.352821 -0.648762
O2    O     O_3   0.538254 0.456724 0.558041 -0.658885

loop_
_geom_bond_atom_site_label_1
_geom_bond_atom_site_label_2
_ccdc_geom_bond_type
C1    H1    S    
N16   Ni2   S    
C9    H25   S    
C65   N15   A    
C27   C29   A    
C1    C77   A    
C14   C18   A    
N14   Ni4   S    
C76   C79   A    
C64   N14   A    
C19   C31   S    
C81   C82   S    
C80   H48   S    
C15   C19   A    
N12   Ni3   S    
C76   N8    A    
C6    C66   S    
C64   H33   S    
C55   H19   S    
C83   C84   S    
C42   H10   S    
N1    N7    A    
C19   C21   A    
C24   C26   A    
C38   C42   A    
C82   H51   S    
C35   H17   S    
C38   H11   S    
C11   C14   A    
C57   C59   A    
C67   C71   A    
C16   N10   A    
C11   C25   A    
C49   C54   A    
C71   N3    A    
C12   C79   A    
C14   H62   S    
N6    Ni3   S    
C49   C57   A    
N9    Ni2   S    
C60   C62   A    
C75   H42   S    
C37   C42   A    
C61   C63   A    
N13   Ni4   S    
C17   H15   S    
C69   N16   A    
C72   C78   A    
N7    Ni3   S    
N12   N16   A    
C70   H37   S    
C29   C78   S    
C47   C48   A    
C51   H22   S    
C22   C25   A    
C2    H46   S    
C43   H9    S    
N4    N15   A    
C10   H26   S    
C10   C35   A    
C65   H35   S    
C41   H32   S    
C12   H12   S    
C30   C67   S    
C44   C47   A    
C17   N11   A    
C75   N7    A    
C40   H31   S    
N5    N10   A    
C21   H2    S    
C3    C79   S    
C16   H14   S    
N3    Ni1   S    
C3    C86   A    
C9    C33   A    
C7    C33   A    
N4    Ni2   S    
C60   H27   S    
C23   C73   A    
C5    C68   S    
C83   H54   S    
C52   C54   A    
C81   H49   S    
N15   Ni3   S    
C40   C45   A    
C46   C48   A    
C50   C53   A    
C72   N4    A    
C62   C66   A    
N3    N14   A    
C45   C69   A    
C33   H16   S    
C64   C67   A    
C71   H38   S    
C70   N2    A    
C85   H60   S    
C4    C6    A    
C83   H55   S    
C54   H20   S    
N8    Ni4   S    
C39   C43   A    
C84   H57   S    
C58   C59   A    
C23   C37   S    
C50   C56   S    
C80   H47   S    
C7    H23   S    
C24   H4    S    
C51   C53   A    
C8    C35   A    
C2    C4    A    
C41   C56   A    
C40   N12   A    
C82   H53   S    
C76   H43   S    
C53   H21   S    
C39   H13   S    
C74   H41   S    
C52   H24   S    
C83   O2    S    
C73   N5    A    
C45   C49   S    
C74   N6    A    
C28   H6    S    
C13   H56   S    
C84   C85   S    
C27   H5    S    
C75   C77   A    
N11   Ni1   S    
C52   C58   A    
C34   C74   A    
C63   H30   S    
C20   C22   A    
N6    N11   A    
C8    C68   A    
C16   C23   A    
C56   C70   A    
C41   N13   A    
N8    N9    A    
C13   C26   A    
C21   C24   A    
C10   C61   A    
C18   C32   S    
C17   C34   A    
C15   H63   S    
N2    Ni1   S    
C8    H34   S    
C81   H50   S    
C39   C47   A    
C57   H18   S    
C63   C68   A    
C65   C78   A    
C27   C32   A    
C38   C48   A    
C28   C31   A    
C86   H44   S    
C85   H61   S    
C85   H59   S    
C80   C81   S    
C3    C5    A    
C11   H45   S    
C50   C55   A    
C6    C86   A    
C72   H39   S    
C9    C60   A    
C37   C44   A    
C13   C15   A    
C62   H29   S    
C29   C31   A    
C7    C66   A    
C30   C32   A    
C36   C46   A    
N5    Ni4   S    
C25   O1    S    
C46   H7    S    
C69   H36   S    
N1    Ni1   S    
C28   C30   A    
C22   H3    S    
C20   H64   S    
C1    N1    A    
C18   C20   A    
N10   Ni2   S    
C12   N9    A    
N2    N13   A    
C44   H8    S    
C26   O2    S    
C2    C5    A    
C4    C77   S    
C51   C59   A    
C34   C36   S    
C82   H52   S    
C55   C58   A    
C61   H28   S    
C84   H58   S    
C36   C43   A    
C80   O1    S    
C73   H40   S    
