data_mof_unit_16513.cif
_audit_creation_date              2012-12-10T18:59:15-0500
_audit_creation_method            fapswitch 2.2
_symmetry_space_group_name_H-M    P1
_symmetry_Int_Tables_number       1
_space_group_crystal_system       triclinic
_cell_length_a                    10.846865
_cell_length_b                    10.831048
_cell_length_c                    9.536212
_cell_angle_alpha                 90.044782
_cell_angle_beta                  90.064907
_cell_angle_gamma                 92.408417
_cell_volume                      1119.35125013

loop_
_atom_site_label
_atom_site_type_symbol
_atom_type_description
_atom_site_fract_x
_atom_site_fract_y
_atom_site_fract_z
_atom_type_partial_charge
C1    C     C_R   0.506056 0.262724 0.499813 0.780510
C2    C     C_R   0.052261 0.370456 0.532231 0.073537
C3    C     C_R   0.126640 0.480088 0.499057 -0.088692
C4    C     C_R   0.070498 0.589651 0.463039 -0.186428
C5    C     C_R   0.943571 0.596039 0.462523 -0.224223
C6    C     C_R   0.869837 0.493502 0.500570 -0.077416
C7    C     C_R   0.485481 0.063188 0.623519 0.114514
C8    C     C_R   0.501817 0.129158 0.498784 -0.090878
C9    C     C_R   0.499749 0.064198 0.371051 -0.214332
C10   C     C_R   0.496407 0.935544 0.371034 -0.224565
C11   C     C_R   0.495476 0.870717 0.498792 -0.103284
C12   C     C_R   0.261958 0.488985 0.499969 0.803411
C13   C     C_R   0.483067 0.936279 0.623575 0.128319
C14   C     C_3   0.553513 0.931776 0.758098 -0.471715
C15   C     C_3   0.553931 0.072151 0.759203 -0.462836
C16   C     C_R   0.562716 0.591580 0.073844 0.252205
C17   C     C_R   0.428968 0.416483 0.074323 -0.070775
C18   C     C_R   0.428980 0.416453 0.925345 -0.071352
C19   C     C_R   0.562837 0.591479 0.926393 0.256179
C20   C     C_3   0.698178 0.621744 0.921024 -0.499498
C21   C     C_3   0.697904 0.622321 0.080127 -0.500704
C22   C     C_R   0.500657 0.737674 0.499914 0.799838
C23   C     C_R   0.737433 0.504706 0.500041 0.778902
C24   C     C_R   0.098765 0.250520 0.557895 0.150105
C25   C     C_R   0.018340 0.149836 0.591473 -0.105615
C26   C     C_R   0.892655 0.162877 0.597305 -0.204417
C27   C     C_R   0.844549 0.276289 0.569196 -0.179382
C28   C     C_R   0.921824 0.380457 0.535409 0.071361
Cu1   Cu    Cu3+1 0.499990 0.499980 0.640670 0.935782
Cu2   Cu    Cu3+1 0.500010 0.500020 0.359330 0.938671
H1    H     H_    0.125931 0.671895 0.436066 0.140498
H2    H     H_    0.646924 0.895118 0.744067 0.187694
H3    H     H_    0.496571 0.109784 0.844462 0.195092
H4    H     H_    0.647271 0.117168 0.748766 0.196520
H5    H     H_    0.373426 0.347387 0.130184 0.135280
H6    H     H_    0.373470 0.347306 0.869332 0.131968
H7    H     H_    0.751568 0.545712 0.876287 0.226977
H8    H     H_    0.719535 0.714326 0.874984 0.186579
H9    H     H_    0.751504 0.546870 0.125772 0.228395
H10   H     H_    0.718396 0.715386 0.125847 0.190113
H11   H     H_    0.052892 0.059123 0.611943 0.132505
H12   H     H_    0.832075 0.083776 0.621304 0.141731
H13   H     H_    0.745650 0.280631 0.572793 0.143058
H14   H     H_    0.902505 0.682173 0.434420 0.134075
H15   H     H_    0.504649 0.112215 0.271491 0.165584
H16   H     H_    0.499633 0.887631 0.271435 0.165061
H17   H     H_    0.497818 0.888627 0.844223 0.197758
N1    N     N_R   0.500790 0.500930 0.147930 -0.184747
N2    N     N_R   0.500790 0.500890 0.852020 -0.184412
O1    O     O_R   0.500000 0.319640 0.618810 -0.590303
O2    O     O_R   0.500010 0.319680 0.381230 -0.588168
O3    O     O_R   0.319640 0.499980 0.618820 -0.575104
O4    O     O_R   0.319650 0.500020 0.381230 -0.575638
O5    O     O_R   0.499990 0.680320 0.618770 -0.575750
O6    O     O_R   0.500000 0.680360 0.381190 -0.585883
O7    O     O_R   0.680350 0.499980 0.618770 -0.586137
O8    O     O_R   0.680360 0.500020 0.381180 -0.577847
C29   C     C_3   0.230908 0.222439 0.545770 -0.883968
H18   H     H_    0.245887 0.121916 0.554001 0.222543
H19   H     H_    0.265188 0.252052 0.441169 0.230394
H20   H     H_    0.280856 0.268128 0.633759 0.248906

loop_
_geom_bond_atom_site_label_1
_geom_bond_atom_site_label_2
_ccdc_geom_bond_type
C10   H16   S    
Cu2   O2    S    
C15   H4    S    
C9    H15   S    
C16   C21   S    
Cu1   O7    S    
C1    C8    S    
C20   H8    S    
C9    C10   A    
C19   N2    A    
C11   C22   S    
C12   O4    A    
C21   H9    S    
C17   N1    A    
Cu1   O5    S    
C16   N1    A    
C29   H20   S    
C7    C15   S    
C17   C18   A    
C25   C26   A    
C23   O7    A    
C22   O5    A    
Cu1   N2    S    
C13   C14   S    
C20   C21   S    
C20   H7    S    
C1    O2    A    
C26   C27   A    
C22   O6    A    
C21   H10   S    
C18   H6    S    
C16   C19   A    
C6    C23   S    
Cu2   N1    S    
C12   O3    A    
C5    H14   S    
C2    C3    A    
Cu1   O1    S    
C2    C24   A    
C5    C6    A    
Cu2   O4    S    
C11   C13   A    
C7    C8    A    
C10   C11   A    
Cu1   Cu2   S    
C3    C4    A    
C4    H1    S    
Cu2   O8    S    
C27   H13   S    
C7    C13   A    
C24   C25   A    
C26   H12   S    
C24   C29   S    
C1    O1    A    
C25   H11   S    
C27   C28   A    
C23   O8    A    
C14   C15   S    
C4    C5    A    
C2    C28   A    
C3    C12   S    
C17   H5    S    
C29   H18   S    
C14   H17   S    
C29   H19   S    
Cu2   O6    S    
C15   H3    S    
C6    C28   A    
C19   C20   S    
C18   N2    A    
C14   H2    S    
C8    C9    A    
Cu1   O3    S    
