data_mof_unit_66317.cif
_audit_creation_date              2012-10-26T18:13:58-0400
_audit_creation_method            fapswitch 2.2
_symmetry_space_group_name_H-M    P1
_symmetry_Int_Tables_number       1
_space_group_crystal_system       triclinic
_cell_length_a                    21.623024
_cell_length_b                    21.628935
_cell_length_c                    22.163761
_cell_angle_alpha                 60.671303
_cell_angle_beta                  119.28168
_cell_angle_gamma                 89.793033
_cell_volume                      7468.35836298

loop_
_atom_site_label
_atom_site_type_symbol
_atom_type_description
_atom_site_fract_x
_atom_site_fract_y
_atom_site_fract_z
_atom_type_partial_charge
C1    C     C_R   0.618649 0.501224 0.497587 0.549823
C2    C     C_3   0.822817 0.498609 0.575712 -0.214162
C3    C     C_3   0.715966 0.431838 0.502451 -0.204825
C4    C     C_R   0.420144 0.580202 0.339881 0.539428
C5    C     C_3   0.670811 0.575723 0.412826 0.012205
C6    C     C_3   0.687173 0.502356 0.496617 0.086937
C7    C     C_3   0.810293 0.500971 0.499143 0.037491
C8    C     C_3   0.785728 0.433126 0.499088 -0.119315
C9    C     C_3   0.745714 0.574137 0.418358 -0.207545
C10   C     C_3   0.705193 0.233508 0.027819 -0.109681
C11   C     C_3   0.704753 0.313184 0.971649 -0.112252
C12   C     C_3   0.291902 0.708735 0.082822 0.032527
C13   C     C_1   0.624706 0.374472 0.750001 -0.042887
C14   C     C_1   0.874723 0.124460 0.249943 -0.040584
C15   C     C_3   0.708260 0.211290 0.972324 -0.113036
C16   C     C_R   0.382477 0.497502 0.504520 0.547110
C17   C     C_3   0.708333 0.290369 0.917358 0.062653
C18   C     C_3   0.795110 0.184629 0.028619 -0.088803
C19   C     C_3   0.791257 0.207733 0.082592 0.042617
C20   C     C_3   0.793945 0.264259 0.972749 0.036269
C21   C     C_3   0.791575 0.286786 0.027914 -0.087735
C22   C     C_1   0.662360 0.336476 0.825491 -0.064953
C23   C     C_3   0.235449 0.705720 0.973104 0.025285
C24   C     C_1   0.837025 0.161960 0.174432 -0.068496
C25   C     C_3   0.245566 0.560865 0.417079 -0.130420
C26   C     C_3   0.173408 0.562116 0.415808 -0.222127
C27   C     C_3   0.300949 0.416514 0.530010 -0.054500
C28   C     C_R   0.579905 0.419769 0.660141 0.540809
C29   C     C_3   0.320270 0.510287 0.569531 -0.254316
C30   C     C_3   0.313850 0.495442 0.505332 0.061188
C31   C     C_3   0.190014 0.496552 0.501476 0.068097
C32   C     C_3   0.223102 0.418693 0.520517 0.046110
C33   C     C_3   0.248812 0.508469 0.569182 -0.249572
C34   C     C_3   0.209342 0.791484 0.917224 0.072008
C35   C     C_R   0.001768 0.878890 0.502364 0.548654
C36   C     C_R   0.080174 0.919834 0.660118 0.547420
C37   C     C_R   0.998189 0.121565 0.496476 0.546491
C38   C     C_R   0.919828 0.079876 0.339836 0.544019
C39   C     C_R   0.999063 0.379185 0.500692 0.543129
C40   C     C_3   0.288487 0.791582 0.972346 -0.124087
C41   C     C_R   0.879581 0.501409 0.499767 0.546419
C42   C     C_R   0.002642 0.620128 0.499987 0.555523
C43   C     C_R   0.120394 0.500469 0.500183 0.546894
C44   C     C_3   0.089116 0.751527 0.567858 0.048971
C45   C     C_3   0.212802 0.708173 0.028310 -0.075982
C46   C     C_3   0.087299 0.688451 0.551066 -0.092358
C47   C     C_3   0.956448 0.768573 0.533546 -0.226236
C48   C     C_3   0.966888 0.832119 0.408194 0.010753
C49   C     C_3   0.004693 0.809917 0.502382 0.087774
C50   C     C_3   0.003929 0.688427 0.501230 0.040324
C51   C     C_3   0.962466 0.693490 0.541010 -0.119770
C52   C     C_3   0.266272 0.794949 0.027871 -0.097143
C53   C     C_3   0.962814 0.759376 0.409886 -0.203200
C54   C     C_3   0.030557 0.240647 0.449456 -0.239216
C55   C     C_3   0.036408 0.307203 0.458251 -0.256853
C56   C     C_3   0.187399 0.794574 0.972083 0.023253
C57   C     C_3   0.917713 0.236606 0.456408 -0.228295
C58   C     C_3   0.048023 0.165874 0.589251 -0.211410
C59   C     C_3   0.998388 0.189910 0.497456 0.042227
C60   C     C_3   0.998994 0.309179 0.502204 0.066408
C61   C     C_3   0.917540 0.310036 0.451991 -0.232171
C62   C     C_3   0.044122 0.235068 0.593789 -0.091587
C63   C     C_1   0.375391 0.625353 0.250056 -0.043324
C64   C     C_1   0.125381 0.874971 0.749920 -0.042339
C65   C     C_3   0.315120 0.704632 0.028941 -0.096435
C66   C     C_3   0.847724 0.356918 0.569284 -0.429963
C67   C     C_1   0.337753 0.663044 0.174586 -0.068882
C68   C     C_3   0.611323 0.578387 0.333777 -0.398758
C69   C     C_3   0.640379 0.650520 0.398206 -0.379964
C70   C     C_3   0.844124 0.282029 0.940877 -0.413339
C71   C     C_3   0.236034 0.562275 0.342633 -0.419683
C72   C     C_3   0.114891 0.845873 0.939635 -0.413118
C73   C     C_3   0.169625 0.410725 0.447555 -0.414500
C74   C     C_3   0.368837 0.350814 0.617503 -0.414728
C75   C     C_3   0.229258 0.351221 0.598829 -0.369354
C76   C     C_3   0.115046 0.719032 0.660373 -0.386015
C77   C     C_3   0.152471 0.784031 0.562626 -0.365834
C78   C     C_1   0.163334 0.837326 0.825371 -0.062976
C79   C     C_3   0.146476 0.611586 0.630192 -0.404554
C80   C     C_3   0.885934 0.888970 0.346662 -0.388183
C81   C     C_3   0.009569 0.869833 0.367754 -0.394123
C82   C     C_3   0.884478 0.683569 0.504335 -0.432807
C83   C     C_3   0.217931 0.655292 0.941618 -0.415557
C84   C     C_3   0.013430 0.225277 0.646850 -0.422324
C85   C     C_3   0.768554 0.432867 0.660361 -0.428281
C86   C     C_3   0.751172 0.498864 0.575472 -0.119722
Cu1   Cu    Cu3+1 0.500030 0.437550 0.499970 0.886611
Cu2   Cu    Cu3+1 0.499970 0.562450 0.500030 0.886529
Cu3   Cu    Cu3+1 0.062480 0.999860 0.500010 0.878945
Cu4   Cu    Cu3+1 0.937520 0.999990 0.499990 0.894603
Cu5   Cu    Cu3+1 0.041430 0.458600 0.582880 0.850728
Cu6   Cu    Cu3+1 0.958570 0.541400 0.417120 0.869110
H1    H     H_    0.278934 0.831543 0.051190 0.103242
H2    H     H_    0.327360 0.566096 0.553243 0.125925
H3    H     H_    0.264101 0.464289 0.632761 0.129538
H4    H     H_    0.105885 0.703232 0.508231 0.111999
H5    H     H_    0.973328 0.758260 0.594563 0.105094
H6    H     H_    0.996393 0.646801 0.608427 0.143051
H7    H     H_    0.987563 0.753194 0.378523 0.111347
H8    H     H_    0.096452 0.301389 0.496010 0.096084
H9    H     H_    0.879845 0.249843 0.392152 0.112251
H10   H     H_    0.887828 0.358137 0.385314 0.126194
H11   H     H_    0.107080 0.137496 0.617122 0.104288
H12   H     H_    0.871033 0.448961 0.634971 0.146977
H13   H     H_    0.895194 0.203757 0.493475 0.134608
H14   H     H_    0.838308 0.548088 0.573946 0.087728
H15   H     H_    0.728009 0.379987 0.560374 0.137223
H16   H     H_    0.867667 0.343547 0.632184 0.138164
H17   H     H_    0.826338 0.311982 0.563984 0.111935
H18   H     H_    0.895456 0.356824 0.563175 0.156043
H19   H     H_    0.632458 0.533915 0.330736 0.112041
H20   H     H_    0.559443 0.572944 0.331826 0.140995
H21   H     H_    0.595872 0.632409 0.275731 0.122218
H22   H     H_    0.636038 0.698639 0.342725 0.109610
H23   H     H_    0.738037 0.580025 0.362107 0.131176
H24   H     H_    0.583094 0.659562 0.384047 0.169470
H25   H     H_    0.677582 0.654753 0.451411 0.113974
H26   H     H_    0.763265 0.622720 0.417643 0.104812
H27   H     H_    0.671883 0.428100 0.451322 0.112788
H28   H     H_    0.769827 0.441385 0.439003 0.125257
H29   H     H_    0.668936 0.220284 0.051595 0.104100
H30   H     H_    0.826511 0.317297 0.051395 0.099298
H31   H     H_    0.903625 0.256015 0.994740 0.124188
H32   H     H_    0.834302 0.259609 0.902503 0.129169
H33   H     H_    0.831359 0.343566 0.901876 0.129013
H34   H     H_    0.667105 0.366285 0.947453 0.100776
H35   H     H_    0.673491 0.180782 0.948680 0.099931
H36   H     H_    0.236241 0.507744 0.350418 0.131208
H37   H     H_    0.182940 0.605698 0.283383 0.119111
H38   H     H_    0.282206 0.577219 0.335587 0.153213
H39   H     H_    0.255625 0.614570 0.407240 0.140495
H40   H     H_    0.128348 0.561203 0.362801 0.141042
H41   H     H_    0.114105 0.836233 0.993219 0.123699
H42   H     H_    0.110592 0.905112 0.900804 0.130229
H43   H     H_    0.066615 0.834008 0.901001 0.132775
H44   H     H_    0.165723 0.449958 0.389238 0.116826
H45   H     H_    0.319181 0.826100 0.948746 0.100640
H46   H     H_    0.189765 0.353627 0.464583 0.113436
H47   H     H_    0.112137 0.420689 0.432751 0.144863
H48   H     H_    0.224204 0.562454 0.555905 0.093860
H49   H     H_    0.423311 0.353191 0.625783 0.163002
H50   H     H_    0.372307 0.349988 0.669452 0.122803
H51   H     H_    0.364751 0.296482 0.625557 0.117670
H52   H     H_    0.173198 0.349856 0.586623 0.153941
H53   H     H_    0.255551 0.296934 0.614231 0.107586
H54   H     H_    0.261364 0.352525 0.655072 0.126539
H55   H     H_    0.088587 0.677696 0.682891 0.110292
H56   H     H_    0.832930 0.131685 0.052696 0.097726
H57   H     H_    0.176350 0.689635 0.705582 0.122155
H58   H     H_    0.102980 0.764736 0.666686 0.126975
H59   H     H_    0.202782 0.738717 0.592661 0.099125
H60   H     H_    0.137649 0.825740 0.499482 0.131053
H61   H     H_    0.172132 0.811057 0.597338 0.158665
H62   H     H_    0.181877 0.673767 0.051617 0.097936
H63   H     H_    0.129113 0.583438 0.673928 0.151212
H64   H     H_    0.156266 0.574482 0.612534 0.151307
H65   H     H_    0.201646 0.617828 0.664012 0.111308
H66   H     H_    0.846075 0.865875 0.361634 0.112853
H67   H     H_    0.151059 0.616336 0.403704 0.098441
H68   H     H_    0.885537 0.941295 0.344549 0.156365
H69   H     H_    0.861933 0.904865 0.281863 0.114847
H70   H     H_    0.975206 0.893716 0.299591 0.116114
H71   H     H_    0.022869 0.916723 0.373784 0.165636
H72   H     H_    0.060559 0.828986 0.392433 0.103953
H73   H     H_    0.903851 0.761961 0.372575 0.132789
H74   H     H_    0.897384 0.804432 0.492404 0.140142
H75   H     H_    0.888029 0.630052 0.509359 0.149642
H76   H     H_    0.861743 0.682340 0.540161 0.115997
H77   H     H_    0.844216 0.729930 0.437721 0.126325
H78   H     H_    0.299330 0.405092 0.485585 0.147542
H79   H     H_    0.993662 0.261664 0.382111 0.114562
H80   H     H_    0.244060 0.595843 0.995668 0.125648
H81   H     H_    0.156430 0.667893 0.902727 0.128809
H82   H     H_    0.240360 0.665052 0.903237 0.128070
H83   H     H_    0.087124 0.208790 0.474246 0.135414
H84   H     H_    0.009865 0.360030 0.395020 0.127557
H85   H     H_    0.030292 0.123550 0.626645 0.122769
H86   H     H_    0.102438 0.235681 0.628224 0.130523
H87   H     H_    0.049030 0.171849 0.709628 0.115706
H88   H     H_    0.015036 0.269817 0.658160 0.163368
H89   H     H_    0.370468 0.468880 0.633485 0.111891
H90   H     H_    0.955540 0.222862 0.617556 0.129051
H91   H     H_    0.368084 0.666721 0.053175 0.101902
H92   H     H_    0.885540 0.317801 0.475852 0.100808
H93   H     H_    0.794045 0.378114 0.676210 0.128153
H94   H     H_    0.808978 0.439185 0.711023 0.119612
H95   H     H_    0.717454 0.432094 0.660696 0.155479
H96   H     H_    0.733410 0.549474 0.571748 0.143470
O1    O     O_R   0.591180 0.447260 0.499980 -0.521015
O2    O     O_R   0.965090 0.443800 0.430050 -0.515333
O3    O     O_R   0.943830 0.465050 0.569970 -0.516803
O4    O     O_R   0.591140 0.552730 0.500040 -0.522860
O5    O     O_R   0.873850 0.534970 0.430000 -0.519302
O6    O     O_R   0.034910 0.556200 0.569950 -0.518146
O7    O     O_R   0.964930 0.626120 0.429980 -0.520724
O8    O     O_R   0.126150 0.465040 0.570000 -0.525535
O9    O     O_R   0.056170 0.534950 0.430030 -0.520861
O10   O     O_R   0.439570 0.507730 0.379050 -0.503705
O11   O     O_R   0.439520 0.613200 0.379110 -0.508845
O12   O     O_R   0.947190 0.908860 0.499960 -0.523525
O13   O     O_R   0.408860 0.447270 0.499960 -0.524195
O14   O     O_R   0.408820 0.552740 0.500020 -0.516274
O15   O     O_R   0.560480 0.386800 0.620890 -0.509674
O16   O     O_R   0.560430 0.492270 0.620950 -0.504233
O17   O     O_R   0.052720 0.908740 0.499970 -0.527252
O18   O     O_R   0.113220 0.939420 0.620930 -0.508535
O19   O     O_R   0.007690 0.939530 0.620920 -0.503644
O20   O     O_R   0.052810 0.090990 0.500040 -0.514840
O21   O     O_R   0.947280 0.091100 0.500030 -0.515334
O22   O     O_R   0.992310 0.060320 0.379080 -0.508004
O23   O     O_R   0.886780 0.060430 0.379070 -0.506695
O24   O     O_R   0.035070 0.373890 0.570020 -0.526364

loop_
_geom_bond_atom_site_label_1
_geom_bond_atom_site_label_2
_ccdc_geom_bond_type
C44   C49   S    
C85   H95   S    
C15   C18   S    
C57   H13   S    
Cu1   Cu2   S    
C69   H24   S    
C58   C62   S    
C23   C45   S    
C82   H75   S    
C81   H70   S    
C2    C7    S    
C74   H51   S    
Cu6   O7    S    
C77   H59   S    
C32   C75   S    
C7    C8    S    
C47   C49   S    
C82   H76   S    
C85   C86   S    
C75   H53   S    
C8    C66   S    
C4    C63   S    
C31   C43   S    
C13   C22   T    
C19   C24   S    
C34   C40   S    
Cu2   O11   S    
C44   C77   S    
C19   C21   S    
C18   H56   S    
C10   C15   S    
C29   H2    S    
C57   C59   S    
Cu3   O20   S    
C42   O6    A    
C73   H46   S    
C33   H48   S    
C16   C30   S    
C29   C33   S    
C85   H94   S    
C17   C20   S    
C48   C81   S    
C60   C62   S    
C18   C19   S    
C68   H20   S    
C14   C24   T    
C21   H30   S    
C84   H88   S    
C41   O5    A    
C77   H61   S    
C79   H64   S    
C39   O2    A    
C80   H66   S    
C70   H31   S    
C35   O17   A    
C4    O11   A    
Cu3   O17   S    
C46   C79   S    
Cu3   O18   S    
C76   H55   S    
C44   C46   S    
C56   C72   S    
C55   H8    S    
C35   C49   S    
C5    C69   S    
C31   C33   S    
C13   C28   S    
C25   C71   S    
C76   H58   S    
C38   O23   A    
C27   C74   S    
C34   C56   S    
Cu1   O1    S    
C10   H29   S    
C51   H6    S    
C4    O10   A    
C74   H50   S    
C82   H77   S    
C26   C31   S    
C15   H35   S    
C55   C60   S    
C83   H80   S    
C27   C30   S    
Cu1   O13   S    
C9    H26   S    
C81   H71   S    
C20   C70   S    
C5    C68   S    
C16   O14   A    
C33   H3    S    
C77   H60   S    
Cu1   O15   S    
C12   C52   S    
Cu6   O2    S    
C35   O12   A    
C54   C59   S    
C75   H54   S    
C85   H93   S    
C48   C53   S    
C55   H84   S    
C12   C67   S    
C63   C67   T    
C69   H22   S    
C50   C53   S    
C41   O3    A    
C1    C6    S    
C9    H23   S    
C26   H67   S    
C11   H34   S    
C45   C56   S    
C3    C8    S    
C75   H52   S    
Cu5   Cu6   S    
C47   H74   S    
Cu5   O24   S    
C72   H43   S    
C47   C51   S    
C73   H47   S    
C3    H15   S    
C25   C26   S    
C40   C52   S    
Cu5   O3    S    
C71   H37   S    
C11   C21   S    
C38   O22   A    
C60   C61   S    
C68   H19   S    
C28   O16   A    
C54   H83   S    
C84   H87   S    
C5    C9    S    
C29   C30   S    
C70   H32   S    
Cu4   O12   S    
C14   C38   S    
C72   H42   S    
C31   C32   S    
C27   H78   S    
C73   H44   S    
C2    H12   S    
C10   C19   S    
C23   C34   S    
C40   H45   S    
C50   C51   S    
C52   H1    S    
C43   O9    A    
C36   O18   A    
Cu2   O16   S    
C57   C61   S    
C51   C82   S    
C37   O21   A    
C37   C59   S    
C29   H89   S    
C42   C50   S    
C70   H33   S    
C53   H73   S    
C48   C49   S    
C74   H49   S    
Cu6   O5    S    
C40   C65   S    
C83   H81   S    
C23   C83   S    
C53   H7    S    
C71   H36   S    
Cu6   O9    S    
C25   H39   S    
C16   O13   A    
C32   C73   S    
C26   H40   S    
C8    H28   S    
C65   H91   S    
C25   C30   S    
Cu2   O4    S    
C62   C84   S    
C54   C55   S    
C11   C17   S    
C61   H92   S    
C27   C32   S    
C3    C6    S    
C28   O15   A    
C64   C78   T    
C54   H79   S    
C66   H16   S    
C12   C45   S    
C6    C86   S    
C79   H65   S    
Cu4   O21   S    
C61   H10   S    
C3    H27   S    
C15   C17   S    
Cu3   O22   S    
C58   H11   S    
C81   H72   S    
C57   H9    S    
C12   C65   S    
C46   C50   S    
C17   C22   S    
C47   H5    S    
Cu5   O6    S    
Cu2   O14   S    
C23   C65   S    
C84   H90   S    
C62   H86   S    
C58   C59   S    
C68   H21   S    
C34   C78   S    
C71   H38   S    
Cu5   O8    S    
C48   C80   S    
C72   H41   S    
C5    C6    S    
C76   H57   S    
C39   C60   S    
C69   H25   S    
C37   O20   A    
C2    H14   S    
C39   O24   A    
C2    C86   S    
C58   H85   S    
C18   C20   S    
C7    C41   S    
C66   H17   S    
C42   O7    A    
C80   H69   S    
C80   H68   S    
C10   C11   S    
C79   H63   S    
Cu4   O19   S    
C1    O4    A    
C7    C9    S    
C46   H4    S    
C20   C21   S    
C66   H18   S    
C83   H82   S    
Cu4   O23   S    
C43   O8    A    
C45   H62   S    
Cu1   O10   S    
C44   C76   S    
Cu3   Cu4   S    
C36   C64   S    
C36   O19   A    
C86   H96   S    
C52   C56   S    
C1    O1    A    
