data_mof_unit_21605.cif
_audit_creation_date              2013-03-05T15:45:11-0500
_audit_creation_method            fapswitch 2.2
_symmetry_space_group_name_H-M    P1
_symmetry_Int_Tables_number       1
_space_group_crystal_system       triclinic
_cell_length_a                    10.862292
_cell_length_b                    11.053399
_cell_length_c                    9.849941
_cell_angle_alpha                 111.622181
_cell_angle_beta                  99.060282
_cell_angle_gamma                 91.140813
_cell_volume                      1081.78149481

loop_
_atom_site_label
_atom_site_type_symbol
_atom_site_description
_atom_site_fract_x
_atom_site_fract_y
_atom_site_fract_z
_atom_type_partial_charge
O1    O     O_R   0.511700 0.332330 0.577400 -0.586616
O2    O     O_R   0.474680 0.295500 0.332650 -0.552620
C1    C     C_R   0.490684 0.253760 0.439882 0.868037
O3    O     O_R   0.338160 0.518420 0.622400 -0.616740
O4    O     O_R   0.301140 0.481590 0.377650 -0.508715
C2    C     C_R   0.263612 0.514320 0.503646 0.832211
Cu1   Cu    Cu3+1 0.521920 0.521810 0.644910 0.980660
Cu2   Cu    Cu3+1 0.478080 0.478190 0.355090 1.016644
O5    O     O_R   0.525320 0.704500 0.667350 -0.585537
O6    O     O_R   0.488300 0.667670 0.422600 -0.593265
O7    O     O_R   0.698860 0.518410 0.622350 -0.591725
O8    O     O_R   0.661840 0.481580 0.377600 -0.579609
C3    C     C_R   0.508711 0.746449 0.560431 0.750155
C4    C     C_R   0.738073 0.494074 0.499602 0.815437
C5    C     C_R   0.162372 0.632982 0.783423 -0.141432
H1    H     H_    0.251500 0.683674 0.793366 0.173641
C6    C     C_R   0.122755 0.642253 0.914247 -0.128883
H2    H     H_    0.182561 0.694096 0.020272 0.177238
C7    C     C_R   0.008072 0.580864 0.907679 -0.068040
H3    H     H_    0.978866 0.582055 0.007987 0.212145
C8    C     C_R   0.928581 0.520387 0.771908 -0.131675
H4    H     H_    0.844828 0.467544 0.773737 0.206445
C9    C     C_R   0.960648 0.524799 0.639537 0.077207
C10   C     C_R   0.085878 0.563872 0.643671 0.057206
C11   C     C_R   0.130256 0.532748 0.508182 -0.231824
C12   C     C_R   0.043513 0.500601 0.374284 0.349505
H5    H     H_    0.851969 0.463663 0.272018 0.205447
C13   C     C_R   0.917025 0.483314 0.374624 -0.256449
C14   C     C_R   0.873744 0.493997 0.504330 -0.175840
H6    H     H_    0.490567 0.865056 0.372165 0.164454
H7    H     H_    0.493439 0.138238 0.627969 0.224707
C15   C     C_2   0.488605 0.114032 0.405644 -0.354867
C16   C     C_2   0.494107 0.070461 0.515569 -0.086336
C17   C     C_2   0.513780 0.887231 0.597499 0.190380
C18   C     C_2   0.500580 0.932173 0.487158 -0.259555
H8    H     H_    0.485528 0.047265 0.291673 0.173737
H9    H     H_    0.404879 0.431311 0.849227 0.103495
H10   H     H_    0.589725 0.576267 0.156794 0.192750
N1    N     N_2   0.445130 0.445430 0.137370 -0.279374
C19   C     C_2   0.512909 0.508192 0.082238 -0.025971
N2    N     N_2   0.554930 0.554500 0.862630 -0.023824
C20   C     C_2   0.487140 0.492918 0.919851 0.106443
H11   H     H_    0.371402 0.382761 0.065240 0.227320
N3    N     N_R   0.081031 0.492575 0.238221 0.123077
O9    O     O_R   0.035136 0.396250 0.114849 -0.370732
O10   O     O_R   0.145277 0.591350 0.233906 -0.399395
O11   O     O_3   0.666417 0.610089 0.948238 -0.530160
C21   C     C_3   0.682604 0.737113 0.949511 0.213620
H12   H     H_    0.592910 0.784487 0.949598 0.184747
H13   H     H_    0.724673 0.734408 0.852895 0.185502
C22   C     C_3   0.771402 0.821320 0.090427 -0.840168
H14   H     H_    0.863335 0.779676 0.095365 0.252864
H15   H     H_    0.785575 0.921682 0.092062 0.242095
H16   H     H_    0.731382 0.826474 0.189340 0.243698
N4    N     N_R   0.532526 0.973990 0.751036 0.110143
O12   O     O_R   0.465734 0.953260 0.840215 -0.383827
O13   O     O_R   0.627116 0.062153 0.805825 -0.357833

loop_
_geom_bond_atom_site_label_1
_geom_bond_atom_site_label_2
_geom_bond_distance
_ccdc_geom_bond_type
O1    C1    1.291858 A    
O4    Cu2   1.968757 S    
Cu1   O7    1.968757 S    
N4    O12   1.301115 A    
H7    C16   1.085601 S    
Cu2   N1    2.009735 S    
N2    C20   1.310234 D    
C7    H3    1.079953 S    
C12   C13   1.384103 A    
O11   C21   1.406742 S    
Cu2   O8    1.971374 S    
C22   H16   1.111273 S    
C15   C16   1.331520 D    
H5    C13   1.084043 S    
C19   C20   1.524254 S    
C6    H2    1.082361 S    
N2    O11   1.349827 S    
C12   N3    1.433855 S    
C17   N4    1.440363 S    
C8    H4    1.077447 S    
C10   C11   1.415146 A    
H10   C19   1.084666 S    
C13   C14   1.395498 A    
O4    C2    1.292900 A    
H6    C18   1.088054 S    
O3    Cu1   1.971374 S    
C15   H8    1.087491 S    
C21   H13   1.109916 S    
C5    C10   1.417169 A    
C7    C8    1.391184 A    
O8    C4    1.307137 A    
O2    C1    1.289650 A    
Cu1   O5    1.947690 S    
N4    O13   1.301737 A    
C8    C9    1.418780 A    
C1    C15   1.453270 S    
C16   C18   1.454293 S    
O7    C4    1.281677 A    
O3    C2    1.298909 A    
Cu1   Cu2   2.675250 S    
C9    C10   1.408818 A    
C5    H1    1.081161 S    
C2    C11   1.472139 S    
C9    C14   1.427502 A    
C3    C17   1.459239 S    
N3    O9    1.301314 A    
Cu2   O6    1.944767 S    
C17   C18   1.341727 D    
H9    C20   1.084877 S    
C5    C6    1.391140 A    
O5    C3    1.288423 A    
N1    C19   1.304388 D    
C21   H12   1.115198 S    
N1    H11   1.030533 S    
C4    C14   1.467106 S    
C6    C7    1.387467 A    
C11   C12   1.415429 A    
O1    Cu1   1.944767 S    
C21   C22   1.521112 S    
O2    Cu2   1.947690 S    
C22   H14   1.109478 S    
Cu1   N2    2.009907 S    
N3    O10   1.301555 A    
C22   H15   1.110794 S    
O6    C3    1.294931 A    
