data_mof_unit_12040.cif
_audit_creation_date              2013-03-05T16:30:50-0500
_audit_creation_method            fapswitch 2.2
_symmetry_space_group_name_H-M    P1
_symmetry_Int_Tables_number       1
_space_group_crystal_system       triclinic
_cell_length_a                    10.926516
_cell_length_b                    10.911803
_cell_length_c                    9.5476
_cell_angle_alpha                 90.682733
_cell_angle_beta                  100.243172
_cell_angle_gamma                 91.86727
_cell_volume                      1119.42180598

loop_
_atom_site_label
_atom_site_type_symbol
_atom_site_description
_atom_site_fract_x
_atom_site_fract_y
_atom_site_fract_z
_atom_type_partial_charge
O1    O     O_R   0.500000 0.319640 0.618810 -0.566219
O2    O     O_R   0.500010 0.319680 0.381230 -0.574262
C1    C     C_R   0.496185 0.262366 0.498485 0.813140
O3    O     O_R   0.320680 0.500000 0.575130 -0.577772
O4    O     O_R   0.320690 0.500040 0.337550 -0.571989
C2    C     C_R   0.262531 0.492379 0.444512 0.831996
Cu1   Cu    Cu3+1 0.499990 0.499980 0.640670 0.996924
Cu2   Cu    Cu3+1 0.500010 0.500020 0.359330 1.011907
O5    O     O_R   0.499990 0.680320 0.618770 -0.587761
O6    O     O_R   0.500000 0.680360 0.381190 -0.579432
O7    O     O_R   0.679310 0.499960 0.662450 -0.558268
O8    O     O_R   0.679320 0.500000 0.424870 -0.539775
C3    C     C_R   0.497759 0.738003 0.499898 0.835516
C4    C     C_R   0.737230 0.492990 0.554362 0.893668
C5    C     C_2   0.126624 0.484540 0.417161 -0.029604
C6    C     C_2   0.061563 0.415444 0.497187 0.060230
C7    C     C_2   0.872284 0.478808 0.574803 -0.343341
C8    C     C_2   0.925780 0.418234 0.478192 0.206751
C9    C     C_R   0.465865 0.065092 0.615311 0.142386
C10   C     C_R   0.481784 0.129318 0.493842 -0.129473
C11   C     C_R   0.479965 0.062638 0.366449 -0.147507
C12   C     C_R   0.480804 0.934472 0.367432 -0.150810
C13   C     C_R   0.485135 0.871237 0.496004 -0.094507
C14   C     C_R   0.469222 0.938611 0.616373 0.091216
C15   C     C_3   0.541338 0.940023 0.764065 -0.501335
C16   C     C_3   0.536054 0.077917 0.764363 0.019117
C17   C     C_R   0.595079 0.557298 0.094889 0.239077
N1    N     N_R   0.500780 0.500930 0.148120 -0.212738
C18   C     C_R   0.406676 0.443469 0.054493 -0.020932
C19   C     C_R   0.405354 0.446273 0.905927 -0.020087
H1    H     H_    0.327877 0.404408 0.834515 0.188532
N2    N     N_R   0.500790 0.500890 0.852210 -0.214577
C20   C     C_R   0.599075 0.551046 0.947245 0.210411
C21   C     C_3   0.638271 0.682115 0.945736 -0.097443
C22   C     C_3   0.618269 0.693064 0.098319 -0.067485
H2    H     H_    0.568360 0.728706 0.871593 0.144434
I1    I     I_    0.826348 0.302475 0.310592 -0.223498
H3    H     H_    0.628769 0.125340 0.771996 0.164804
H4    H     H_    0.330805 0.397232 0.093650 0.173554
I2    I     I_    0.823629 0.705654 0.901747 -0.241484
I3    I     I_    0.765228 0.764038 0.260961 -0.210863
H5    H     H_    0.530909 0.740935 0.103795 0.117303
I4    I     I_    0.141277 0.274602 0.631548 -0.299499
H6    H     H_    0.929956 0.521598 0.668164 0.174299
I5    I     I_    0.041541 0.584021 0.239541 -0.215139
H7    H     H_    0.484488 0.109063 0.267813 0.201602
H8    H     H_    0.484356 0.886088 0.268922 0.175764
H9    H     H_    0.485238 0.898475 0.838419 0.219260
H10   H     H_    0.637345 0.907383 0.769639 0.215164
I6    I     I_    0.424783 0.137313 0.913728 -0.351259

loop_
_geom_bond_atom_site_label_1
_geom_bond_atom_site_label_2
_geom_bond_distance
_ccdc_geom_bond_type
O4    Cu2   1.933232 S    
C19   N2    1.364769 A    
C13   C14   1.396688 A    
C9    C16   1.494336 S    
C18   C19   1.416658 A    
C21   C22   1.514965 S    
C6    I4    2.122032 S    
C9    C10   1.396269 A    
C15   H9    1.108855 S    
Cu2   O8    1.947862 S    
N2    C20   1.370922 A    
C18   H4    1.081224 S    
C7    C8    1.353432 D    
C15   C16   1.507643 S    
C7    H6    1.086639 S    
C1    C10   1.454489 S    
C17   C20   1.418966 A    
C11   C12   1.398976 A    
C14   C15   1.487636 S    
Cu1   O7    1.933234 S    
C4    C7    1.467253 S    
C19   H1    1.073455 S    
O3    Cu1   1.947861 S    
C21   I2    2.148355 S    
O3    C2    1.295420 A    
N1    C18   1.366456 A    
C8    I1    2.140230 S    
O8    C4    1.289165 A    
C9    C14   1.381931 A    
C21   H2    1.088420 S    
C16   I6    2.139600 S    
O4    C2    1.297344 A    
C22   I3    2.143135 S    
O7    C4    1.305688 A    
C12   H8    1.080435 S    
C5    I5    2.113638 S    
C5    C6    1.352614 D    
Cu1   Cu2   2.686167 S    
C20   C21   1.480488 S    
C10   C11   1.406612 A    
C3    C13   1.465104 S    
Cu2   N1    2.018202 S    
C6    C8    1.463680 S    
C11   H7    1.082688 S    
C17   N1    1.360385 A    
Cu1   O5    1.981389 S    
C22   H5    1.111909 S    
O5    C3    1.301171 A    
C12   C13   1.409570 A    
C16   H3    1.112674 S    
O2    C1    1.295288 A    
Cu1   N2    2.018067 S    
C17   C22   1.493780 S    
C2    C5    1.460818 S    
O1    Cu1   1.976403 S    
O6    C3    1.294087 A    
Cu2   O6    1.976404 S    
O2    Cu2   1.981388 S    
O1    C1    1.294701 A    
C15   H10   1.111339 S    
