data_mof_unit_34530.cif
_audit_creation_date              2012-12-10T20:52:58-0500
_audit_creation_method            fapswitch 2.2
_symmetry_space_group_name_H-M    P1
_symmetry_Int_Tables_number       1
_space_group_crystal_system       triclinic
_cell_length_a                    18.360752
_cell_length_b                    18.367274
_cell_length_c                    18.368749
_cell_angle_alpha                 59.845974
_cell_angle_beta                  59.819378
_cell_angle_gamma                 59.810177
_cell_volume                      4362.87669743

loop_
_atom_site_label
_atom_site_type_symbol
_atom_type_description
_atom_site_fract_x
_atom_site_fract_y
_atom_site_fract_z
_atom_type_partial_charge
C1    C     C_R   0.390181 0.108484 0.111794 0.503985
C2    C     C_R   0.380383 0.805664 0.780437 -0.100279
C3    C     C_R   0.037202 0.538283 0.906391 -0.006962
C4    C     C_R   0.469630 0.094339 0.962194 -0.006117
C5    C     C_R   0.530388 0.905659 0.037806 -0.006117
C6    C     C_R   0.948086 0.943799 0.553586 0.010146
C7    C     C_R   0.051904 0.056207 0.446415 0.010141
C8    C     C_R   0.943819 0.553540 0.948064 0.010428
C9    C     C_R   0.056164 0.446466 0.051956 0.010436
C10   C     C_R   0.552326 0.948089 0.943829 0.010811
C11   C     C_R   0.447676 0.051908 0.056172 0.010809
C12   C     C_R   0.194155 0.220364 0.618759 -0.099895
C13   C     C_R   0.805848 0.779654 0.381220 -0.099902
C14   C     C_R   0.178094 0.577514 0.284712 -0.068496
C15   C     C_R   0.821901 0.422487 0.715285 -0.068502
C16   C     C_R   0.578220 0.284426 0.177323 -0.068473
C17   C     C_R   0.421785 0.715578 0.822676 -0.068466
C18   C     C_R   0.284263 0.177986 0.577353 -0.067684
C19   C     C_R   0.715738 0.822029 0.422627 -0.067699
C20   C     C_R   0.088347 0.585246 0.314650 0.058159
C21   C     C_R   0.609819 0.891516 0.888205 0.503982
C22   C     C_R   0.911649 0.414755 0.685350 0.058157
C23   C     C_R   0.585531 0.314484 0.087750 0.058003
C24   C     C_R   0.414469 0.685517 0.912251 0.058005
C25   C     C_R   0.314410 0.088159 0.585337 0.058178
C26   C     C_R   0.685591 0.911850 0.414660 0.058175
C27   C     C_R   0.041529 0.634831 0.253913 -0.080021
C28   C     C_R   0.958464 0.365171 0.746089 -0.080017
C29   C     C_R   0.634668 0.253766 0.040918 -0.080186
C30   C     C_R   0.365324 0.746231 0.959087 -0.080191
C31   C     C_R   0.253759 0.041217 0.635176 -0.080414
C32   C     C_R   0.108583 0.111708 0.390002 0.502959
C33   C     C_R   0.746244 0.958790 0.364838 -0.080403
C34   C     C_R   0.084099 0.676295 0.164087 -0.103095
C35   C     C_R   0.915892 0.323708 0.835914 -0.103092
C36   C     C_R   0.676106 0.163838 0.083312 -0.102872
C37   C     C_R   0.323883 0.836159 0.916696 -0.102876
C38   C     C_R   0.163809 0.083752 0.676601 -0.103147
C39   C     C_R   0.836195 0.916257 0.323412 -0.103140
C40   C     C_R   0.173489 0.668354 0.134508 -0.099745
C41   C     C_R   0.826502 0.331649 0.865491 -0.099743
C42   C     C_R   0.668573 0.134138 0.172538 -0.099634
C43   C     C_R   0.891409 0.888299 0.609997 0.502959
C44   C     C_R   0.331422 0.865863 0.827467 -0.099637
C45   C     C_R   0.134019 0.173229 0.668377 -0.099701
C46   C     C_R   0.865984 0.826786 0.331619 -0.099701
C47   C     C_R   0.988299 0.590988 0.464709 -0.161226
C48   C     C_R   0.011699 0.409012 0.535291 -0.161231
C49   C     C_R   0.591110 0.464629 0.988055 -0.161365
C50   C     C_R   0.408890 0.535371 0.011944 -0.161370
C51   C     C_R   0.464543 0.988073 0.591063 -0.160827
C52   C     C_R   0.535457 0.011931 0.408936 -0.160826
C53   C     C_R   0.944537 0.552445 0.555105 0.017686
C54   C     C_R   0.111642 0.390009 0.108650 0.503780
C55   C     C_R   0.055462 0.447555 0.444895 0.017684
C56   C     C_R   0.552417 0.555114 0.944599 0.017383
C57   C     C_R   0.447583 0.444886 0.055400 0.017381
C58   C     C_R   0.555065 0.944469 0.552473 0.017661
C59   C     C_R   0.444935 0.055535 0.447526 0.017661
C60   C     C_R   0.956281 0.460210 0.590885 -0.037623
C61   C     C_R   0.043717 0.539790 0.409114 -0.037622
C62   C     C_R   0.460056 0.590971 0.956602 -0.037774
C63   C     C_R   0.539944 0.409029 0.043398 -0.037774
C64   C     C_R   0.591007 0.956415 0.460163 -0.037384
C65   C     C_R   0.888342 0.609992 0.891367 0.503771
C66   C     C_R   0.408994 0.043591 0.539836 -0.037383
C67   C     C_R   0.110833 0.390424 0.389746 0.502982
C68   C     C_R   0.889166 0.609576 0.610254 0.502989
C69   C     C_R   0.390448 0.389748 0.110791 0.502665
C70   C     C_R   0.609552 0.610252 0.889209 0.502668
C71   C     C_R   0.389779 0.110854 0.390410 0.503278
C72   C     C_R   0.610221 0.889147 0.609590 0.503277
C73   C     C_R   0.187034 0.926782 0.419749 -0.094482
C74   C     C_R   0.812947 0.073229 0.580212 -0.094482
C75   C     C_R   0.925956 0.424028 0.187575 -0.095011
C76   C     C_R   0.220511 0.618956 0.194723 -0.100234
C77   C     C_R   0.074008 0.576119 0.812469 -0.095015
C78   C     C_R   0.441124 0.188881 0.924731 -0.094540
C79   C     C_R   0.558925 0.811116 0.075267 -0.094538
C80   C     C_R   0.229256 0.836400 0.431568 -0.136455
C81   C     C_R   0.770726 0.163614 0.568379 -0.136444
C82   C     C_R   0.835177 0.437838 0.229975 -0.136651
C83   C     C_R   0.164780 0.562354 0.770070 -0.136670
C84   C     C_R   0.460296 0.231947 0.833372 -0.136029
C85   C     C_R   0.539762 0.768051 0.166625 -0.136030
C86   C     C_R   0.179983 0.779359 0.483690 -0.113921
C87   C     C_R   0.779482 0.381046 0.805273 -0.100235
C88   C     C_R   0.820002 0.220652 0.516278 -0.113902
C89   C     C_R   0.778180 0.489770 0.180622 -0.111965
C90   C     C_R   0.221789 0.510348 0.819413 -0.111966
C91   C     C_R   0.507337 0.182588 0.776664 -0.113186
C92   C     C_R   0.492693 0.817409 0.223335 -0.113197
C93   C     C_R   0.087618 0.811511 0.525003 0.035234
C94   C     C_R   0.912371 0.188496 0.474992 0.035247
C95   C     C_R   0.810766 0.528956 0.088002 0.036863
C96   C     C_R   0.189214 0.471069 0.912020 0.036889
C97   C     C_R   0.537258 0.089300 0.810056 0.033862
C98   C     C_R   0.619620 0.194340 0.219564 -0.100281
C99   C     C_R   0.462745 0.910698 0.189946 0.033855
C100  C     C_R   0.041783 0.905384 0.513554 0.009126
C101  C     C_R   0.958205 0.094623 0.486443 0.009124
C102  C     C_R   0.904992 0.515585 0.042019 0.009089
C103  C     C_R   0.094988 0.484433 0.958004 0.009093
C104  C     C_R   0.520714 0.042732 0.904536 0.009113
C105  C     C_R   0.479291 0.957266 0.095466 0.009113
C106  C     C_R   0.093346 0.963206 0.459630 -0.006903
C107  C     C_R   0.906641 0.036803 0.540358 -0.006903
C108  C     C_R   0.962775 0.461769 0.093638 -0.006959
Cl1   Cl    Cl    0.038673 0.726716 0.589051 -0.094225
Cl2   Cl    Cl    0.961319 0.273285 0.410973 -0.094225
Cl3   Cl    Cl    0.726132 0.592799 0.038815 -0.093597
Cl4   Cl    Cl    0.273865 0.407115 0.961196 -0.093591
Cl5   Cl    Cl    0.590162 0.039863 0.726824 -0.094385
Cl6   Cl    Cl    0.409805 0.960138 0.273182 -0.094394
H1    H     H_    0.785588 0.291187 0.507656 0.107064
H2    H     H_    0.338504 0.562991 0.019738 0.144200
H3    H     H_    0.436870 0.980306 0.661405 0.144199
H4    H     H_    0.563130 0.019698 0.338593 0.144198
H5    H     H_    0.229308 0.967696 0.378955 0.128988
H6    H     H_    0.770671 0.032316 0.620989 0.128961
H7    H     H_    0.966861 0.383400 0.229893 0.127656
H8    H     H_    0.033099 0.616807 0.770155 0.127727
H9    H     H_    0.404019 0.231036 0.965607 0.125489
H10   H     H_    0.596055 0.768960 0.034389 0.125487
H11   H     H_    0.300882 0.810365 0.400224 0.112486
H12   H     H_    0.214396 0.708824 0.492305 0.107075
H13   H     H_    0.699095 0.189655 0.599694 0.112474
H14   H     H_    0.808823 0.408120 0.301796 0.113940
H15   H     H_    0.191120 0.592164 0.698260 0.113965
H16   H     H_    0.437652 0.304250 0.806443 0.111565
H17   H     H_    0.562434 0.695747 0.193551 0.111560
H18   H     H_    0.206217 0.700291 0.064875 0.108168
H19   H     H_    0.793772 0.299713 0.935124 0.108168
H20   H     H_    0.700474 0.064426 0.205147 0.108069
H21   H     H_    0.299519 0.935575 0.794861 0.108067
H22   H     H_    0.064287 0.205936 0.700264 0.108174
H23   H     H_    0.292608 0.500272 0.784888 0.106683
H24   H     H_    0.935717 0.794081 0.299731 0.108176
H25   H     H_    0.289868 0.612471 0.171660 0.098946
H26   H     H_    0.710126 0.387530 0.828334 0.098945
H27   H     H_    0.613426 0.171195 0.288796 0.099025
H28   H     H_    0.386583 0.828812 0.711203 0.099023
H29   H     H_    0.170937 0.289781 0.612061 0.099305
H30   H     H_    0.829065 0.710241 0.387905 0.099299
H31   H     H_    0.215096 0.538981 0.330837 0.090488
H32   H     H_    0.784902 0.461020 0.669158 0.090486
H33   H     H_    0.540007 0.330531 0.214342 0.090631
H34   H     H_    0.707359 0.499866 0.215150 0.106676
H35   H     H_    0.460005 0.669476 0.785652 0.090623
H36   H     H_    0.330316 0.215085 0.538625 0.090932
H37   H     H_    0.669685 0.784931 0.461341 0.090936
H38   H     H_    0.972507 0.640636 0.276019 0.097494
H39   H     H_    0.027486 0.359366 0.723985 0.097500
H40   H     H_    0.640123 0.275964 0.972038 0.097034
H41   H     H_    0.359865 0.724031 0.027969 0.097035
H42   H     H_    0.276014 0.972138 0.641170 0.097265
H43   H     H_    0.723988 0.027864 0.358857 0.097268
H44   H     H_    0.047893 0.714315 0.117347 0.110848
H45   H     H_    0.479903 0.782410 0.294426 0.104926
H46   H     H_    0.952096 0.285689 0.882656 0.110848
H47   H     H_    0.713773 0.117110 0.047102 0.110883
H48   H     H_    0.286209 0.882884 0.952910 0.110883
H49   H     H_    0.117132 0.047455 0.714795 0.110843
H50   H     H_    0.882873 0.952552 0.285231 0.110846
H51   H     H_    0.520128 0.217589 0.705573 0.104923
H52   H     H_    0.980697 0.661275 0.437161 0.144261
H53   H     H_    0.019300 0.338725 0.562839 0.144261
H54   H     H_    0.661496 0.437009 0.980262 0.144204
O1    O     O_3   0.250000 0.250000 0.250000 -0.445654
O2    O     O_R   0.865800 0.694910 0.573470 -0.544026
O3    O     O_R   0.305090 0.426530 0.134200 -0.543951
O4    O     O_R   0.694910 0.573470 0.865800 -0.543951
O5    O     O_R   0.426530 0.134200 0.305090 -0.543905
O6    O     O_R   0.573470 0.865800 0.694910 -0.543906
O7    O     O_R   0.134190 0.426530 0.134200 -0.534428
O8    O     O_R   0.865810 0.573470 0.865800 -0.534398
O9    O     O_R   0.426530 0.134200 0.134190 -0.536425
O10   O     O_R   0.573470 0.865800 0.865810 -0.536416
O11   O     O_R   0.134200 0.134190 0.426530 -0.533556
O12   O     O_3   0.750000 0.750000 0.750000 -0.445654
O13   O     O_R   0.865800 0.865810 0.573470 -0.533563
O14   O     O_R   0.426530 0.305080 0.134210 -0.532466
O15   O     O_R   0.573470 0.694920 0.865790 -0.532464
O16   O     O_R   0.305080 0.134210 0.426530 -0.531751
O17   O     O_R   0.694920 0.865790 0.573470 -0.531754
O18   O     O_R   0.134210 0.426530 0.305080 -0.531918
O19   O     O_R   0.865790 0.573470 0.694920 -0.531911
O20   O     O_R   0.305080 0.134200 0.134200 -0.534784
O21   O     O_R   0.694920 0.865800 0.865800 -0.534795
O22   O     O_R   0.134200 0.134200 0.305080 -0.538553
O23   O     O_R   0.865800 0.865800 0.694920 -0.538551
O24   O     O_R   0.134200 0.305080 0.134200 -0.536620
O25   O     O_R   0.865800 0.694920 0.865800 -0.536666
O26   O     O_R   0.134200 0.305090 0.426530 -0.544029
Zn1   Zn    Zn3+2 0.206620 0.206630 0.380140 0.942263
Zn2   Zn    Zn3+2 0.793380 0.793370 0.619860 0.942262
Zn3   Zn    Zn3+2 0.206630 0.380140 0.206620 0.941928
Zn4   Zn    Zn3+2 0.793370 0.619860 0.793380 0.941942
Zn5   Zn    Zn3+2 0.380140 0.206620 0.206630 0.941140
Zn6   Zn    Zn3+2 0.619860 0.793380 0.793370 0.941142
Zn7   Zn    Zn3+2 0.206620 0.206620 0.206620 0.946245
Zn8   Zn    Zn3+2 0.793380 0.793380 0.793380 0.946222

loop_
_geom_bond_atom_site_label_1
_geom_bond_atom_site_label_2
_ccdc_geom_bond_type
C25   C31   A    
C89   H34   S    
C101  C107  A    
C27   H38   S    
C73   H5    S    
C86   H12   S    
C36   C42   A    
C1    C11   S    
C75   C82   A    
C87   H26   S    
C58   C72   S    
C99   Cl6   S    
C41   H19   S    
C31   H42   S    
O1    Zn1   S    
O11   Zn1   S    
C9    C108  A    
C96   Cl4   S    
C29   C36   A    
C33   C39   A    
C82   C89   A    
C54   O24   A    
C92   H45   S    
C34   C40   A    
C23   C29   A    
O1    Zn3   S    
C86   C93   A    
C83   H15   S    
O12   Zn8   S    
C42   C98   A    
C59   C66   A    
C22   C60   S    
C13   C46   A    
C1    O20   A    
O5    Zn5   S    
C80   H11   S    
C77   C83   A    
C4    C104  A    
O20   Zn7   S    
C69   O3    A    
C13   H30   S    
C20   C61   S    
C19   C26   A    
C53   C68   S    
C70   O4    A    
C35   H46   S    
O7    Zn3   S    
C38   C45   A    
C80   C86   A    
C77   H8    S    
C74   C107  A    
C25   C66   S    
C68   O2    A    
C85   C92   A    
C15   C22   A    
C94   C101  A    
C2    C44   A    
C11   C105  A    
C19   H37   S    
O24   Zn7   S    
O18   Zn3   S    
O4    Zn4   S    
O23   Zn8   S    
C72   O6    A    
C5    C79   A    
C67   O26   A    
C93   Cl1   S    
O12   Zn2   S    
C95   C102  A    
C9    C103  A    
C69   O14   A    
O1    Zn5   S    
C44   H21   S    
C23   C63   S    
O26   Zn1   S    
C40   H18   S    
C48   C55   A    
C43   O23   A    
C8    C65   S    
C27   C34   A    
C22   C28   A    
C81   H13   S    
C2    C17   A    
C18   C25   A    
C1    O9    A    
C12   H29   S    
C99   C105  A    
C53   C60   A    
C33   H43   S    
C48   C60   A    
C65   O25   A    
C49   C63   A    
C10   C21   S    
C58   C64   A    
C41   C87   A    
C88   C94   A    
C17   C24   A    
C13   C19   A    
O19   Zn4   S    
C97   C104  A    
C14   C20   A    
C71   O5    A    
C28   C35   A    
C49   H54   S    
C3    C8    A    
C52   C64   A    
C47   H52   S    
C5    C105  A    
C94   Cl2   S    
O25   Zn8   S    
C40   C76   A    
C30   C37   A    
C51   C66   A    
C6    C100  A    
C54   O7    A    
C89   C95   A    
C4    C78   A    
O12   Zn6   S    
C52   C59   A    
C26   C33   A    
C21   O21   A    
C14   H31   S    
C6    C107  A    
C7    C106  A    
C32   O22   A    
C32   O11   A    
C51   C58   A    
C91   C97   A    
C4    C11   A    
C102  C108  A    
C78   H9    S    
C93   C100  A    
C82   H14   S    
C39   C46   A    
C21   O10   A    
C34   H44   S    
C30   H41   S    
C84   C91   A    
C16   C23   A    
C56   C70   S    
C6    C43   S    
C16   H33   S    
C98   H27   S    
O9    Zn5   S    
C28   H39   S    
C2    H28   S    
C56   C62   A    
C74   C81   A    
C97   Cl5   S    
C3    C77   A    
C79   C85   A    
C90   H23   S    
C15   C87   A    
C76   H25   S    
C3    C103  A    
C83   C90   A    
O10   Zn6   S    
C38   H49   S    
C45   H22   S    
C24   C62   S    
C7    C32   S    
C14   C76   A    
C75   H7    S    
C50   C57   A    
C100  C106  A    
C71   O16   A    
C91   H51   S    
C17   H35   S    
O14   Zn5   S    
C57   C63   A    
O8    Zn4   S    
C12   C45   A    
C47   C61   A    
C15   H32   S    
C55   C67   S    
C67   O18   A    
O22   Zn7   S    
C90   C96   A    
C20   C27   A    
C26   C64   S    
O21   Zn8   S    
O13   Zn2   S    
O16   Zn1   S    
C74   H6    S    
C79   H10   S    
O6    Zn6   S    
O15   Zn6   S    
C31   C38   A    
C47   C53   A    
C42   H20   S    
C37   C44   A    
C10   C104  A    
C5    C10   A    
C65   O8    A    
C49   C56   A    
C95   Cl3   S    
C85   H17   S    
O2    Zn2   S    
C16   C98   A    
C73   C106  A    
C36   H47   S    
C48   H53   S    
C88   H1    S    
C50   C62   A    
C55   C61   A    
C84   H16   S    
C51   H3    S    
C73   C80   A    
C43   O13   A    
C50   H2    S    
C35   C41   A    
C24   C30   A    
C72   O17   A    
C81   C88   A    
O12   Zn4   S    
O1    Zn7   S    
C68   O19   A    
C78   C84   A    
C70   O15   A    
C75   C108  A    
O3    Zn3   S    
C7    C101  A    
C96   C103  A    
C12   C18   A    
C46   H24   S    
C29   H40   S    
C9    C54   S    
O17   Zn2   S    
C57   C69   S    
C39   H50   S    
C18   H36   S    
C8    C102  A    
C92   C99   A    
C59   C71   S    
C37   H48   S    
C52   H4    S    
