data_mof_unit_17363.cif
_audit_creation_date              2012-12-11T17:37:43-0500
_audit_creation_method            fapswitch 2.2
_symmetry_space_group_name_H-M    P1
_symmetry_Int_Tables_number       1
_space_group_crystal_system       triclinic
_cell_length_a                    12.941118
_cell_length_b                    12.977844
_cell_length_c                    15.326355
_cell_angle_alpha                 116.312629
_cell_angle_beta                  64.152082
_cell_angle_gamma                 97.002456
_cell_volume                      2068.35459425

loop_
_atom_site_label
_atom_site_type_symbol
_atom_type_description
_atom_site_fract_x
_atom_site_fract_y
_atom_site_fract_z
_atom_type_partial_charge
C1    C     C_R   0.000619 0.833049 0.053551 -0.119657
C2    C     C_R   0.674319 0.530904 0.322056 0.045656
C3    C     C_R   0.661945 0.460179 0.926288 0.167889
C4    C     C_R   0.072913 0.792913 0.301949 0.086155
C5    C     C_R   0.338030 0.516248 0.950702 -0.086412
C6    C     C_R   0.973918 0.179226 0.783101 -0.102628
C7    C     C_R   0.198742 0.509848 0.695832 -0.092289
C8    C     C_R   0.051927 0.255489 0.088632 -0.124782
C9    C     C_R   0.950530 0.171896 0.995191 -0.099718
C10   C     C_R   0.296909 0.597870 0.793816 -0.153809
C11   C     C_R   0.259426 0.416270 0.047962 -0.154013
C12   C     C_R   0.679572 0.463656 0.220164 -0.140878
C13   C     C_R   0.052705 0.278586 0.685109 -0.100081
C14   C     C_R   0.361758 0.434565 0.975198 0.160643
C15   C     C_R   0.039708 0.169538 0.680825 0.156519
C16   C     C_R   0.293141 0.570327 0.698193 0.050083
C17   C     C_R   0.007664 0.152027 0.045555 0.044647
C18   C     C_R   0.433366 0.708151 0.195698 -0.076335
C19   C     C_R   0.330100 0.763147 0.285710 -0.130309
C20   C     C_R   0.290034 0.872943 0.310688 0.067282
C21   C     C_R   0.353995 0.926816 0.244086 -0.188072
C22   C     C_R   0.458103 0.871679 0.153279 0.053551
C23   C     C_R   0.755030 0.520299 0.893376 -0.192722
C24   C     C_R   0.497201 0.762107 0.129773 -0.213749
C25   C     C_R   0.168810 0.021281 0.500478 -0.098035
C26   C     C_R   0.056865 0.065718 0.585664 0.010562
C27   C     C_R   0.956970 0.015202 0.576810 -0.017531
C28   C     C_R   0.967913 0.924758 0.482464 -0.247397
C29   C     C_R   0.075295 0.883450 0.396765 0.085099
C30   C     C_R   0.177284 0.928199 0.403281 -0.073786
C31   C     C_R   0.781898 0.006940 0.731207 -0.186965
C32   C     C_R   0.664941 0.037043 0.801418 -0.111462
C33   C     C_R   0.602262 0.115065 0.798698 -0.082033
C34   C     C_R   0.015016 0.698046 0.302147 -0.166961
C35   C     C_R   0.656904 0.164351 0.726888 -0.081618
C36   C     C_R   0.774531 0.136979 0.658706 -0.153825
C37   C     C_R   0.837586 0.057858 0.660356 0.142076
C38   C     C_R   0.856175 0.324697 0.380138 -0.118410
C39   C     C_R   0.753737 0.369132 0.394514 -0.109026
C40   C     C_R   0.699051 0.475891 0.481625 0.114226
C41   C     C_R   0.746766 0.535350 0.555577 -0.190145
C42   C     C_R   0.848402 0.489852 0.541477 -0.120311
C43   C     C_R   0.903413 0.384927 0.453505 -0.109053
C44   C     C_R   0.495411 0.543927 0.591819 -0.224779
C45   C     C_R   0.676210 0.422150 0.990908 -0.127047
C46   C     C_R   0.387894 0.578867 0.608629 0.061786
C47   C     C_R   0.373921 0.602581 0.533092 0.020712
C48   C     C_R   0.470793 0.586328 0.438395 -0.233154
C49   C     C_R   0.577440 0.547518 0.420773 0.070894
C50   C     C_R   0.590595 0.525191 0.497685 0.014934
C51   C     C_R   0.220422 0.589993 0.471529 -0.190703
C52   C     C_R   0.115633 0.630694 0.487267 -0.128972
C53   C     C_R   0.051399 0.727093 0.581804 -0.098143
C54   C     C_R   0.091386 0.782309 0.661373 -0.101946
C55   C     C_R   0.195873 0.741352 0.646331 -0.122702
C56   C     C_R   0.095752 0.799907 0.208626 -0.137443
C57   C     C_R   0.261441 0.644805 0.551048 0.118776
C58   C     C_2   0.475096 0.394575 0.948420 -0.226818
C59   C     C_2   0.567034 0.439285 0.897292 -0.217703
C60   C     C_2   0.833799 0.957357 0.087709 -0.210094
C61   C     C_2   0.817719 0.039021 0.185333 -0.146400
C62   C     C_R   0.783474 0.555683 0.314105 -0.112111
C63   C     C_R   0.901187 0.748063 0.955562 -0.149033
C64   C     C_R   0.913118 0.852592 0.031316 0.132135
H1    H     H_    0.029806 0.895275 0.111433 0.095104
H2    H     H_    0.943609 0.109795 0.805736 0.090413
H3    H     H_    0.089344 0.275226 0.144374 0.090567
H4    H     H_    0.893704 0.114400 0.965163 0.089934
H5    H     H_    0.353756 0.654330 0.824967 0.094345
H6    H     H_    0.249429 0.362066 0.087383 0.097305
H7    H     H_    0.094340 0.301403 0.618583 0.088426
H8    H     H_    0.463770 0.623365 0.176733 0.116685
H9    H     H_    0.280897 0.720031 0.335608 0.124680
H10   H     H_    0.609708 0.425928 0.199064 0.105713
H11   H     H_    0.321879 0.010845 0.262737 0.146775
H12   H     H_    0.890537 0.888148 0.474430 0.143569
H13   H     H_    0.828846 0.943284 0.731158 0.100402
H14   H     H_    0.622380 0.998074 0.856289 0.134326
H15   H     H_    0.511076 0.136171 0.851268 0.116158
H16   H     H_    0.607809 0.222447 0.722792 0.134224
H17   H     H_    0.815597 0.174200 0.602170 0.114433
H18   H     H_    0.982534 0.350195 0.442309 0.102639
H19   H     H_    0.777201 0.549124 0.831567 0.095878
H20   H     H_    0.899139 0.243582 0.312117 0.110054
H21   H     H_    0.705667 0.617357 0.623610 0.111189
H22   H     H_    0.884699 0.536138 0.598605 0.113831
H23   H     H_    0.504134 0.521882 0.649010 0.133136
H24   H     H_    0.463705 0.604691 0.378586 0.128841
H25   H     H_    0.269171 0.515258 0.397676 0.114840
H26   H     H_    0.084394 0.587216 0.426005 0.113148
H27   H     H_    0.970573 0.758698 0.593423 0.103508
H28   H     H_    0.041537 0.856999 0.734620 0.105433
H29   H     H_    0.991222 0.663617 0.360242 0.098048
H30   H     H_    0.226228 0.785581 0.708303 0.114085
H31   H     H_    0.478616 0.348773 0.991495 0.131473
H32   H     H_    0.564863 0.480972 0.850478 0.127662
H33   H     H_    0.781831 0.965866 0.051273 0.136527
H34   H     H_    0.630049 0.359289 0.018336 0.096932
H35   H     H_    0.147507 0.860315 0.180428 0.102076
H36   H     H_    0.837807 0.731729 0.923914 0.093816
H37   H     H_    0.396478 0.555292 0.900770 0.081753
N1    N     N_R   0.037320 0.720000 0.995830 -0.046871
N2    N     N_R   0.946240 0.290870 0.848020 -0.046508
N3    N     N_R   0.146160 0.501170 0.788610 -0.035458
N4    N     N_R   0.025750 0.332680 0.063570 -0.037452
N5    N     N_R   0.962680 0.280000 0.004170 -0.040635
N6    N     N_R   0.209230 0.553860 0.848010 -0.035201
N7    N     N_R   0.175100 0.482030 0.063570 -0.041087
N8    N     N_R   0.996810 0.351820 0.788610 -0.048519
N9    N     N_R   0.790770 0.446140 0.151990 -0.041684
N10   N     N_R   0.824900 0.517970 0.936430 -0.038725
N11   N     N_R   0.003190 0.648180 0.211390 -0.038059
N12   N     N_R   0.774330 0.457010 0.995830 -0.043996
N13   N     N_R   0.053760 0.709130 0.151980 -0.041760
N14   N     N_R   0.853840 0.498830 0.211390 -0.043002
N15   N     N_R   0.974250 0.667320 0.936430 -0.041924
N16   N     N_R   0.225670 0.542990 0.004170 -0.046203
Ni1   Ni    Ni4+2 0.130310 0.630310 0.000000 0.217916
Ni2   Ni    Ni4+2 0.869690 0.369690 0.000000 0.227224
Ni3   Ni    Ni4+2 0.985660 0.509480 0.863750 0.217957
Ni4   Ni    Ni4+2 0.014340 0.490520 0.136250 0.218383
H38   H     H_    0.166090 0.482925 0.635678 0.093997
H39   H     H_    0.577030 0.718281 0.060233 0.115915
C65   C     C_2   0.526493 0.926602 0.081784 0.466066
H40   H     H_    0.605552 0.881593 0.011177 -0.024662
O1    O     O_2   0.495690 0.022414 0.100576 -0.606838
C66   C     C_2   0.275773 0.067752 0.512463 0.496914
H41   H     H_    0.357875 0.046641 0.442288 0.032451
O2    O     O_2   0.274745 0.127451 0.600798 -0.578612
H42   H     H_    0.717732 0.321165 0.337384 0.124525
H43   H     H_    0.864104 0.034015 0.227835 0.124838
H44   H     H_    0.809276 0.604260 0.378409 0.108518

loop_
_geom_bond_atom_site_label_1
_geom_bond_atom_site_label_2
_ccdc_geom_bond_type
N14   Ni4   S    
C12   H10   S    
N5    Ni2   S    
C34   N11   A    
C41   C42   A    
C54   C55   A    
C52   H26   S    
C19   C20   A    
C34   H29   S    
N7    Ni4   S    
C2    C12   A    
C8    N4    A    
C12   N9    A    
C11   H6    S    
C20   C30   S    
C53   C54   A    
C28   C29   A    
C26   C27   A    
C63   H36   S    
C23   H19   S    
C18   C24   A    
C36   C37   A    
C45   H34   S    
C38   C39   A    
C11   C14   A    
C35   H16   S    
C18   C19   A    
C13   N8    A    
C6    C15   A    
N12   Ni2   S    
C3    C23   A    
C47   C48   A    
C53   H27   S    
C1    H1    S    
C48   H24   S    
C42   H22   S    
C44   H23   S    
N6    Ni1   S    
C4    C29   S    
N1    Ni1   S    
C21   C22   A    
C4    C56   A    
C10   N6    A    
C55   H30   S    
N11   N13   A    
C44   C46   A    
C31   H13   S    
C4    C34   A    
C18   H8    S    
C14   C58   S    
C5    H37   S    
C51   C52   A    
C62   H44   S    
C19   H9    S    
C60   H33   S    
C16   C46   S    
C39   C40   A    
C33   H15   S    
C15   C26   S    
C13   H7    S    
C25   C26   A    
C3    C45   A    
C24   H39   S    
C38   C43   A    
C31   C37   A    
C5    N16   A    
C60   C61   D    
C35   C36   A    
C58   H31   S    
C66   O2    D    
C54   H28   S    
C29   C30   A    
C2    C49   S    
C45   N12   A    
C47   C57   S    
C31   C32   A    
C36   H17   S    
N4    Ni4   S    
N10   N12   A    
C6    N2    A    
C5    C14   A    
N13   Ni1   S    
C51   C57   A    
C63   N15   A    
C9    C17   A    
C40   C41   A    
C7    N3    A    
C13   C15   A    
C7    C16   A    
C22   C24   A    
C42   C43   A    
C7    H38   S    
C66   H41   S    
C28   H12   S    
C1    C64   A    
C11   N7    A    
C41   H21   S    
C52   C53   A    
C9    N5    A    
C65   O1    D    
C44   C50   A    
C25   C30   A    
C46   C47   A    
C48   C49   A    
N11   Ni4   S    
C38   H20   S    
N7    N16   A    
N2    Ni2   S    
N9    Ni2   S    
C22   C65   S    
C39   H42   S    
C23   N10   A    
N4    N5    A    
C21   H11   S    
C8    C17   A    
N2    N8    A    
C60   C64   S    
C32   C33   A    
C55   C57   A    
C58   C59   D    
C9    H4    S    
C62   N14   A    
C10   C16   A    
N16   Ni1   S    
C51   H25   S    
C27   C37   S    
C40   C50   S    
C1    N1    A    
C33   C35   A    
C25   C66   S    
N1    N15   A    
C61   H43   S    
C32   H14   S    
C63   C64   A    
C10   H5    S    
N15   Ni3   S    
C6    H2    S    
C20   C21   A    
C8    H3    S    
C49   C50   A    
C59   H32   S    
C27   C28   A    
C43   H18   S    
C56   N13   A    
N10   Ni3   S    
C56   H35   S    
N9    N14   A    
N3    N6    A    
C2    C62   A    
N8    Ni3   S    
C65   H40   S    
N3    Ni3   S    
C3    C59   S    
