data_mof_unit_21851.cif
_audit_creation_date              2013-03-05T15:41:40-0500
_audit_creation_method            fapswitch 2.2
_symmetry_space_group_name_H-M    P1
_symmetry_Int_Tables_number       1
_space_group_crystal_system       triclinic
_cell_length_a                    17.19421
_cell_length_b                    8.713755
_cell_length_c                    7.510928
_cell_angle_alpha                 102.385624
_cell_angle_beta                  90.782577
_cell_angle_gamma                 94.529178
_cell_volume                      1095.16900231

loop_
_atom_site_label
_atom_site_type_symbol
_atom_site_description
_atom_site_fract_x
_atom_site_fract_y
_atom_site_fract_z
_atom_type_partial_charge
O1    O     O_R   0.505650 0.286040 0.618880 -0.543615
O2    O     O_R   0.494350 0.713960 0.381120 -0.543616
O3    O     O_R   0.490960 0.256910 0.309800 -0.523640
O4    O     O_R   0.509040 0.743090 0.690200 -0.523640
C1    C     C_R   0.496253 0.200588 0.455492 0.833404
C2    C     C_R   0.503747 0.799412 0.544508 0.833402
O5    O     O_R   0.394600 0.516230 0.672450 -0.526780
O6    O     O_R   0.605400 0.483770 0.327550 -0.526776
O7    O     O_R   0.379910 0.487100 0.363380 -0.561843
O8    O     O_R   0.620090 0.512900 0.636620 -0.561841
C3    C     C_R   0.351009 0.507198 0.525952 0.814468
C4    C     C_R   0.648992 0.492801 0.474048 0.814466
Cu1   Cu    Cu3+1 0.508700 0.517250 0.683000 1.198503
Cu2   Cu    Cu3+1 0.491300 0.482750 0.317000 1.198503
C5    C     C_R   0.267050 0.530370 0.541944 -0.115649
C6    C     C_R   0.732950 0.469636 0.458056 -0.115651
C7    C     C_R   0.228540 0.572573 0.395088 -0.164457
C8    C     C_R   0.771463 0.427445 0.604917 -0.164460
C9    C     C_R   0.149081 0.590811 0.398139 -0.155593
C10   C     C_R   0.850923 0.409214 0.601867 -0.155590
C11   C     C_R   0.106860 0.568193 0.548773 0.098415
C12   C     C_R   0.893142 0.431823 0.451227 0.098412
C13   C     C_R   0.144397 0.533743 0.699430 -0.205303
C14   C     C_R   0.855602 0.466260 0.300566 -0.205304
C15   C     C_R   0.224165 0.515024 0.697850 0.390929
C16   C     C_R   0.775834 0.484974 0.302145 0.390933
C17   C     C_2   0.021807 0.566396 0.542396 0.118507
C18   C     C_2   0.978195 0.433622 0.457599 0.118509
H1    H     H_    0.259853 0.591225 0.276639 0.241002
H2    H     H_    0.740151 0.408797 0.723370 0.241008
H3    H     H_    0.110958 0.516577 0.815973 0.163413
H4    H     H_    0.889040 0.483419 0.184018 0.163413
H5    H     H_    0.879950 0.381710 0.718748 0.161848
H6    H     H_    0.120055 0.618325 0.281262 0.161851
C19   C     C_2   0.483330 0.034445 0.438632 0.136618
C20   C     C_2   0.516670 0.965555 0.561368 0.136618
N1    N     N_2   0.478180 0.456750 0.041980 0.136402
N2    N     N_2   0.521820 0.543250 0.958020 0.136403
Cl1   Cl    Cl    0.735118 0.532801 0.107758 -0.563674
Cl2   Cl    Cl    0.264878 0.467182 0.892232 -0.563669
C21   C     C_3   0.014236 0.285287 0.366302 -0.827035
H7    H     H_    0.968442 0.189786 0.308131 0.243241
H8    H     H_    0.051225 0.308598 0.253430 0.242443
H9    H     H_    0.050310 0.243321 0.467119 0.243841
C22   C     C_3   0.985766 0.714735 0.633681 -0.827043
H10   H     H_    0.031561 0.810239 0.691842 0.243242
H11   H     H_    0.949691 0.756691 0.532860 0.243842
H12   H     H_    0.948778 0.691434 0.746558 0.242444
Cl3   Cl    Cl    0.411798 0.937209 0.270407 -0.503457
Cl4   Cl    Cl    0.588202 0.062791 0.729593 -0.503451
Cl5   Cl    Cl    0.422528 0.292801 0.922679 -0.331997
Cl6   Cl    Cl    0.577473 0.707199 0.077321 -0.332000

loop_
_geom_bond_atom_site_label_1
_geom_bond_atom_site_label_2
_geom_bond_distance
_ccdc_geom_bond_type
C19   Cl3   1.777883 S    
O7    Cu2   1.953215 S    
C14   H4    1.084213 S    
N1    N2    1.286990 D    
C8    H2    1.081250 S    
C21   H8    1.110263 S    
C21   H7    1.111098 S    
C19   C20   1.347628 D    
O6    C4    1.307567 A    
C17   C22   1.510901 S    
C2    C20   1.425170 S    
C13   C15   1.393870 A    
C11   C17   1.461290 S    
C20   Cl4   1.777883 S    
C15   Cl2   1.753472 S    
C12   C18   1.461276 S    
C22   H10   1.111102 S    
Cu2   N1    2.036563 S    
O5    C3    1.307563 A    
O7    C3    1.306596 A    
Cu1   N2    2.036563 S    
O2    C2    1.292338 A    
O3    Cu2   1.956571 S    
O8    C4    1.306601 A    
O1    C1    1.292338 A    
C10   H5    1.083699 S    
C1    C19   1.425169 S    
N2    Cl6   1.723671 S    
C6    C8    1.408156 A    
N1    Cl5   1.723670 S    
C9    C11   1.393349 A    
C14   C16   1.393859 A    
C8    C10   1.387778 A    
C22   H11   1.110672 S    
C11   C13   1.394092 A    
C6    C16   1.417051 A    
O2    Cu2   1.964719 S    
C21   H9    1.110684 S    
C12   C14   1.394100 A    
C16   Cl1   1.753470 S    
C5    C15   1.417045 A    
O1    Cu1   1.964719 S    
C18   C21   1.510904 S    
O5    Cu1   1.961617 S    
C7    H1    1.081249 S    
O4    C2    1.296654 A    
C22   H12   1.110250 S    
C17   C18   1.356592 D    
C5    C7    1.408151 A    
O6    Cu2   1.961620 S    
C7    C9    1.387790 A    
Cu1   Cu2   2.710295 S    
C3    C5    1.476329 S    
C9    H6    1.083693 S    
C4    C6    1.476314 S    
O4    Cu1   1.956571 S    
C10   C12   1.393360 A    
O3    C1    1.296654 A    
O8    Cu1   1.953215 S    
C13   H3    1.084211 S    
