data_mof_unit_18159.cif
_audit_creation_date              2012-12-10T18:06:48-0500
_audit_creation_method            fapswitch 2.2
_symmetry_space_group_name_H-M    P1
_symmetry_Int_Tables_number       1
_space_group_crystal_system       triclinic
_cell_length_a                    12.556255
_cell_length_b                    13.125233
_cell_length_c                    15.575702
_cell_angle_alpha                 83.231715
_cell_angle_beta                  99.012428
_cell_angle_gamma                 97.038346
_cell_volume                      2503.36184586

loop_
_atom_site_label
_atom_site_type_symbol
_atom_type_description
_atom_site_fract_x
_atom_site_fract_y
_atom_site_fract_z
_atom_type_partial_charge
C1    C     C_R   0.445612 0.307929 0.515488 0.857913
C2    C     C_R   0.656946 0.432452 0.938161 0.181251
C3    C     C_R   0.548720 0.449479 0.902990 0.091900
C4    C     C_R   0.434841 0.512174 0.336353 0.866546
C5    C     C_R   0.734023 0.429264 0.882511 -0.205947
C6    C     C_R   0.705325 0.446519 0.792264 -0.206159
C7    C     C_R   0.523508 0.471037 0.813002 -0.260928
C8    C     C_R   0.732100 0.943562 0.526076 -0.251060
C9    C     C_R   0.593640 0.803233 0.490912 -0.125017
C10   C     C_R   0.303857 0.160581 0.526304 -0.182364
C11   C     C_R   0.272146 0.055262 0.530894 -0.154977
C12   C     C_R   0.431627 0.474748 0.102778 0.094240
C13   C     C_R   0.349581 0.986671 0.536551 -0.200762
C14   C     C_R   0.461365 0.022972 0.542204 0.099861
C15   C     C_R   0.493527 0.127473 0.554045 0.086992
C16   C     C_R   0.556693 0.692668 0.488922 0.856328
C17   C     C_R   0.542170 0.960829 0.532416 0.075700
C18   C     C_R   0.653125 0.999228 0.547014 0.164188
C19   C     C_R   0.683127 0.095616 0.577615 -0.265749
C20   C     C_R   0.603977 0.159011 0.581937 -0.202063
C21   C     C_R   0.514845 0.864449 0.502286 -0.282883
C22   C     C_R   0.703349 0.846746 0.494086 0.005377
C23   C     C_R   0.319999 0.475858 0.069577 0.176855
C24   C     C_R   0.414449 0.197564 0.534870 -0.121294
C25   C     C_R   0.142397 0.620144 0.639811 -0.103724
C26   C     C_R   0.756132 0.381640 0.394983 -0.167168
C27   C     C_R   0.852481 0.350979 0.375287 0.469410
C28   C     C_R   0.564540 0.485987 0.663743 0.855589
C29   C     C_R   0.950078 0.394161 0.418993 -0.277277
C30   C     C_R   0.952638 0.464755 0.481543 -0.058291
C31   C     C_R   0.853555 0.489142 0.500120 0.229319
C32   C     C_R   0.049314 0.512192 0.525928 0.010472
C33   C     C_R   0.045573 0.573741 0.594954 0.131095
C34   C     C_R   0.505748 0.453675 0.049152 0.071117
C35   C     C_R   0.945252 0.592553 0.613784 -0.295205
C36   C     C_R   0.851231 0.554676 0.564137 -0.166706
C37   C     C_R   0.150042 0.503476 0.502390 -0.075477
C38   C     C_R   0.239269 0.608643 0.611723 -0.056684
C39   C     C_R   0.393151 0.508838 0.243792 -0.061220
C40   C     C_R   0.599890 0.468740 0.757563 -0.055392
C41   C     C_R   0.246019 0.491783 0.124321 -0.206605
C42   C     C_R   0.282247 0.506310 0.211794 -0.192391
C43   C     C_R   0.466672 0.498162 0.188139 -0.271171
C44   C     C_R   0.785961 0.801190 0.455621 0.132228
C45   C     C_R   0.470298 0.451108 0.958785 0.065962
C46   C     C_R   0.895157 0.807367 0.495158 -0.179417
C47   C     C_R   0.974223 0.773647 0.454395 -0.113056
C48   C     C_R   0.945177 0.731458 0.374775 -0.110855
C49   C     C_R   0.837434 0.725459 0.334536 -0.145684
C50   C     C_R   0.758617 0.761848 0.373759 -0.085418
C51   C     C_R   0.145843 0.678133 0.716272 0.112542
C52   C     C_R   0.184288 0.783363 0.712360 -0.168259
C53   C     C_R   0.190076 0.837396 0.785418 -0.128728
C54   C     C_R   0.158230 0.786570 0.862840 -0.101483
C55   C     C_R   0.120440 0.681640 0.867301 -0.131834
C56   C     C_R   0.357908 0.450246 0.927316 -0.223398
C57   C     C_R   0.114261 0.627416 0.794307 -0.160557
C58   C     C_3   0.760539 0.230140 0.278577 0.072046
C59   C     C_3   0.717964 0.141674 0.342135 -0.361538
C60   C     C_3   0.611721 0.085909 0.301158 -0.928435
C61   C     C_R   0.283989 0.461028 0.982402 -0.234270
C62   C     C_R   0.613580 0.433748 0.083051 -0.237580
C63   C     C_R   0.687143 0.421154 0.028262 -0.245922
H1    H     H_    0.198638 0.459655 0.956236 0.138331
H2    H     H_    0.315650 0.641973 0.644836 0.149714
H3    H     H_    0.444990 0.493916 0.785063 0.163148
H4    H     H_    0.938572 0.642565 0.662778 0.167235
H5    H     H_    0.161175 0.460106 0.450593 0.129830
H6    H     H_    0.677023 0.351948 0.364844 0.155549
H7    H     H_    0.022681 0.368269 0.404101 0.161586
H8    H     H_    0.777983 0.580279 0.575838 0.212899
H9    H     H_    0.765548 0.443849 0.750042 0.160390
H10   H     H_    0.768988 0.406199 0.056491 0.148300
H11   H     H_    0.160287 0.491354 0.099839 0.131676
H12   H     H_    0.816558 0.414819 0.908819 0.132013
H13   H     H_    0.223867 0.514382 0.254239 0.155618
H14   H     H_    0.551996 0.509348 0.212546 0.157833
H15   H     H_    0.324157 0.437727 0.860843 0.148325
H16   H     H_    0.642679 0.424753 0.152059 0.139368
H17   H     H_    0.919435 0.837937 0.557709 0.126822
H18   H     H_    0.057924 0.778989 0.485233 0.129647
H19   H     H_    0.006254 0.703843 0.344105 0.127506
H20   H     H_    0.815170 0.693891 0.272281 0.128483
H21   H     H_    0.676343 0.760038 0.339827 0.115121
H22   H     H_    0.209201 0.823412 0.652757 0.119416
H23   H     H_    0.767794 0.124288 0.593604 0.150592
H24   H     H_    0.219453 0.918609 0.782057 0.134492
H25   H     H_    0.163013 0.828442 0.919405 0.125030
H26   H     H_    0.096262 0.642253 0.927386 0.122975
H27   H     H_    0.085609 0.545958 0.798642 0.124388
H28   H     H_    0.777013 0.195687 0.220805 0.174033
H29   H     H_    0.699385 0.284117 0.251706 0.115537
H30   H     H_    0.779336 0.085686 0.360404 0.233683
H31   H     H_    0.704138 0.171664 0.402625 0.228556
H32   H     H_    0.548240 0.139893 0.285094 0.265383
H33   H     H_    0.583935 0.021336 0.347882 0.275705
H34   H     H_    0.815247 0.978729 0.530176 0.133834
H35   H     H_    0.623272 0.053851 0.240774 0.259379
H36   H     H_    0.431045 0.835134 0.486460 0.167953
H37   H     H_    0.241703 0.213032 0.514234 0.158665
H38   H     H_    0.319785 0.905999 0.537405 0.121082
H39   H     H_    0.186924 0.026882 0.525741 0.139765
H40   H     H_    0.630443 0.233375 0.605853 0.178135
N1    N     N_R   0.239390 0.551900 0.544730 -0.110545
N2    N     N_R   0.759950 0.448600 0.455730 -0.147161
O1    O     O_R   0.374950 0.371210 0.521360 -0.610439
O2    O     O_R   0.542050 0.338030 0.492790 -0.613848
O3    O     O_R   0.368720 0.526070 0.390200 -0.616857
O4    O     O_R   0.535820 0.492890 0.361630 -0.618651
O5    O     O_R   0.457950 0.661970 0.507210 -0.608948
O6    O     O_R   0.625050 0.628790 0.478640 -0.623415
O7    O     O_R   0.464180 0.507110 0.638370 -0.616262
O8    O     O_R   0.631280 0.473930 0.609800 -0.645446
O9    O     O_3   0.859980 0.280950 0.315882 -0.651658
Zn1   Zn    Zn3+2 0.388420 0.522150 0.519080 0.932092
Zn2   Zn    Zn3+2 0.611580 0.477850 0.480920 0.919158

loop_
_geom_bond_atom_site_label_1
_geom_bond_atom_site_label_2
_ccdc_geom_bond_type
C30   C32   A    
C4    O4    A    
C27   C29   A    
C41   C42   A    
N2    Zn2   S    
C19   C20   A    
C27   O9    S    
C19   H23   S    
C16   O5    A    
C20   H40   S    
C53   C54   A    
C28   O7    A    
C6    H9    S    
C4    O3    A    
C12   C23   A    
C26   C27   A    
C62   C63   A    
O3    Zn1   S    
C52   H22   S    
C9    C16   S    
C12   C43   A    
C60   H35   S    
C31   C36   A    
C30   C31   A    
C21   H36   S    
C9    C22   A    
C28   C40   S    
C37   H5    S    
C34   C62   A    
C56   H15   S    
C18   C19   A    
C38   N1    A    
O4    Zn2   S    
C41   H11   S    
C46   C47   A    
C22   C44   S    
C35   C36   A    
C45   C56   A    
C8    C22   A    
C7    C40   A    
C38   H2    S    
O6    Zn2   S    
C51   C57   A    
C59   H31   S    
C58   H28   S    
C36   H8    S    
C1    O1    A    
O8    Zn2   S    
C59   C60   S    
C13   C14   A    
C31   N2    A    
C14   C17   A    
C26   N2    A    
C44   C46   A    
C39   C42   A    
C15   C20   A    
C57   H27   S    
C50   H21   S    
C51   C52   A    
C62   H16   S    
C28   O8    A    
C39   C43   A    
C63   H10   S    
C10   C24   A    
C58   C59   S    
C3    C45   A    
C8    C18   A    
C5    H12   S    
C61   H1    S    
C8    H34   S    
C25   C51   S    
C29   C30   A    
C25   C38   A    
N1    Zn1   S    
C47   C48   A    
C4    C39   S    
C35   H4    S    
C17   C18   A    
C53   H24   S    
C34   C45   A    
C32   C37   A    
C10   H37   S    
C1    O2    A    
C60   H33   S    
C48   C49   A    
C55   C57   A    
C6    C40   A    
C2    C5    A    
C13   H38   S    
C2    C63   A    
C29   H7    S    
C44   C50   A    
C54   C55   A    
C15   C24   A    
C56   C61   A    
C42   H13   S    
C37   N1    A    
C43   H14   S    
C59   H30   S    
C3    C7    A    
C23   C41   A    
O1    Zn1   S    
C32   C33   A    
C49   H20   S    
C2    C3    A    
C55   H26   S    
C7    H3    S    
C54   H25   S    
C11   C13   A    
C9    C21   A    
C5    C6    A    
C58   H29   S    
C33   C35   A    
C48   H19   S    
C11   H39   S    
C47   H18   S    
C17   C21   A    
O2    Zn2   S    
C10   C11   A    
C60   H32   S    
C23   C61   A    
C1    C24   S    
C49   C50   A    
C25   C33   A    
C58   O9    S    
C26   H6    S    
C14   C15   A    
C46   H17   S    
C12   C34   A    
O5    Zn1   S    
O7    Zn1   S    
C16   O6    A    
C52   C53   A    
