data_mof_unit_15216.cif
_audit_creation_date              2012-12-10T18:08:22-0500
_audit_creation_method            fapswitch 2.2
_symmetry_space_group_name_H-M    P1
_symmetry_Int_Tables_number       1
_space_group_crystal_system       triclinic
_cell_length_a                    12.648445
_cell_length_b                    13.083327
_cell_length_c                    14.137527
_cell_angle_alpha                 91.27773
_cell_angle_beta                  101.485792
_cell_angle_gamma                 82.511265
_cell_volume                      2273.10821994

loop_
_atom_site_label
_atom_site_type_symbol
_atom_type_description
_atom_site_fract_x
_atom_site_fract_y
_atom_site_fract_z
_atom_type_partial_charge
C1    C     C_R   0.439018 0.691165 0.490798 0.860980
C2    C     C_1   0.492770 0.506771 0.227069 -0.227010
C3    C     C_R   0.675029 0.067474 0.408352 -0.204647
C4    C     C_R   0.596314 0.199955 0.502627 -0.048265
C5    C     C_R   0.309424 0.830421 0.534536 -0.265669
C6    C     C_R   0.272702 0.933858 0.546478 0.154162
C7    C     C_R   0.338232 0.010387 0.529749 0.070853
C8    C     C_R   0.436012 0.977821 0.490944 0.005231
C9    C     C_R   0.453422 0.874211 0.459886 0.056426
C10   C     C_R   0.518215 0.040147 0.479943 0.093064
C11   C     C_R   0.596197 0.005823 0.421629 0.182594
C12   C     C_R   0.500622 0.500688 0.670456 0.883611
C13   C     C_R   0.595848 0.910132 0.377885 -0.253762
C14   C     C_R   0.526580 0.844453 0.397881 -0.176324
C15   C     C_R   0.530690 0.132876 0.528377 -0.274368
C16   C     C_R   0.673808 0.165611 0.447577 -0.209676
C17   C     C_R   0.398571 0.800550 0.492177 -0.140937
C18   C     C_R   0.095277 0.350721 0.352215 0.018068
C19   C     C_R   0.798097 0.631591 0.609313 0.038317
C20   C     C_R   0.899874 0.664450 0.628330 -0.257669
C21   C     C_R   0.980195 0.616433 0.582245 -0.183554
C22   C     C_R   0.959201 0.533774 0.517208 0.028556
C23   C     C_R   0.560733 0.308879 0.510139 0.854554
C24   C     C_R   0.853709 0.506026 0.498213 0.195727
C25   C     C_R   0.038619 0.478387 0.471042 -0.060967
C26   C     C_R   0.009547 0.404450 0.395730 0.082099
C27   C     C_R   0.897454 0.389644 0.369209 0.041153
C28   C     C_R   0.826439 0.431907 0.428487 -0.237048
C29   C     C_R   0.147350 0.495068 0.498570 -0.063457
C30   C     C_R   0.200441 0.374579 0.384837 -0.025744
C31   C     C_R   0.498131 0.501687 0.329428 0.872065
C32   C     C_1   0.500806 0.503600 0.772216 -0.211383
C33   C     C_1   0.498579 0.506222 0.857238 -0.017683
C34   C     C_1   0.494744 0.508934 0.956640 -0.001903
C35   C     C_1   0.491872 0.510241 0.041517 0.002370
C36   C     C_1   0.490584 0.509667 0.141363 -0.017128
H1    H     H_    0.728931 0.215980 0.430914 0.144517
H2    H     H_    0.176479 0.546738 0.555112 0.130552
H3    H     H_    0.734551 0.668790 0.644118 0.137001
H4    H     H_    0.056304 0.647909 0.597385 0.133068
H5    H     H_    0.916238 0.727427 0.677809 0.146138
H6    H     H_    0.747573 0.408960 0.417671 0.212003
H7    H     H_    0.652608 0.884099 0.331478 0.146633
H8    H     H_    0.734280 0.041545 0.364278 0.138105
H9    H     H_    0.487672 0.158248 0.583805 0.163882
H10   H     H_    0.266216 0.771981 0.557347 0.160229
H11   H     H_    0.530935 0.769253 0.364254 0.158266
H12   H     H_    0.267668 0.337447 0.354451 0.141654
N1    N     N_R   0.222200 0.444680 0.454480 -0.112644
N2    N     N_R   0.776970 0.554780 0.545050 -0.120720
O1    O     O_R   0.366740 0.627160 0.478260 -0.604616
O2    O     O_R   0.544830 0.662520 0.507340 -0.606112
O3    O     O_R   0.410930 0.482320 0.611740 -0.608257
O4    O     O_R   0.589030 0.517680 0.640820 -0.593659
O5    O     O_R   0.455170 0.337480 0.492660 -0.617690
O6    O     O_R   0.633260 0.372840 0.521740 -0.626688
O7    O     O_R   0.410970 0.482320 0.359180 -0.586974
O8    O     O_R   0.589070 0.517680 0.388260 -0.622633
Zn1   Zn    Zn3+2 0.381090 0.476390 0.480580 0.913464
Zn2   Zn    Zn3+2 0.618910 0.523610 0.519420 0.918014
C37   C     C_3   0.850701 0.337672 0.275227 -0.432676
C38   C     C_3   0.726722 0.349514 0.242438 -0.375214
C39   C     C_3   0.694284 0.298848 0.144298 -0.866185
H13   H     H_    0.724297 0.338190 0.087921 0.262266
H14   H     H_    0.728385 0.216047 0.147397 0.255815
H15   H     H_    0.604346 0.304123 0.124059 0.258259
H16   H     H_    0.688016 0.312814 0.294186 0.215220
H17   H     H_    0.696733 0.432907 0.236427 0.248335
H18   H     H_    0.878150 0.376085 0.217003 0.214122
H19   H     H_    0.879128 0.254283 0.280026 0.232311
C40   C     C_3   0.087105 0.267295 0.274232 -0.428987
C41   C     C_3   0.082907 0.160036 0.314150 -0.358506
C42   C     C_3   0.043475 0.086416 0.233195 -0.889180
H20   H     H_    0.959156 0.114207 0.195783 0.257141
H21   H     H_    0.097750 0.079799 0.179904 0.266781
H22   H     H_    0.044443 0.008722 0.263453 0.245455
H23   H     H_    0.166296 0.127609 0.349923 0.220773
H24   H     H_    0.029876 0.164139 0.368383 0.221985
H25   H     H_    0.023621 0.288502 0.210200 0.202124
H26   H     H_    0.160423 0.259532 0.240907 0.184337
C43   C     C_3   0.293828 0.123036 0.542310 -0.440693
C44   C     C_3   0.309387 0.155542 0.649636 -0.364538
C45   C     C_3   0.277407 0.271204 0.658874 -0.840574
H27   H     H_    0.329514 0.313979 0.624150 0.296105
H28   H     H_    0.190838 0.293243 0.623961 0.259753
H29   H     H_    0.288453 0.292806 0.736291 0.243510
H30   H     H_    0.259313 0.115341 0.688825 0.215654
H31   H     H_    0.394320 0.134200 0.688609 0.215293
H32   H     H_    0.326268 0.175385 0.498022 0.216729
H33   H     H_    0.205886 0.136381 0.510510 0.190979
C46   C     C_3   0.163100 0.955451 0.577834 -0.447362
C47   C     C_3   0.070514 0.924728 0.498811 -0.354071
C48   C     C_3   0.960497 0.947538 0.529023 -0.867748
H34   H     H_    0.961502 0.905461 0.596632 0.261114
H35   H     H_    0.940661 0.031595 0.540336 0.262543
H36   H     H_    0.896127 0.921925 0.471446 0.252307
H37   H     H_    0.067589 0.968396 0.431766 0.227682
H38   H     H_    0.084736 0.841080 0.482893 0.226882
H39   H     H_    0.167253 0.910455 0.644603 0.196082
H40   H     H_    0.140399 0.036539 0.595987 0.210008

loop_
_geom_bond_atom_site_label_1
_geom_bond_atom_site_label_2
_ccdc_geom_bond_type
C37   H19   S    
C39   H14   S    
C48   H34   S    
O5    Zn1   S    
C42   H20   S    
C19   C20   A    
C18   C26   A    
C40   H25   S    
C20   H5    S    
O3    Zn1   S    
C47   H38   S    
C23   O6    A    
O4    Zn2   S    
C26   C27   A    
C41   H23   S    
C38   H16   S    
C31   O8    A    
C30   H12   S    
C10   C15   A    
C5    C6    A    
O7    Zn1   S    
C5    C17   A    
O8    Zn2   S    
C44   H30   S    
C2    C36   T    
C34   C35   T    
C41   H24   S    
C27   C37   S    
C35   C36   S    
C8    C9    A    
C22   C25   A    
C29   H2    S    
C18   C30   A    
C46   H40   S    
O2    Zn2   S    
C12   O3    A    
C16   H1    S    
C43   H32   S    
C39   H15   S    
C48   H35   S    
C21   C22   A    
C12   C32   S    
C25   C29   A    
C42   H21   S    
C40   H26   S    
C47   H37   S    
C43   C44   S    
C24   N2    A    
C3    H8    S    
C7    C8    A    
C46   C47   S    
C4    C23   S    
C29   N1    A    
C25   C26   A    
O6    Zn2   S    
C2    C31   S    
C4    C16   A    
C9    C14   A    
C38   C39   S    
C45   H27   S    
C33   C34   S    
C1    O1    A    
C14   H11   S    
C19   H3    S    
C43   H33   S    
C9    C17   A    
C7    C43   S    
C30   N1    A    
C48   H36   S    
C42   H22   S    
C22   C24   A    
O1    Zn1   S    
C15   H9    S    
C13   H7    S    
C37   H18   S    
C18   C40   S    
C45   H28   S    
C24   C28   A    
C41   C42   S    
C23   O5    A    
C6    C7    A    
C5    H10   S    
C1    C17   S    
N1    Zn1   S    
C38   H17   S    
N2    Zn2   S    
C32   C33   T    
C31   O7    A    
C4    C15   A    
C40   C41   S    
C11   C13   A    
C19   N2    A    
C21   H4    S    
C44   H31   S    
C28   H6    S    
C47   C48   S    
C37   C38   S    
C1    O2    A    
C3    C11   A    
C10   C11   A    
C39   H13   S    
C45   H29   S    
C20   C21   A    
C8    C10   A    
C44   C45   S    
C27   C28   A    
C46   H39   S    
C13   C14   A    
C12   O4    A    
C3    C16   A    
C6    C46   S    
