data_mof_unit_45161.cif
_audit_creation_date              2012-12-11T15:48:11-0500
_audit_creation_method            fapswitch 2.2
_symmetry_space_group_name_H-M    P1
_symmetry_Int_Tables_number       1
_space_group_crystal_system       triclinic
_cell_length_a                    6.924201
_cell_length_b                    17.620161
_cell_length_c                    19.470487
_cell_angle_alpha                 108.51219
_cell_angle_beta                  89.49226
_cell_angle_gamma                 90.36462
_cell_volume                      2252.48502822

loop_
_atom_site_label
_atom_site_type_symbol
_atom_type_description
_atom_site_fract_x
_atom_site_fract_y
_atom_site_fract_z
_atom_type_partial_charge
O1    O     O_R   0.494330 0.415710 0.413720 -0.542914
O2    O     O_R   0.819360 0.430070 0.560210 -0.522161
O3    O     O_R   0.994320 0.584290 0.586280 -0.528538
C1    C     C_R   0.650887 0.417055 0.583610 0.776836
O4    O     O_R   0.823740 0.406290 0.412670 -0.532888
O5    O     O_R   0.998730 0.560340 0.437690 -0.549368
C2    C     C_R   0.654913 0.381465 0.385891 0.725230
O6    O     O_R   0.489920 0.439660 0.562310 -0.539188
O7    O     O_3   0.662330 0.550570 0.508380 -0.384903
V1    V     V_3+5 0.935370 0.490620 0.498440 1.506924
O8    O     O_R   0.328720 0.569930 0.439790 -0.549557
C3    C     C_R   0.160536 0.584999 0.418134 0.682265
O9    O     O_R   0.324340 0.593710 0.587330 -0.545650
C4    C     C_R   0.153771 0.617427 0.614946 0.740718
V2    V     V_3+5 0.435940 0.509380 0.501560 1.437682
O10   O     O_3   0.159110 0.449430 0.491620 -0.358604
C5    C     C_R   0.301881 0.735075 0.708170 -0.279066
H1    H     H_    0.434188 0.722857 0.676720 0.144145
C6    C     C_R   0.296265 0.800060 0.773035 0.385242
C7    C     C_R   0.124136 0.816295 0.814997 -0.151574
C8    C     C_R   0.961069 0.768451 0.789609 -0.253259
H2    H     H_    0.827519 0.779957 0.820514 0.181122
C9    C     C_R   0.964283 0.706442 0.723725 0.399212
C10   C     C_R   0.138602 0.687089 0.682819 -0.170115
C11   C     C_R   0.992326 0.629194 0.323693 -0.195818
C12   C     C_R   0.152083 0.634700 0.369259 -0.077081
C13   C     C_R   0.303052 0.687969 0.367884 -0.223337
C14   C     C_R   0.293449 0.736266 0.322813 0.124399
C15   C     C_R   0.133299 0.730044 0.276848 0.077571
C16   C     C_R   0.983279 0.675738 0.277039 0.012183
C17   C     C_R   0.441016 0.791088 0.323369 -0.205193
C18   C     C_R   0.430554 0.839557 0.279077 -0.130973
C19   C     C_R   0.273680 0.833391 0.231971 0.094958
C20   C     C_R   0.123550 0.778041 0.230742 -0.039979
C21   C     C_R   0.964057 0.770740 0.183906 -0.012457
C22   C     C_R   0.812421 0.716140 0.185284 0.367379
C23   C     C_R   0.825684 0.668991 0.230953 -0.187534
C24   C     C_R   0.263803 0.882620 0.187377 0.286466
C25   C     C_R   0.111336 0.871759 0.136642 -0.158742
C26   C     C_R   0.964074 0.816093 0.135765 -0.224315
H3    H     H_    0.875744 0.587875 0.323885 0.121575
H4    H     H_    0.426541 0.692986 0.402933 0.124572
H5    H     H_    0.564938 0.796670 0.358274 0.129080
H6    H     H_    0.547907 0.881154 0.281197 0.170944
H7    H     H_    0.852495 0.807406 0.095517 0.152247
H8    H     H_    0.709201 0.627649 0.231203 0.150065
C27   C     C_R   0.783634 0.180539 0.866298 -0.202642
C28   C     C_R   0.623012 0.132143 0.867246 -0.083135
C29   C     C_R   0.468542 0.129563 0.820037 -0.203908
C30   C     C_R   0.474841 0.173132 0.770358 -0.014652
C31   C     C_R   0.634473 0.224626 0.772411 0.029190
C32   C     C_R   0.788064 0.228188 0.820731 0.150666
C33   C     C_R   0.324250 0.168814 0.719965 0.334899
C34   C     C_R   0.331170 0.218014 0.675961 -0.158402
C35   C     C_R   0.487169 0.269784 0.678562 0.021543
C36   C     C_R   0.639905 0.273486 0.726895 0.040645
C37   C     C_R   0.795978 0.327132 0.730943 0.044559
C38   C     C_R   0.945999 0.329875 0.780330 -0.164197
C39   C     C_R   0.942934 0.280427 0.823774 -0.146551
C40   C     C_R   0.492814 0.317047 0.632634 -0.144910
C41   C     C_R   0.645350 0.370753 0.635745 -0.147720
C42   C     C_R   0.795480 0.377792 0.686891 -0.054541
H9    H     H_    0.902478 0.183226 0.902919 0.118826
H10   H     H_    0.344210 0.093277 0.822947 0.131292
H11   H     H_    0.213844 0.214785 0.638596 0.162345
H12   H     H_    0.378428 0.311485 0.593624 0.156329
H13   H     H_    0.067771 0.370010 0.786044 0.157276
H14   H     H_    0.061524 0.283840 0.860624 0.121842
C43   C     C_R   0.780720 0.246626 0.303381 -0.094227
C44   C     C_R   0.767713 0.182012 0.237018 0.325638
C45   C     C_R   0.621366 0.181707 0.186607 -0.095210
C46   C     C_R   0.484348 0.243195 0.204321 -0.191393
H15   H     H_    0.369399 0.243288 0.166971 0.140526
C47   C     C_R   0.495804 0.306273 0.269354 -0.120660
H16   H     H_    0.389354 0.353493 0.280149 0.138700
C48   C     C_R   0.644397 0.310119 0.319081 -0.158441
O11   O     O_R   0.774940 0.060470 0.937800 -0.546376
O12   O     O_R   0.440880 0.093730 0.087350 -0.552928
O13   O     O_R   0.266130 0.939630 0.062280 -0.534988
C49   C     C_R   0.609466 0.115821 0.116124 0.743687
O14   O     O_R   0.445480 0.069960 0.939820 -0.547531
O15   O     O_R   0.270770 0.915690 0.913690 -0.506545
C50   C     C_R   0.614518 0.084453 0.917733 0.710123
O16   O     O_R   0.770300 0.084410 0.086380 -0.512269
O17   O     O_3   0.602600 0.949510 0.991670 -0.358698
V3    V     V_3+5 0.329470 0.009370 0.001550 1.486138
O18   O     O_R   0.940760 0.906160 0.912560 -0.551171
C51   C     C_R   0.110785 0.883744 0.884250 0.741131
O19   O     O_R   0.936150 0.929930 0.060100 -0.533549
C52   C     C_R   0.104045 0.917250 0.083808 0.733594
V4    V     V_3+5 0.828930 0.990450 0.998310 1.501012
O20   O     O_3   0.105670 0.050490 0.008320 -0.379538
O21   O     O_3   0.648813 0.706433 0.143358 -0.635821
H17   H     H_    0.616256 0.758165 0.136723 0.295098
O22   O     O_3   0.167716 0.117919 0.711591 -0.639092
H18   H     H_    0.209532 0.068277 0.720367 0.285531
C53   C     C_2   0.942865 0.441927 0.697746 0.758181
O23   O     O_2   0.892829 0.511974 0.718689 -0.532038
O24   O     O_R   0.137216 0.422309 0.683052 -0.674454
H19   H     H_    0.222916 0.471329 0.692051 0.293902
O25   O     O_3   0.456252 0.848707 0.795302 -0.640434
H20   H     H_    0.560992 0.830741 0.758761 0.278466
C54   C     C_2   0.934664 0.246613 0.355953 0.742461
O26   O     O_2   0.892473 0.253627 0.418803 -0.560686
O27   O     O_R   0.127661 0.237837 0.333235 -0.661105
H21   H     H_    0.219323 0.238999 0.373882 0.298395
O28   O     O_3   0.890170 0.116752 0.220724 -0.638345
H22   H     H_    0.947313 0.112059 0.265526 0.299108
O29   O     O_3   0.794493 0.665628 0.701624 -0.610717
H23   H     H_    0.761797 0.673644 0.654973 0.279334
O30   O     O_3   0.403125 0.941221 0.195389 -0.648731
H24   H     H_    0.341211 0.988830 0.188607 0.297565

loop_
_geom_bond_atom_site_label_1
_geom_bond_atom_site_label_2
_ccdc_geom_bond_type
O18   C51   A    
O21   H17   S    
O18   V4    S    
C33   O22   S    
O22   H18   S    
C1    O6    A    
C53   O23   D    
O17   V4    S    
C37   C42   A    
C34   H11   S    
C17   C18   A    
O17   V3    S    
C12   C13   A    
O25   H20   S    
C47   C48   A    
C8    H2    S    
C14   C15   A    
C31   C36   A    
C44   O28   S    
C27   H9    S    
C24   C25   A    
O12   C49   A    
O11   C50   A    
V2    O10   S    
C7    C51   S    
C36   C37   A    
C43   C48   A    
C5    H1    S    
C20   C21   A    
C4    C10   S    
O13   C52   A    
C53   O24   S    
O8    V2    S    
C22   O21   S    
C27   C28   A    
O28   H22   S    
C44   C45   A    
O1    V2    S    
O16   V4    S    
O19   V4    S    
O7    V1    S    
C25   C52   S    
O14   V3    S    
C49   O16   A    
O12   V3    S    
C40   H12   S    
C29   H10   S    
O9    C4    A    
C41   C42   A    
C45   C49   S    
O14   C50   A    
C19   C20   A    
C43   C54   S    
C26   H7    S    
C9    O29   S    
C5    C10   A    
C47   H16   S    
C31   C32   A    
C30   C33   A    
C46   C47   A    
C11   H3    S    
V4    O20   S    
O4    C2    A    
C11   C12   A    
O15   V3    S    
C15   C20   A    
C16   C23   A    
C3    C12   S    
C40   C41   A    
C21   C22   A    
O2    C1    A    
C15   C16   A    
C32   C39   A    
C39   H14   S    
C42   C53   S    
O24   H19   S    
C9    C10   A    
C35   C36   A    
C30   C31   A    
C18   H6    S    
C54   O27   S    
C27   C32   A    
O3    C4    A    
C17   H5    S    
C28   C29   A    
O6    V2    S    
C8    C9    A    
C38   C39   A    
O2    V1    S    
C25   C26   A    
C11   C16   A    
O19   C52   A    
C34   C35   A    
O11   V4    S    
O30   H24   S    
O1    C2    A    
C14   C17   A    
C46   H15   S    
O5    V1    S    
O8    C3    A    
C33   C34   A    
C2    C48   S    
O27   H21   S    
C19   C24   A    
C28   C50   S    
C18   C19   A    
C6    C7    A    
O9    V2    S    
C21   C26   A    
C24   O30   S    
C45   C46   A    
O3    V1    S    
V3    O20   S    
O29   H23   S    
O5    C3    A    
C6    O25   S    
C13   H4    S    
C37   C38   A    
O15   C51   A    
C1    C41   S    
C5    C6    A    
O7    V2    S    
C43   C44   A    
C38   H13   S    
O4    V1    S    
C7    C8    A    
C22   C23   A    
C29   C30   A    
C54   O26   D    
V1    O10   S    
C23   H8    S    
C35   C40   A    
O13   V3    S    
C13   C14   A    
