data_mof_unit_7536.cif
_audit_creation_date              2013-03-05T15:43:30-0500
_audit_creation_method            fapswitch 2.2
_symmetry_space_group_name_H-M    P1
_symmetry_Int_Tables_number       1
_space_group_crystal_system       triclinic
_cell_length_a                    14.230495
_cell_length_b                    16.486043
_cell_length_c                    6.965632
_cell_angle_alpha                 89.999983
_cell_angle_beta                  80.931605
_cell_angle_gamma                 90.000803
_cell_volume                      1613.7433337

loop_
_atom_site_label
_atom_site_type_symbol
_atom_site_description
_atom_site_fract_x
_atom_site_fract_y
_atom_site_fract_z
_atom_type_partial_charge
O1    O     O_R   0.337460 0.413110 0.524760 -0.534989
O2    O     O_R   0.662540 0.913110 0.475240 -0.534832
O3    O     O_R   0.348690 0.587910 0.191230 -0.576578
O4    O     O_R   0.651310 0.087910 0.808770 -0.576629
O5    O     O_R   0.166530 0.586890 0.082470 -0.563707
O6    O     O_R   0.833470 0.086890 0.917530 -0.563688
C1    C     C_R   0.371040 0.615531 0.353453 0.863618
C2    C     C_R   0.628977 0.115542 0.646547 0.863362
O7    O     O_R   0.348700 0.413830 0.191250 -0.526960
O8    O     O_R   0.651300 0.913830 0.808750 -0.527066
O9    O     O_R   0.166530 0.411570 0.082490 -0.540257
O10   O     O_R   0.833470 0.911570 0.917510 -0.540298
C3    C     C_R   0.369855 0.384698 0.354596 0.858318
C4    C     C_R   0.630203 0.884656 0.645403 0.858531
O11   O     O_R   0.337460 0.588430 0.524740 -0.559297
O12   O     O_R   0.662540 0.088430 0.475260 -0.559371
O13   O     O_3   0.192230 0.499460 0.407330 -0.235314
O14   O     O_3   0.807770 0.999460 0.592670 -0.235282
V1    V     V_3+5 0.263080 0.500100 0.108540 1.285718
V2    V     V_3+5 0.736920 0.000100 0.891460 1.285480
O15   O     O_R   0.155290 0.412090 0.756570 -0.543100
O16   O     O_R   0.844710 0.912090 0.243430 -0.542825
C5    C     C_R   0.129003 0.385818 0.934990 0.952772
C6    C     C_R   0.871001 0.885820 0.065010 0.953331
O17   O     O_R   0.155290 0.586170 0.756550 -0.493486
O18   O     O_R   0.844710 0.086170 0.243450 -0.493483
C7    C     C_R   0.129960 0.613231 0.933230 0.927169
C8    C     C_R   0.870041 0.113229 0.066769 0.927177
V3    V     V_3+5 0.240910 0.499900 0.616030 1.322332
V4    V     V_3+5 0.759090 0.999900 0.383970 1.322375
O19   O     O_3   0.311760 0.500540 0.867100 -0.265729
O20   O     O_3   0.688240 0.000540 0.132900 -0.266022
C9    C     C_3   0.021694 0.697818 0.182985 -0.235769
C10   C     C_3   0.978323 0.197809 0.817013 -0.235575
H1    H     H_    0.993198 0.640508 0.250089 0.239738
H2    H     H_    0.006828 0.140501 0.749925 0.239710
H3    H     H_    0.081531 0.715227 0.258226 0.215247
H4    H     H_    0.918494 0.215214 0.741742 0.215229
C11   C     C_3   0.942765 0.763805 0.214752 -0.213604
C12   C     C_3   0.057248 0.263801 0.785253 -0.213798
H5    H     H_    0.953014 0.801976 0.341243 0.210561
H6    H     H_    0.047000 0.301969 0.658755 0.210574
H7    H     H_    0.872112 0.734191 0.255142 0.170708
H8    H     H_    0.127908 0.234196 0.744874 0.169864
H9    H     H_    0.834072 0.747634 0.902984 0.160541
H10   H     H_    0.165927 0.247634 0.097024 0.160286
C13   C     C_3   0.966245 0.673208 0.864978 0.600376
C14   C     C_3   0.033750 0.173210 0.135043 0.600490
C15   C     C_3   0.114226 0.765477 0.898037 0.149049
C16   C     C_3   0.885774 0.265475 0.101930 0.148977
C17   C     C_3   0.059255 0.684939 0.963341 -0.296049
C18   C     C_3   0.940747 0.184937 0.036657 -0.296055
H11   H     H_    0.173912 0.768385 0.984161 0.100837
H12   H     H_    0.826105 0.268380 0.015761 0.100908
C19   C     C_3   0.943234 0.815427 0.025992 -0.253671
C20   C     C_3   0.056771 0.315425 0.974010 -0.253552
C21   C     C_3   0.912385 0.756308 0.871628 -0.258979
C22   C     C_3   0.087613 0.256309 0.128382 -0.259114
C23   C     C_3   0.050096 0.843506 0.952273 0.506681
C24   C     C_3   0.949908 0.343503 0.047718 0.506750
H13   H     H_    0.925224 0.784691 0.725727 0.171511
H14   H     H_    0.074777 0.284693 0.274280 0.171518
H15   H     H_    0.438194 0.692652 0.645216 0.108424
H16   H     H_    0.561587 0.192482 0.354819 0.108146
C25   C     C_2   0.441544 0.681169 0.341553 -0.113920
C26   C     C_2   0.558610 0.181279 0.658443 -0.113636
C27   C     C_2   0.468993 0.714086 0.501436 -0.071306
C28   C     C_2   0.531066 0.214127 0.498583 -0.071094
H17   H     H_    0.527627 0.795153 0.792178 0.100404
H18   H     H_    0.472026 0.294887 0.207831 0.100334
C29   C     C_2   0.562079 0.816132 0.650516 -0.225368
C30   C     C_2   0.437964 0.316167 0.349515 -0.225412
C31   C     C_2   0.540478 0.779940 0.487040 0.338248
C32   C     C_2   0.459881 0.280213 0.513022 0.338260
H19   H     H_    0.471514 0.702379 0.197337 0.121712
H20   H     H_    0.528882 0.202676 0.802636 0.121666
N1    N     N_R   0.061996 0.901009 0.787109 0.158515
O21   O     O_R   0.993953 0.917861 0.689132 -0.304275
O22   O     O_R   0.145800 0.931895 0.727297 -0.164412
N2    N     N_R   0.938006 0.401000 0.212891 0.158504
O23   O     O_R   0.006046 0.417855 0.310871 -0.304268
O24   O     O_R   0.854200 0.431883 0.272701 -0.164184
Cl1   Cl    Cl    0.990019 0.638066 0.621059 -0.562205
Cl2   Cl    Cl    0.009962 0.138076 0.378964 -0.562352
N3    N     N_R   0.586048 0.803954 0.296754 0.092172
O25   O     O_R   0.666166 0.770641 0.220650 -0.373686
O26   O     O_R   0.542068 0.851855 0.191977 -0.338962
N4    N     N_R   0.415032 0.304771 0.703409 0.092069
O27   O     O_R   0.335430 0.271236 0.781853 -0.373796
O28   O     O_R   0.459459 0.353146 0.806293 -0.337879
N5    N     N_R   0.903436 0.610875 0.967733 0.121114
O29   O     O_R   0.941840 0.546899 0.030683 -0.296349
O30   O     O_R   0.814789 0.606026 0.942920 -0.248792
N6    N     N_R   0.096558 0.110875 0.032313 0.121013
O31   O     O_R   0.058156 0.046895 0.969372 -0.296387
O32   O     O_R   0.185204 0.106029 0.057138 -0.249245
N7    N     N_R   0.160064 0.762854 0.693580 0.128025
O33   O     O_R   0.112078 0.775952 0.552867 -0.298873
O34   O     O_R   0.252258 0.757741 0.652856 -0.349818
N8    N     N_R   0.839907 0.262853 0.306367 0.128038
O35   O     O_R   0.887872 0.275938 0.447119 -0.298826
O36   O     O_R   0.747711 0.257753 0.347029 -0.349590
Cl3   Cl    Cl    0.093723 0.894927 0.150358 -0.458432
Cl4   Cl    Cl    0.906296 0.394932 0.849632 -0.458236

loop_
_geom_bond_atom_site_label_1
_geom_bond_atom_site_label_2
_geom_bond_distance
_ccdc_geom_bond_type
C22   H14   1.107527 S    
C26   C28   1.350713 D    
C2    C26   1.469003 S    
C19   C23   1.595093 S    
O13   V3    1.706083 S    
C4    C29   1.485383 S    
O4    C2    1.303303 A    
V1    O19   1.714958 S    
C23   N1    1.479714 S    
C15   C17   1.571489 S    
N7    O33   1.297929 A    
C5    C20   1.545671 S    
C11   H5    1.110895 S    
N1    O21   1.299553 A    
C6    C19   1.545701 S    
O9    V1    2.032086 S    
C16   H12   1.115446 S    
C14   N6    1.471545 S    
C10   C12   1.554242 S    
H16   C28   1.087061 S    
O3    C1    1.303331 A    
C13   C21   1.566942 S    
C28   C32   1.480272 S    
H17   C29   1.086822 S    
O7    C3    1.312965 A    
O13   V1    2.164907 S    
O5    C7    1.307901 A    
O7    V1    2.015087 S    
C11   C19   1.565361 S    
O8    V2    2.015064 S    
C12   C20   1.565341 S    
C16   C18   1.571470 S    
O3    V1    2.032919 S    
C27   C31   1.480334 S    
C13   Cl1   1.776422 S    
C10   H2    1.102641 S    
C12   H6    1.110903 S    
C2    O12   1.292988 A    
H10   C22   1.110589 S    
C13   N5    1.471566 S    
N8    O36   1.300580 A    
O18   C8    1.305262 A    
N7    O34   1.300582 A    
C7    C17   1.545140 S    
O11   V3    2.036370 S    
N1    O22   1.303238 A    
O17   V3    2.022255 S    
H9    C21   1.110588 S    
H15   C27   1.087025 S    
N3    O26   1.300763 A    
C30   C32   1.362984 D    
O8    C4    1.312919 A    
N5    O29   1.295723 A    
C29   C31   1.362905 D    
C11   H7    1.113205 S    
C1    O11   1.292981 A    
C25   C27   1.350738 D    
N3    O25   1.300779 A    
O15   V3    2.040219 S    
C9    H3    1.105811 S    
C9    C17   1.553636 S    
C14   Cl2   1.776399 S    
N5    O30   1.302442 A    
C12   H8    1.113226 S    
C26   H20   1.085476 S    
O10   V2    2.032112 S    
O1    V3    2.015910 S    
C9    C11   1.554244 S    
N6    O32   1.302451 A    
C31   N3    1.436372 S    
O14   V4    1.706082 S    
N2    O24   1.303261 A    
N4    O28   1.300808 A    
O18   V4    2.022229 S    
O15   C5    1.313599 A    
O16   C6    1.313601 A    
O1    C3    1.290195 A    
V2    O20   1.714958 S    
C24   N2    1.479700 S    
O16   V4    2.040244 S    
C10   H4    1.105816 S    
C16   N8    1.470636 S    
C1    C25   1.469071 S    
N2    O23   1.299535 A    
C25   H19   1.085463 S    
C13   C17   1.595167 S    
C14   C22   1.566931 S    
C21   H13   1.107544 S    
O5    V1    2.011638 S    
C3    C30   1.485378 S    
O17   C7    1.305264 A    
O6    V2    2.011611 S    
O10   C6    1.301558 A    
C10   C18   1.553650 S    
C15   C23   1.587981 S    
O2    V4    2.015883 S    
C16   C24   1.587973 S    
C19   C21   1.564472 S    
C23   Cl3   1.810493 S    
V3    O19   2.151970 S    
V4    O20   2.151972 S    
C8    C18   1.545120 S    
C15   H11   1.115444 S    
O9    C5    1.301541 A    
N8    O35   1.297921 A    
C9    H1    1.102639 S    
C20   C22   1.564458 S    
O14   V2    2.164906 S    
N6    O31   1.295724 A    
O2    C4    1.290264 A    
C15   N7    1.470643 S    
O4    V2    2.032943 S    
C20   C24   1.595087 S    
O6    C8    1.307890 A    
C14   C18   1.595157 S    
N4    O27   1.300878 A    
H18   C30   1.086856 S    
C32   N4    1.436374 S    
C24   Cl4   1.810474 S    
O12   V4    2.036400 S    
