data_mof_unit_13400.cif
_audit_creation_date              2012-12-10T17:30:25-0500
_audit_creation_method            fapswitch 2.2
_symmetry_space_group_name_H-M    P1
_symmetry_Int_Tables_number       1
_space_group_crystal_system       triclinic
_cell_length_a                    12.162747
_cell_length_b                    12.870113
_cell_length_c                    14.867405
_cell_angle_alpha                 92.308324
_cell_angle_beta                  86.215942
_cell_angle_gamma                 93.614274
_cell_volume                      2316.06580076

loop_
_atom_site_label
_atom_site_type_symbol
_atom_type_description
_atom_site_fract_x
_atom_site_fract_y
_atom_site_fract_z
_atom_type_partial_charge
Br1   Br    Br    0.998035 0.268580 0.356024 -0.263852
Br2   Br    Br    0.001883 0.731100 0.644779 -0.257363
Br3   Br    Br    0.603521 0.812591 0.126474 -0.346957
Br4   Br    Br    0.538052 0.182042 0.866413 -0.337443
Br5   Br    Br    0.749175 0.036358 0.357788 -0.301512
Br6   Br    Br    0.253226 0.964530 0.645702 -0.309354
Br7   Br    Br    0.251456 0.667202 0.660712 -0.352969
Br8   Br    Br    0.748405 0.333311 0.338314 -0.304226
C1    C     C_R   0.522412 0.699879 0.495852 0.977883
C2    C     C_R   0.374909 0.140033 0.563212 -0.118841
C3    C     C_R   0.455139 0.868547 0.533424 -0.146967
C4    C     C_R   0.544550 0.131549 0.466659 -0.128561
C5    C     C_R   0.456334 0.974989 0.526624 0.039473
C6    C     C_R   0.544107 0.025327 0.474501 0.035030
C7    C     C_R   0.951958 0.395613 0.418367 0.193555
C8    C     C_R   0.047873 0.604333 0.581824 0.196253
C9    C     C_R   0.838344 0.411888 0.421603 0.353015
C10   C     C_R   0.161542 0.588127 0.578294 0.353470
C11   C     C_R   0.857636 0.538166 0.541121 -0.006391
C12   C     C_R   0.477714 0.300223 0.504424 0.983066
C13   C     C_R   0.142135 0.461955 0.458948 0.012485
C14   C     C_R   0.975811 0.536437 0.531447 -0.123216
C15   C     C_R   0.023949 0.463544 0.468830 -0.122156
C16   C     C_R   0.500689 0.502398 0.672647 0.941064
C17   C     C_R   0.499744 0.497618 0.327345 0.941192
C18   C     C_R   0.491140 0.399587 0.182123 -0.059096
C19   C     C_R   0.515666 0.600463 0.817488 -0.077399
C20   C     C_R   0.501671 0.494504 0.231327 -0.136437
C21   C     C_R   0.504854 0.505443 0.768347 -0.131417
C22   C     C_R   0.526046 0.588186 0.190134 -0.156502
C23   C     C_R   0.568371 0.690424 0.960871 -0.106427
C24   C     C_R   0.511869 0.410750 0.807614 -0.147302
C25   C     C_R   0.538496 0.591727 0.097076 0.054526
C26   C     C_R   0.521278 0.406217 0.899674 0.053181
C27   C     C_R   0.528626 0.497222 0.045350 0.029455
C28   C     C_R   0.530080 0.500681 0.951530 0.032244
C29   C     C_R   0.514368 0.399510 0.087707 -0.023168
C30   C     C_R   0.537901 0.598644 0.909520 -0.036264
C31   C     C_R   0.564668 0.687257 0.055277 0.220608
C32   C     C_R   0.525368 0.309461 0.940065 0.214840
C33   C     C_2   0.442451 0.305324 0.228311 0.910699
C34   C     C_R   0.525316 0.305988 0.034342 -0.111186
C35   C     C_2   0.491911 0.698498 0.774706 0.934638
C36   C     C_2   0.618205 0.785294 0.916594 0.997945
C37   C     C_2   0.551301 0.207535 0.075126 1.011390
C38   C     C_2   0.290047 0.201439 0.613340 1.033917
C39   C     C_2   0.717610 0.800948 0.395705 1.043497
C40   C     C_2   0.196296 0.412416 0.378620 1.038275
C41   C     C_2   0.802931 0.589128 0.620609 1.055032
C42   C     C_R   0.463315 0.188827 0.511343 -0.170065
C43   C     C_R   0.537301 0.811451 0.489749 -0.156567
C44   C     C_R   0.630325 0.968878 0.431925 0.237899
C45   C     C_R   0.371184 0.031780 0.570570 0.235050
C46   C     C_R   0.627734 0.860865 0.440457 -0.119216
H1    H     H_    0.532160 0.658350 0.232429 0.208913
H2    H     H_    0.761276 0.687264 0.305505 0.364774
H3    H     H_    0.226905 0.413961 0.243625 0.368952
H4    H     H_    0.768156 0.588586 0.755108 0.376022
H5    H     H_    0.506845 0.340789 0.764878 0.204540
H6    H     H_    0.609278 0.171684 0.426146 0.240486
H7    H     H_    0.389463 0.828238 0.572785 0.229864
H8    H     H_    0.325720 0.186808 0.230372 0.392789
H9    H     H_    0.406977 0.828549 0.782750 0.389814
H10   H     H_    0.732601 0.845529 0.825522 0.388651
H11   H     H_    0.647753 0.137297 0.156610 0.392063
H12   H     H_    0.256839 0.314786 0.707038 0.364453
N1    N     N_R   0.207800 0.519350 0.516680 -0.197204
N2    N     N_R   0.792200 0.480650 0.483320 -0.201211
O1    O     O_R   0.421700 0.658830 0.504450 -0.609260
O2    O     O_R   0.351700 0.249193 0.193363 -0.757650
O3    O     O_2   0.539229 0.722364 0.702750 -0.600990
O4    O     O_R   0.415432 0.763758 0.817673 -0.715894
O5    O     O_2   0.581630 0.870411 0.935331 -0.485285
O6    O     O_R   0.706331 0.776261 0.852016 -0.772396
O7    O     O_2   0.495849 0.126751 0.060499 -0.488020
O8    O     O_R   0.638727 0.208254 0.131731 -0.734093
O9    O     O_2   0.192844 0.186168 0.597527 -0.521193
O10   O     O_R   0.321705 0.277231 0.678097 -0.812133
O11   O     O_2   0.812692 0.819263 0.416492 -0.519513
O12   O     O_R   0.578300 0.341170 0.495550 -0.604310
O13   O     O_R   0.693403 0.723314 0.330389 -0.807501
O14   O     O_2   0.245185 0.333301 0.384911 -0.564222
O15   O     O_R   0.187820 0.454866 0.294454 -0.767270
O16   O     O_2   0.756233 0.669293 0.613205 -0.528099
O17   O     O_R   0.808163 0.546853 0.705262 -0.764834
O18   O     O_R   0.609310 0.646410 0.493750 -0.582161
O19   O     O_R   0.390690 0.353590 0.506250 -0.584706
O20   O     O_R   0.406180 0.506230 0.637500 -0.578798
O21   O     O_R   0.593820 0.493770 0.362500 -0.562251
O22   O     O_R   0.593800 0.493820 0.626800 -0.620843
O23   O     O_R   0.406200 0.506180 0.373200 -0.632171
O24   O     O_2   0.481228 0.276926 0.296307 -0.593926
Zn1   Zn    Zn3+2 0.374730 0.508290 0.507150 1.048314
Zn2   Zn    Zn3+2 0.625270 0.491710 0.492850 1.057473

loop_
_geom_bond_atom_site_label_1
_geom_bond_atom_site_label_2
_ccdc_geom_bond_type
C35   O4    S    
C19   C21   A    
C27   C28   A    
C1    C43   S    
C39   O11   D    
H2    O13   S    
C17   C20   S    
C25   C31   A    
H11   O8    S    
C37   O8    S    
C26   C32   A    
C41   O16   D    
C27   C29   A    
C1    O1    A    
C21   C24   A    
O1    Zn1   S    
C19   C30   A    
C12   O19   A    
O21   Zn2   S    
H8    O2    S    
C29   C34   A    
C2    C45   A    
C16   C21   S    
C12   C42   S    
O18   Zn2   S    
C6    C44   A    
Br4   C32   S    
C40   O14   D    
C2    C38   S    
C35   O3    D    
H3    O15   S    
Br5   C44   S    
Br1   C7    S    
Br2   C8    S    
C13   C40   S    
C7    C15   A    
Br3   C31   S    
C5    C6    A    
C13   N1    A    
C44   C46   A    
O22   Zn2   S    
C5    C45   A    
H12   O10   S    
C17   O23   A    
C23   C36   S    
C12   O12   A    
C41   O17   S    
C11   C14   A    
C38   O10   S    
C10   N1    A    
N2    Zn2   S    
C34   C37   S    
C24   C26   A    
C1    O18   A    
O23   Zn1   S    
C11   C41   S    
Br7   C10   S    
C11   N2    A    
C36   O6    S    
C16   O20   A    
C39   C46   S    
C4    C6    A    
C13   C15   A    
Br6   C45   S    
O12   Zn2   S    
C2    C42   A    
H4    O17   S    
C7    C9    A    
O20   Zn1   S    
C9    N2    A    
C8    C14   A    
C22   C25   A    
C18   C20   A    
C3    H7    S    
C16   O22   A    
C38   O9    D    
C4    C42   A    
C40   O15   S    
C18   C29   A    
C22   H1    S    
C17   O21   A    
Br8   C9    S    
C23   C30   A    
C37   O7    D    
C43   C46   A    
C28   C30   A    
C20   C22   A    
C3    C5    A    
O19   Zn1   S    
C32   C34   A    
C25   C27   A    
C23   C31   A    
C26   C28   A    
C39   O13   S    
C36   O5    D    
C3    C43   A    
C4    H6    S    
C19   C35   S    
C33   O24   D    
H9    O4    S    
C8    C10   A    
N1    Zn1   S    
H10   O6    S    
C14   C15   A    
C24   H5    S    
C18   C33   S    
C33   O2    S    
