data_mof_unit_5919.cif
_audit_creation_date              2012-12-11T15:41:08-0500
_audit_creation_method            fapswitch 2.2
_symmetry_space_group_name_H-M    P1
_symmetry_Int_Tables_number       1
_space_group_crystal_system       triclinic
_cell_length_a                    18.986042
_cell_length_b                    11.009244
_cell_length_c                    18.782435
_cell_angle_alpha                 90.127254
_cell_angle_beta                  90.734846
_cell_angle_gamma                 90.16286
_cell_volume                      3925.59279244

loop_
_atom_site_label
_atom_site_type_symbol
_atom_type_description
_atom_site_fract_x
_atom_site_fract_y
_atom_site_fract_z
_atom_type_partial_charge
C1    C     C_R   0.727613 0.953922 0.852974 0.545432
C2    C     C_R   0.272350 0.953811 0.146999 0.543358
C3    C     C_R   0.227613 0.453922 0.852974 0.545422
C4    C     C_R   0.772350 0.453811 0.146999 0.543355
C5    C     C_R   0.682907 0.397730 0.050119 -0.031596
C6    C     C_R   0.316660 0.396119 0.949570 -0.030878
C7    C     C_R   0.182907 0.897730 0.050119 -0.031596
C8    C     C_R   0.816660 0.896119 0.949570 -0.030877
C9    C     C_R   0.672279 0.366947 0.979155 0.034735
C10   C     C_R   0.327184 0.365756 0.020517 0.034708
C11   C     C_R   0.172279 0.866947 0.979155 0.034736
C12   C     C_R   0.827184 0.865756 0.020517 0.034709
C13   C     C_R   0.793327 0.306894 0.971114 -0.142268
C14   C     C_R   0.204988 0.312123 0.029672 -0.142382
C15   C     C_R   0.293328 0.806895 0.971114 -0.142271
C16   C     C_R   0.704988 0.812123 0.029672 -0.142382
C17   C     C_R   0.803502 0.335146 0.042060 -0.110668
C18   C     C_R   0.194770 0.340523 0.958926 -0.110334
C19   C     C_R   0.303502 0.835146 0.042060 -0.110668
C20   C     C_R   0.694770 0.840523 0.958926 -0.110333
C21   C     C_3   0.625842 0.490157 0.048707 -0.237823
C22   C     C_3   0.375503 0.485807 0.950464 -0.238368
C23   C     C_3   0.125842 0.990157 0.048707 -0.237824
C24   C     C_3   0.875504 0.985806 0.950463 -0.238375
C25   C     C_3   0.613642 0.456201 0.970456 0.164874
C26   C     C_3   0.387321 0.452745 0.028798 0.164380
C27   C     C_3   0.113642 0.956201 0.970456 0.164874
C28   C     C_3   0.887321 0.952745 0.028798 0.164384
C29   C     C_R   0.729018 0.332255 0.936495 0.036032
C30   C     C_R   0.270168 0.334033 0.063631 0.038745
C31   C     C_R   0.229018 0.832255 0.936495 0.036026
C32   C     C_R   0.770168 0.834033 0.063631 0.038744
C33   C     C_R   0.509851 0.171862 0.420387 0.019578
C34   C     C_R   0.517600 0.170877 0.568022 0.020342
C35   C     C_R   0.009842 0.671848 0.420393 0.019585
C36   C     C_R   0.017580 0.670873 0.568029 0.020371
C37   C     C_R   0.522546 0.279979 0.457903 0.015322
C38   C     C_R   0.525930 0.278321 0.530382 0.038158
C39   C     C_R   0.022549 0.779963 0.457906 0.015309
C40   C     C_R   0.025929 0.778308 0.530385 0.038170
C41   C     C_R   0.517515 0.060796 0.530593 -0.172748
C42   C     C_R   0.515513 0.061301 0.456432 -0.177788
C43   C     C_R   0.017474 0.560785 0.530605 -0.172738
C44   C     C_R   0.015480 0.561286 0.456444 -0.177759
C45   C     C_R   0.530288 0.177615 0.850873 0.542376
C46   C     C_R   0.469783 0.177592 0.149168 0.541733
C47   C     C_R   0.030288 0.677615 0.850873 0.542375
C48   C     C_R   0.969783 0.677592 0.149168 0.541732
C49   C     C_3   0.482792 0.398084 0.459473 -0.263860
C50   C     C_3   0.487421 0.394648 0.539318 -0.262622
C51   C     C_3   0.982816 0.898088 0.459468 -0.263863
C52   C     C_3   0.987438 0.894655 0.539314 -0.262651
C53   C     C_R   0.752127 0.403095 0.420752 -0.005315
C54   C     C_R   0.250437 0.410175 0.578311 -0.007383
C55   C     C_R   0.252147 0.903136 0.420766 -0.005310
C56   C     C_R   0.750442 0.910150 0.578317 -0.007380
C57   C     C_R   0.802427 0.338006 0.460428 -0.020946
C58   C     C_R   0.212825 0.317931 0.542551 -0.031672
C59   C     C_R   0.302473 0.838120 0.460449 -0.020909
C60   C     C_R   0.712828 0.817908 0.542556 -0.031695
C61   C     C_R   0.798527 0.331821 0.533228 0.079791
C62   C     C_R   0.212776 0.315220 0.469244 0.095006
C63   C     C_R   0.298566 0.831902 0.533248 0.079745
C64   C     C_R   0.712777 0.815205 0.469249 0.094994
C65   C     C_R   0.686662 0.432437 0.529668 -0.147350
C66   C     C_R   0.300195 0.472428 0.464537 -0.179095
C67   C     C_R   0.186674 0.932445 0.529676 -0.147340
C68   C     C_R   0.800202 0.972401 0.464545 -0.179082
C69   C     C_R   0.690575 0.439426 0.455221 -0.131749
C70   C     C_R   0.298483 0.480929 0.538929 -0.164783
C71   C     C_R   0.190588 0.939434 0.455230 -0.131753
C72   C     C_R   0.798492 0.980892 0.538936 -0.164779
C73   C     C_3   0.880692 0.352773 0.464804 -0.216391
C74   C     C_3   0.135894 0.284699 0.542972 -0.222230
C75   C     C_3   0.380727 0.853045 0.464834 -0.216272
C76   C     C_3   0.635900 0.784654 0.542981 -0.222170
C77   C     C_3   0.875670 0.348313 0.545054 0.140509
C78   C     C_3   0.135534 0.297284 0.462792 0.159946
C79   C     C_3   0.375705 0.848499 0.545082 0.140436
C80   C     C_3   0.635535 0.797263 0.462801 0.159959
C81   C     C_R   0.743750 0.386121 0.569623 -0.020108
C82   C     C_R   0.254076 0.392821 0.428945 -0.014938
C83   C     C_R   0.243766 0.886154 0.569634 -0.020131
C84   C     C_R   0.754078 0.892807 0.428949 -0.014923
C85   C     C_R   0.724078 0.311893 0.859674 0.577917
C86   C     C_R   0.275712 0.312174 0.140150 0.576251
C87   C     C_R   0.224078 0.811893 0.859674 0.577905
C88   C     C_R   0.775712 0.812174 0.140150 0.576250
C89   C     C_R   0.728089 0.954722 0.647611 0.558837
C90   C     C_R   0.272030 0.953768 0.352059 0.555954
C91   C     C_R   0.228087 0.454729 0.647609 0.558813
C92   C     C_R   0.772027 0.453760 0.352056 0.555964
C93   C     C_R   0.532291 0.176424 0.643012 0.543651
C94   C     C_R   0.471978 0.177061 0.353846 0.548785
C95   C     C_R   0.032284 0.676423 0.643016 0.543658
C96   C     C_R   0.971976 0.677058 0.353847 0.548803
C97   C     C_R   0.738052 0.358027 0.644695 0.552637
C98   C     C_R   0.261033 0.361318 0.354301 0.556391
C99   C     C_R   0.238056 0.858037 0.644700 0.552591
C100  C     C_R   0.761034 0.861313 0.354303 0.556397
C101  C     C_2   0.497691 0.168110 0.920794 -0.110605
C102  C     C_2   0.502551 0.167909 0.079329 -0.110769
C103  C     C_2   0.997691 0.668110 0.920794 -0.110601
C104  C     C_2   0.002551 0.667909 0.079329 -0.110770
C105  C     C_2   0.491072 0.069965 0.037861 -0.160724
C106  C     C_2   0.508559 0.069970 0.961916 -0.160572
C107  C     C_2   0.991072 0.569965 0.037861 -0.160725
C108  C     C_2   0.008559 0.569970 0.961915 -0.160570
C109  C     C_R   0.750450 0.393601 0.080908 0.026293
C110  C     C_R   0.248789 0.395124 0.919425 0.028286
C111  C     C_R   0.250450 0.893601 0.080908 0.026293
C112  C     C_R   0.748789 0.895124 0.919425 0.028291
Cr1   Cr    Cr6+3 0.769260 0.163750 0.750730 0.988945
Cr2   Cr    Cr6+3 0.230740 0.163750 0.249270 0.997546
Cr3   Cr    Cr6+3 0.269260 0.663750 0.750730 0.989012
Cr4   Cr    Cr6+3 0.730740 0.663750 0.249270 0.997563
Cr5   Cr    Cr6+3 0.612640 0.009910 0.748780 0.984703
Cr6   Cr    Cr6+3 0.387360 0.009910 0.251220 0.988631
Cr7   Cr    Cr6+3 0.112640 0.509910 0.748780 0.984727
Cr8   Cr    Cr6+3 0.887360 0.509910 0.251220 0.988631
Cr9   Cr    Cr6+3 0.614190 0.322400 0.747710 1.016091
Cr10  Cr    Cr6+3 0.385810 0.322400 0.252290 1.012853
Cr11  Cr    Cr6+3 0.114190 0.822400 0.747710 1.016100
Cr12  Cr    Cr6+3 0.885810 0.822400 0.252290 1.012856
H1    H     H_    0.467427 0.988106 0.059311 0.144280
H2    H     H_    0.531535 0.987869 0.940137 0.143228
H3    H     H_    0.967426 0.488106 0.059310 0.144280
H4    H     H_    0.031535 0.487869 0.940137 0.143229
H5    H     H_    0.927872 0.889871 0.439896 0.176403
H6    H     H_    0.021100 0.967918 0.561802 0.142156
H7    H     H_    0.427849 0.389837 0.439904 0.176403
H8    H     H_    0.521073 0.467924 0.561807 0.142182
H9    H     H_    0.513239 0.474019 0.436787 0.141732
H10   H     H_    0.435694 0.382446 0.565455 0.142944
H11   H     H_    0.013277 0.974009 0.436785 0.141730
H12   H     H_    0.935708 0.882479 0.565447 0.142941
H13   H     H_    0.640231 0.465274 0.555898 0.136801
H14   H     H_    0.335516 0.530419 0.435033 0.135215
H15   H     H_    0.140236 0.965259 0.555903 0.136824
H16   H     H_    0.835525 0.030391 0.435042 0.135194
H17   H     H_    0.647813 0.478847 0.425371 0.183875
H18   H     H_    0.330222 0.550211 0.564692 0.198680
H19   H     H_    0.147819 0.978830 0.425378 0.183841
H20   H     H_    0.830237 0.050157 0.564703 0.198854
H21   H     H_    0.896354 0.443393 0.445415 0.133521
H22   H     H_    0.102622 0.352947 0.568749 0.123861
H23   H     H_    0.396318 0.943723 0.445472 0.133495
H24   H     H_    0.602619 0.852873 0.568770 0.123904
H25   H     H_    0.908200 0.274372 0.440815 0.139713
H26   H     H_    0.127096 0.190264 0.561748 0.143454
H27   H     H_    0.408296 0.774733 0.440820 0.139756
H28   H     H_    0.627114 0.690210 0.561746 0.143448
H29   H     H_    0.888973 0.437107 0.570875 0.079630
H30   H     H_    0.111043 0.382789 0.443901 0.086705
H31   H     H_    0.388972 0.937280 0.570934 0.079629
H32   H     H_    0.611042 0.882771 0.443920 0.086712
H33   H     H_    0.528114 0.247935 0.057813 0.087538
H34   H     H_    0.472735 0.248322 0.942638 0.086509
H35   H     H_    0.028114 0.747935 0.057813 0.087538
H36   H     H_    0.972735 0.748322 0.942638 0.086508
H37   H     H_    0.838889 0.276137 0.942413 0.131499
H38   H     H_    0.159067 0.283336 0.058658 0.130738
H39   H     H_    0.338889 0.776137 0.942413 0.131499
H40   H     H_    0.659067 0.783336 0.058658 0.130739
H41   H     H_    0.856334 0.323808 0.063165 0.144530
H42   H     H_    0.141500 0.331904 0.938377 0.140059
H43   H     H_    0.356334 0.823808 0.063165 0.144530
H44   H     H_    0.641500 0.831904 0.938377 0.140058
H45   H     H_    0.146360 0.083016 0.057368 0.160776
H46   H     H_    0.856885 0.079418 0.941485 0.159135
H47   H     H_    0.646361 0.583016 0.057368 0.160776
H48   H     H_    0.356885 0.579418 0.941485 0.159138
H49   H     H_    0.581204 0.464094 0.083200 0.077019
H50   H     H_    0.419529 0.457074 0.915919 0.079480
H51   H     H_    0.081204 0.964094 0.083201 0.077018
H52   H     H_    0.919529 0.957074 0.915919 0.079475
H53   H     H_    0.562430 0.409440 0.959589 0.086789
H54   H     H_    0.437759 0.404253 0.039745 0.087332
H55   H     H_    0.062430 0.909439 0.959589 0.086790
H56   H     H_    0.937759 0.904253 0.039745 0.087332
H57   H     H_    0.515011 0.975871 0.558419 0.114693
H58   H     H_    0.509368 0.976522 0.428034 0.107089
H59   H     H_    0.014957 0.475861 0.558438 0.114602
H60   H     H_    0.009341 0.476507 0.428046 0.107061
O1    O     O_R   0.784290 0.290360 0.830540 -0.538890
O2    O     O_R   0.215710 0.290360 0.169460 -0.543186
O3    O     O_R   0.284290 0.790360 0.830540 -0.538867
O4    O     O_R   0.715710 0.790360 0.169460 -0.543182
O5    O     O_R   0.554690 0.080440 0.673480 -0.514009
O6    O     O_R   0.445310 0.080440 0.326520 -0.511159
O7    O     O_R   0.054690 0.580440 0.673480 -0.513983
O8    O     O_R   0.945310 0.580440 0.326520 -0.511150
O9    O     O_R   0.543980 0.282110 0.666770 -0.522585
O10   O     O_R   0.456020 0.282110 0.333230 -0.530258
O11   O     O_R   0.043980 0.782110 0.666770 -0.522600
O12   O     O_R   0.956020 0.782110 0.333230 -0.530259
O13   O     O_R   0.679070 0.374030 0.674430 -0.502572
O14   O     O_R   0.320930 0.374030 0.325570 -0.506789
O15   O     O_R   0.179070 0.874030 0.674430 -0.502550
O16   O     O_R   0.820930 0.874030 0.325570 -0.506788
O17   O     O_3   0.665360 0.165350 0.749070 -0.268117
O18   O     O_3   0.334640 0.165350 0.250930 -0.269092
O19   O     O_3   0.165360 0.665350 0.749070 -0.268113
O20   O     O_3   0.834640 0.665350 0.250930 -0.269091
O21   O     O_R   0.762610 0.041070 0.825230 -0.524215
O22   O     O_R   0.237390 0.041070 0.174770 -0.528536
O23   O     O_R   0.262610 0.541070 0.825230 -0.524161
O24   O     O_R   0.737390 0.541070 0.174770 -0.528534
O25   O     O_R   0.667390 0.924160 0.829970 -0.531470
O26   O     O_R   0.332610 0.924160 0.170030 -0.530261
O27   O     O_R   0.167390 0.424160 0.829970 -0.531475
O28   O     O_R   0.832610 0.424160 0.170030 -0.530264
O29   O     O_R   0.553980 0.081420 0.821780 -0.501131
O30   O     O_R   0.446020 0.081420 0.178220 -0.499711
O31   O     O_R   0.053980 0.581420 0.821780 -0.501130
O32   O     O_R   0.946020 0.581420 0.178220 -0.499714
O33   O     O_R   0.543210 0.283170 0.826740 -0.534939
O34   O     O_R   0.456790 0.283170 0.173260 -0.536003
O35   O     O_R   0.043210 0.783170 0.826740 -0.534943
O36   O     O_R   0.956790 0.783170 0.173260 -0.536003
O37   O     O_R   0.678350 0.375000 0.822720 -0.448724
O38   O     O_R   0.321650 0.375000 0.177280 -0.449101
O39   O     O_R   0.178350 0.875000 0.822720 -0.448729
O40   O     O_R   0.821650 0.875000 0.177280 -0.449101
O41   O     O_R   0.785060 0.289300 0.670580 -0.503759
O42   O     O_R   0.214940 0.289300 0.329420 -0.482253
O43   O     O_R   0.285060 0.789300 0.670580 -0.503841
O44   O     O_R   0.714940 0.789300 0.329420 -0.482244
O45   O     O_R   0.763330 0.040090 0.676940 -0.510305
O46   O     O_R   0.236670 0.040090 0.323060 -0.486568
O47   O     O_R   0.263330 0.540090 0.676940 -0.510290
O48   O     O_R   0.736670 0.540090 0.323060 -0.486557
O49   O     O_R   0.668160 0.923110 0.670000 -0.522802
O50   O     O_R   0.331840 0.923110 0.330000 -0.524991
O51   O     O_R   0.168160 0.423110 0.670000 -0.522791
O52   O     O_R   0.831840 0.423110 0.330000 -0.524998
O53   O     O_3   0.906858 0.242291 0.574057 -0.566176
C113  C     C_3   0.943465 0.269758 0.638264 0.007784
H61   H     H_    0.915660 0.337749 0.671692 0.147149
H62   H     H_    0.996622 0.305118 0.626142 0.119153
C114  C     C_3   0.951858 0.155080 0.682544 -0.348514
H63   H     H_    0.984216 0.087822 0.653886 0.134251
H64   H     H_    0.978572 0.177307 0.733916 0.067612
H65   H     H_    0.899502 0.114869 0.693669 0.181532
O54   O     O_3   0.118871 0.189465 0.425146 -0.550710
C115  C     C_3   0.058576 0.205983 0.380995 -0.008947
H66   H     H_    0.053698 0.299322 0.358671 0.116001
H67   H     H_    0.010959 0.185168 0.412176 0.126194
C116  C     C_3   0.061315 0.120671 0.316992 -0.345669
H68   H     H_    0.068531 0.025048 0.333658 0.138585
H69   H     H_    0.011384 0.127368 0.285801 0.068720
H70   H     H_    0.105466 0.146688 0.282008 0.183806
O55   O     O_3   0.406955 0.742494 0.574041 -0.566169
C117  C     C_3   0.443452 0.769920 0.638318 0.007793
H71   H     H_    0.415494 0.837660 0.671786 0.147368
H72   H     H_    0.496562 0.805601 0.626305 0.119113
C118  C     C_3   0.451997 0.655130 0.682469 -0.348367
H73   H     H_    0.484734 0.588344 0.653878 0.133990
H74   H     H_    0.478382 0.677388 0.734006 0.067680
H75   H     H_    0.399719 0.614333 0.693262 0.181381
O56   O     O_3   0.618871 0.689454 0.425146 -0.550718
C119  C     C_3   0.558568 0.705975 0.381008 -0.008959
H76   H     H_    0.553684 0.799317 0.358692 0.115998
H77   H     H_    0.510957 0.685149 0.412197 0.126239
C120  C     C_3   0.561298 0.620677 0.316999 -0.345692
H78   H     H_    0.568515 0.525052 0.333660 0.138591
H79   H     H_    0.511363 0.627381 0.285815 0.068740
H80   H     H_    0.605445 0.646700 0.282011 0.183789
O57   O     O_3   0.632128 0.551283 0.923751 -0.529768
C121  C     C_3   0.570333 0.606529 0.897152 -0.119436
H81   H     H_    0.538529 0.645143 0.941073 0.082852
H82   H     H_    0.538335 0.541318 0.864882 0.125851
H83   H     H_    0.585361 0.681969 0.861342 0.143612
O58   O     O_3   0.370478 0.549326 0.075235 -0.530861
C122  C     C_3   0.433195 0.602913 0.101350 -0.121934
H84   H     H_    0.465583 0.638963 0.057131 0.083761
H85   H     H_    0.464095 0.537391 0.134080 0.127496
H86   H     H_    0.419491 0.679965 0.136627 0.140681
O59   O     O_3   0.132128 0.051283 0.923751 -0.529768
C123  C     C_3   0.070333 0.106530 0.897153 -0.119435
H87   H     H_    0.038530 0.145145 0.941075 0.082852
H88   H     H_    0.038334 0.041320 0.864883 0.125847
H89   H     H_    0.085361 0.181969 0.861343 0.143612
O60   O     O_3   0.870478 0.049326 0.075235 -0.530861
C124  C     C_3   0.933195 0.102913 0.101349 -0.121934
H90   H     H_    0.965583 0.138965 0.057130 0.083761
H91   H     H_    0.964097 0.037392 0.134078 0.127494
H92   H     H_    0.919491 0.179965 0.136626 0.140680

loop_
_geom_bond_atom_site_label_1
_geom_bond_atom_site_label_2
_ccdc_geom_bond_type
Cr8   O28   S    
C73   C77   S    
C39   C51   S    
C4    C109  S    
C48   O32   A    
C58   C62   A    
O56   C119  S    
C46   O34   A    
Cr3   O23   S    
C14   H38   S    
C45   O33   A    
C41   C42   A    
C14   C18   A    
C35   C39   A    
C122  H84   S    
C34   C93   S    
Cr5   O5    S    
C53   C69   A    
C33   C94   S    
C119  C120  S    
Cr12  O36   S    
Cr7   O7    S    
C51   H5    S    
C9    C25   S    
C63   C79   S    
C35   C96   S    
C42   H58   S    
C23   H51   S    
C15   C19   A    
C49   H7    S    
C113  C114  S    
C116  H68   S    
C37   C38   A    
C21   C25   S    
Cr1   O45   S    
Cr4   O44   S    
C33   C42   A    
C13   C29   A    
C52   H12   S    
C122  H85   S    
C123  H88   S    
O58   C122  S    
C55   C90   S    
C55   C59   A    
Cr8   O8    S    
C1    C112  S    
C54   C58   A    
O55   C117  S    
C25   H53   S    
C103  H36   S    
C66   C82   A    
Cr5   O49   S    
C92   O48   A    
C3    C110  S    
C57   C73   S    
C66   H14   S    
C48   C104  S    
C91   O51   A    
C65   C69   A    
C78   O54   S    
C37   C49   S    
Cr7   O27   S    
C90   O50   A    
C102  C105  D    
C28   O60   S    
C114  H63   S    
C96   O12   A    
C89   O49   A    
C57   C61   A    
C100  O44   A    
C10   C30   A    
C16   C32   A    
C64   C84   A    
C117  H72   S    
C81   C97   S    
C77   H29   S    
C20   C112  A    
C51   H11   S    
C47   O35   A    
C61   C81   A    
Cr8   O32   S    
Cr12  O40   S    
C61   C77   S    
C56   C72   A    
Cr3   O19   S    
C25   O57   S    
C45   O29   A    
O59   C123  S    
Cr2   O18   S    
C24   H52   S    
C4    O24   A    
Cr7   O31   S    
C2    O22   A    
C23   C27   S    
C30   C86   S    
C24   H46   S    
C120  H78   S    
C44   H60   S    
Cr3   O47   S    
C8    C12   A    
C65   H13   S    
C19   C111  A    
C10   C26   S    
C6    C22   S    
C85   O37   A    
C62   C82   A    
C11   C31   A    
Cr1   O17   S    
C14   C30   A    
C94   O10   A    
O57   C121  S    
Cr4   O48   S    
C77   O53   S    
C64   C80   S    
C121  H83   S    
C41   H57   S    
Cr6   O18   S    
C34   C41   A    
C19   H43   S    
Cr10  O10   S    
Cr5   O17   S    
C91   O47   A    
C46   C102  S    
C102  H33   S    
Cr11  O11   S    
Cr2   O2    S    
C22   H50   S    
C62   C78   S    
C80   H32   S    
C113  H62   S    
C26   H54   S    
Cr10  O14   S    
C3    O27   A    
C20   H44   S    
C115  H67   S    
C2    C111  S    
C2    O26   A    
C47   C103  S    
C98   O14   A    
C1    O25   A    
C51   C52   S    
C68   C84   A    
C97   O13   A    
C36   C40   A    
C122  H86   S    
C31   C87   S    
C123  H87   S    
C121  H81   S    
C18   H42   S    
C50   H10   S    
C75   H27   S    
C39   C40   A    
C26   O58   S    
O54   C115  S    
C53   C57   A    
C78   H30   S    
C27   O59   S    
C7    C111  A    
C117  C118  S    
C75   H23   S    
C40   C52   S    
Cr11  O39   S    
Cr11  O35   S    
C92   O52   A    
C16   H40   S    
C99   O43   A    
Cr2   O22   S    
C47   O31   A    
C68   C72   A    
C114  H64   S    
C87   O39   A    
C55   C71   A    
C6    C110  A    
C7    C11   A    
C43   C44   A    
C94   O6    A    
Cr3   O43   S    
C117  H71   S    
Cr2   O42   S    
Cr3   O3    S    
C63   C83   A    
Cr6   O50   S    
Cr6   O26   S    
Cr1   O41   S    
C23   H45   S    
C54   C70   A    
C11   C27   S    
C16   C20   A    
C43   H59   S    
Cr1   O1    S    
Cr12  O12   S    
C53   C92   S    
C88   O40   A    
C79   O55   S    
Cr7   O19   S    
Cr6   O30   S    
C76   H28   S    
Cr4   O24   S    
C67   C83   A    
C108  H4    S    
C118  H74   S    
Cr5   O29   S    
C35   C44   A    
C28   H56   S    
Cr9   O13   S    
C106  H2    S    
C103  C108  D    
C50   H8    S    
C100  O16   A    
Cr7   O51   S    
C56   C89   S    
C12   C28   S    
C101  H34   S    
C86   O2    A    
C116  H69   S    
C21   H49   S    
C123  H89   S    
C45   C101  S    
Cr10  O38   S    
Cr8   O20   S    
C82   C98   S    
C121  H82   S    
C68   H16   S    
C52   H6    S    
C12   C32   A    
C107  C108  S    
C99   O15   A    
C13   H37   S    
Cr9   O9    S    
C59   C75   S    
C118  H73   S    
C67   H15   S    
C58   C74   S    
C24   C28   S    
C71   H19   S    
C48   O36   A    
Cr11  O15   S    
C101  C106  D    
C72   H20   S    
C49   H9    S    
C115  H66   S    
O60   C124  S    
C116  H70   S    
C95   O11   A    
C93   O5    A    
Cr10  O34   S    
C85   O1    A    
C73   H25   S    
C34   C38   A    
C29   C85   S    
C74   H22   S    
C70   H18   S    
C93   O9    A    
C80   O56   S    
C76   C80   S    
C27   H55   S    
C17   C109  A    
Cr2   O46   S    
C124  H90   S    
C87   O3    A    
C15   C31   A    
C119  H76   S    
C38   C50   S    
C95   O7    A    
C124  H92   S    
Cr9   O33   S    
C86   O38   A    
C105  C106  S    
Cr12  O16   S    
Cr4   O20   S    
C59   C63   A    
C4    O28   A    
C83   C99   S    
C105  H1    S    
C97   O41   A    
C60   C64   A    
C118  H75   S    
C3    O23   A    
C114  H65   S    
Cr5   O25   S    
C79   H31   S    
C74   H26   S    
Cr9   O17   S    
C54   C91   S    
C124  H91   S    
C120  H79   S    
C21   H47   S    
Cr8   O52   S    
C9    C29   A    
Cr6   O6    S    
C36   C95   S    
C96   O8    A    
C66   C70   A    
C5    C109  A    
C7    C23   S    
C113  H61   S    
C1    O21   A    
Cr4   O4    S    
C8    C112  A    
C60   C76   S    
C67   C71   A    
C104  C107  D    
C120  H80   S    
C33   C37   A    
Cr12  O20   S    
C84   C100  S    
C6    C10   A    
C107  H3    S    
C13   C17   A    
C56   C60   A    
Cr10  O18   S    
C88   O4    A    
C119  H77   S    
C5    C21   S    
C8    C24   S    
C76   H24   S    
C46   O30   A    
C18   C110  A    
C49   C50   S    
C22   C26   S    
C69   H17   S    
C73   H21   S    
Cr9   O37   S    
C65   C81   A    
C90   O46   A    
C36   C43   A    
C17   H41   S    
C5    C9    A    
C104  H35   S    
Cr11  O19   S    
C89   O45   A    
O53   C113  S    
C75   C79   S    
C15   H39   S    
C22   H48   S    
Cr1   O21   S    
C74   C78   S    
C98   O42   A    
C115  C116  S    
C32   C88   S    
