data_mof_unit_35898.cif
_audit_creation_date              2012-12-10T18:42:29-0500
_audit_creation_method            fapswitch 2.2
_symmetry_space_group_name_H-M    P1
_symmetry_Int_Tables_number       1
_space_group_crystal_system       triclinic
_cell_length_a                    8.579698
_cell_length_b                    10.622989
_cell_length_c                    9.86591
_cell_angle_alpha                 89.960374
_cell_angle_beta                  98.59695
_cell_angle_gamma                 90.22604
_cell_volume                      889.089119262

loop_
_atom_site_label
_atom_site_type_symbol
_atom_type_description
_atom_site_fract_x
_atom_site_fract_y
_atom_site_fract_z
_atom_type_partial_charge
C1    C     C_R   0.499976 0.260654 0.500014 0.872417
C2    C     C_R   0.500023 0.739346 0.499986 0.872426
C3    C     C_R   0.201175 0.500237 0.464128 0.947281
C4    C     C_R   0.798825 0.499762 0.535872 0.947282
C5    C     C_2   0.036017 0.500327 0.444840 -0.379082
C6    C     C_2   0.963983 0.499672 0.555160 -0.379078
C7    C     C_R   0.354816 0.065032 0.466538 -0.041752
C8    C     C_R   0.645190 0.934968 0.533452 -0.041737
C9    C     C_R   0.354222 0.933855 0.469399 0.171461
C10   C     C_R   0.645782 0.066146 0.530596 0.171462
C11   C     C_R   0.500036 0.872027 0.499718 -0.165213
C12   C     C_R   0.499966 0.127973 0.500280 -0.165211
C13   C     C_R   0.601002 0.575931 0.084897 -0.057291
C14   C     C_R   0.398998 0.424069 0.915103 -0.057291
C15   C     C_R   0.600943 0.575912 0.941162 -0.050354
C16   C     C_R   0.399057 0.424088 0.058838 -0.050354
H1    H     H_    0.974184 0.500885 0.340185 0.188461
H2    H     H_    0.025816 0.499114 0.659815 0.188461
H3    H     H_    0.681857 0.636702 0.149632 0.133540
H4    H     H_    0.318142 0.363297 0.850368 0.133540
H5    H     H_    0.681713 0.636695 0.897273 0.148354
H6    H     H_    0.318287 0.363305 0.102727 0.148352
N1    N     N_R   0.499960 0.499970 0.857200 -0.086830
N2    N     N_R   0.500040 0.500030 0.142800 -0.086830
O1    O     O_R   0.499990 0.316750 0.614620 -0.619456
O2    O     O_R   0.500010 0.683250 0.385380 -0.619453
O3    O     O_R   0.499990 0.316780 0.385290 -0.607747
O4    O     O_R   0.500010 0.683220 0.614710 -0.607747
O5    O     O_R   0.271750 0.499990 0.587840 -0.620457
O6    O     O_R   0.728250 0.500010 0.412160 -0.620458
O7    O     O_R   0.271750 0.500010 0.358510 -0.620704
O8    O     O_R   0.728250 0.499990 0.641490 -0.620704
Zn1   Zn    Zn3+2 0.500000 0.499980 0.653120 0.958430
Zn2   Zn    Zn3+2 0.500000 0.500020 0.346880 0.958431
C17   C     C_2   0.207462 0.138547 0.426473 0.391083
H7    H     H_    0.185621 0.222237 0.483615 0.048028
O9    O     O_2   0.113888 0.110063 0.325330 -0.561004
C18   C     C_2   0.792536 0.861451 0.573517 0.391085
H8    H     H_    0.814378 0.777764 0.516374 0.048032
O10   O     O_2   0.886105 0.889932 0.674664 -0.561015
C19   C     C_3   0.201633 0.857894 0.448227 -0.773877
H9    H     H_    0.200961 0.789782 0.533574 0.225479
H10   H     H_    0.094426 0.915336 0.448079 0.261573
H11   H     H_    0.191604 0.805286 0.350096 0.237645
C20   C     C_3   0.798365 0.142108 0.551781 -0.773879
H12   H     H_    0.799043 0.210216 0.466430 0.225485
H13   H     H_    0.808362 0.194722 0.649905 0.237642
H14   H     H_    0.905589 0.084674 0.551961 0.261574

loop_
_geom_bond_atom_site_label_1
_geom_bond_atom_site_label_2
_ccdc_geom_bond_type
C14   N1    A    
C3    O7    A    
C14   H4    S    
C9    C11   A    
C19   H9    S    
C9    C19   S    
C17   H7    S    
C13   C15   A    
C1    O3    A    
O8    Zn1   S    
C10   C20   S    
C15   N1    A    
O7    Zn2   S    
C16   N2    A    
C20   H12   S    
C1    O1    A    
C19   H10   S    
C3    O5    A    
C4    O8    A    
C1    C12   S    
C10   C12   A    
C8    C11   A    
C5    C6    D    
C2    C11   S    
C4    C6    S    
C18   O10   D    
O4    Zn1   S    
C8    C18   S    
O3    Zn2   S    
C7    C12   A    
C6    H2    S    
C19   H11   S    
C14   C16   A    
C20   H14   S    
C5    H1    S    
C13   H3    S    
O5    Zn1   S    
C15   H5    S    
C18   H8    S    
N1    Zn1   S    
C2    O2    A    
C20   H13   S    
C7    C9    A    
O6    Zn2   S    
C2    O4    A    
C16   H6    S    
C17   O9    D    
C7    C17   S    
O2    Zn2   S    
C8    C10   A    
C4    O6    A    
C13   N2    A    
O1    Zn1   S    
C3    C5    S    
N2    Zn2   S    
