data_mof_unit_65350.cif
_audit_creation_date              2012-12-10T16:53:44-0500
_audit_creation_method            fapswitch 2.2
_symmetry_space_group_name_H-M    P1
_symmetry_Int_Tables_number       1
_space_group_crystal_system       triclinic
_cell_length_a                    30.79373
_cell_length_b                    30.793186
_cell_length_c                    21.143215
_cell_angle_alpha                 90.00001
_cell_angle_beta                  136.422735
_cell_angle_gamma                 90.0
_cell_volume                      13820.2683299

loop_
_atom_site_label
_atom_site_type_symbol
_atom_type_description
_atom_site_fract_x
_atom_site_fract_y
_atom_site_fract_z
_atom_type_partial_charge
C1    C     C_R   0.806722 0.809525 0.494595 0.974391
C2    C     C_R   0.558971 0.438851 0.499615 0.999572
C3    C     C_R   0.560954 0.559156 0.499601 0.996180
C4    C     C_R   0.441029 0.438851 0.500385 0.999572
C5    C     C_R   0.939046 0.059157 0.500399 0.996180
C6    C     C_R   0.058970 0.938851 0.499615 0.999572
C7    C     C_R   0.060954 0.059156 0.499601 0.996180
C8    C     C_R   0.941029 0.938851 0.500385 0.999572
C9    C     C_R   0.664135 0.749893 0.328300 0.896169
C10   C     C_R   0.335862 0.250111 0.671700 0.896713
C11   C     C_R   0.335865 0.749893 0.671700 0.896170
C12   C     C_R   0.193169 0.190584 0.505402 0.973414
C13   C     C_R   0.664138 0.250111 0.328300 0.896713
C14   C     C_R   0.164135 0.249893 0.328300 0.896169
C15   C     C_R   0.835862 0.750111 0.671700 0.896713
C16   C     C_R   0.835865 0.249893 0.671700 0.896170
C17   C     C_R   0.164138 0.750111 0.328300 0.896713
C18   C     C_1   0.613429 0.749799 0.226723 -0.134234
C19   C     C_1   0.386565 0.250189 0.773277 -0.133890
C20   C     C_1   0.386572 0.749799 0.773277 -0.134235
C21   C     C_1   0.613435 0.250189 0.226723 -0.133890
C22   C     C_1   0.113429 0.249799 0.226723 -0.134234
C23   C     C_R   0.193277 0.809526 0.505405 0.974392
C24   C     C_1   0.886565 0.750189 0.773277 -0.133890
C25   C     C_1   0.886571 0.249799 0.773277 -0.134235
C26   C     C_1   0.113435 0.750189 0.226723 -0.133890
C27   C     C_1   0.571153 0.749769 0.142156 0.029776
C28   C     C_1   0.428847 0.250190 0.857844 0.030321
C29   C     C_1   0.428847 0.749769 0.857844 0.029776
C30   C     C_1   0.571152 0.250190 0.142156 0.030321
C31   C     C_1   0.071153 0.249769 0.142156 0.029776
C32   C     C_1   0.928848 0.750190 0.857844 0.030321
C33   C     C_1   0.928847 0.249769 0.857844 0.029776
C34   C     C_R   0.806831 0.190584 0.494598 0.973413
C35   C     C_1   0.071152 0.750190 0.142156 0.030321
C36   C     C_1   0.521170 0.749757 0.042284 0.031177
C37   C     C_1   0.478832 0.250181 0.957716 0.031566
C38   C     C_1   0.478830 0.749757 0.957716 0.031177
C39   C     C_1   0.521168 0.250181 0.042284 0.031566
C40   C     C_1   0.021170 0.249757 0.042284 0.031177
C41   C     C_1   0.978832 0.750181 0.957716 0.031566
C42   C     C_1   0.978830 0.249757 0.957716 0.031177
C43   C     C_1   0.021168 0.750181 0.042284 0.031566
C44   C     C_2   0.871042 0.877009 0.428094 -0.215570
C45   C     C_R   0.306722 0.309526 0.494595 0.974390
C46   C     C_2   0.158749 0.093155 0.571806 -0.226318
C47   C     C_2   0.128958 0.877009 0.571905 -0.215570
C48   C     C_2   0.841251 0.093155 0.428194 -0.226317
C49   C     C_2   0.371042 0.377009 0.428094 -0.215570
C50   C     C_2   0.658749 0.593155 0.571806 -0.226318
C51   C     C_2   0.628958 0.377009 0.571905 -0.215570
C52   C     C_2   0.341251 0.593155 0.428194 -0.226317
C53   C     C_2   0.913897 0.901699 0.502505 -0.385627
C54   C     C_2   0.097024 0.087353 0.497436 -0.403410
C55   C     C_2   0.086102 0.901699 0.497495 -0.385627
C56   C     C_R   0.693169 0.690584 0.505402 0.973414
C57   C     C_2   0.902976 0.087353 0.502564 -0.403411
C58   C     C_2   0.413897 0.401699 0.502505 -0.385627
C59   C     C_2   0.597024 0.587353 0.497436 -0.403411
C60   C     C_2   0.586102 0.401699 0.497495 -0.385627
C61   C     C_2   0.402976 0.587353 0.502564 -0.403411
C62   C     C_2   0.843334 0.839774 0.431559 0.442704
C63   C     C_2   0.194264 0.122606 0.568380 0.443029
C64   C     C_2   0.156666 0.839774 0.568441 0.442704
C65   C     C_2   0.805736 0.122607 0.431620 0.443028
C66   C     C_2   0.343334 0.339774 0.431559 0.442704
C67   C     C_R   0.693277 0.309526 0.505405 0.974392
C68   C     C_2   0.694264 0.622606 0.568380 0.443030
C69   C     C_2   0.656666 0.339774 0.568441 0.442704
C70   C     C_2   0.305736 0.622607 0.431620 0.443028
C71   C     C_2   0.833098 0.843259 0.483461 -0.462369
C72   C     C_2   0.164966 0.158666 0.516507 -0.469102
C73   C     C_2   0.166902 0.843259 0.516539 -0.462369
C74   C     C_2   0.835033 0.158666 0.483493 -0.469101
C75   C     C_2   0.333098 0.343259 0.483461 -0.462369
C76   C     C_2   0.664966 0.658666 0.516507 -0.469103
C77   C     C_2   0.666902 0.343259 0.516539 -0.462369
C78   C     C_R   0.306831 0.690584 0.494598 0.973413
C79   C     C_2   0.335033 0.658666 0.483493 -0.469101
C80   C     C_R   0.439046 0.559156 0.500399 0.996180
H1    H     H_    0.857360 0.883694 0.365121 0.192455
H2    H     H_    0.072915 0.101681 0.431733 0.163593
H3    H     H_    0.067678 0.893067 0.431769 0.163918
H4    H     H_    0.927085 0.101680 0.568267 0.163593
H5    H     H_    0.432322 0.393067 0.568231 0.163919
H6    H     H_    0.572915 0.601680 0.431733 0.163593
H7    H     H_    0.567678 0.393067 0.431769 0.163918
H8    H     H_    0.427085 0.601680 0.568267 0.163593
H9    H     H_    0.839952 0.874217 0.514431 0.144911
H10   H     H_    0.118603 0.167217 0.485527 0.140613
H11   H     H_    0.160048 0.874217 0.485569 0.144911
H12   H     H_    0.183410 0.075470 0.634745 0.193845
H13   H     H_    0.881397 0.167217 0.514473 0.140612
H14   H     H_    0.339952 0.374217 0.514431 0.144911
H15   H     H_    0.618603 0.667217 0.485527 0.140613
H16   H     H_    0.660048 0.374217 0.485569 0.144911
H17   H     H_    0.381397 0.667217 0.514473 0.140612
H18   H     H_    0.788376 0.824628 0.240993 0.351991
H19   H     H_    0.304214 0.082759 0.759000 0.354499
H20   H     H_    0.211624 0.824629 0.759007 0.351991
H21   H     H_    0.695786 0.082759 0.241000 0.354499
H22   H     H_    0.288376 0.324629 0.240993 0.351991
H23   H     H_    0.142640 0.883695 0.634879 0.192455
H24   H     H_    0.804214 0.582759 0.759000 0.354499
H25   H     H_    0.711623 0.324629 0.759007 0.351991
H26   H     H_    0.195786 0.582759 0.241000 0.354499
H27   H     H_    0.816590 0.075470 0.365255 0.193845
H28   H     H_    0.357361 0.383694 0.365121 0.192455
H29   H     H_    0.683410 0.575470 0.634745 0.193845
H30   H     H_    0.642640 0.383694 0.634879 0.192455
H31   H     H_    0.316590 0.575470 0.365255 0.193845
H32   H     H_    0.932322 0.893067 0.568231 0.163919
O1    O     O_R   0.820750 0.769700 0.499970 -0.547675
O2    O     O_R   0.230310 0.179230 0.500010 -0.548716
O3    O     O_R   0.230310 0.820770 0.500010 -0.622775
O4    O     O_R   0.769690 0.179230 0.499990 -0.548716
O5    O     O_R   0.269690 0.320770 0.499990 -0.622775
O6    O     O_R   0.730310 0.679230 0.500010 -0.548716
O7    O     O_R   0.730310 0.320770 0.500010 -0.622775
O8    O     O_R   0.269690 0.679230 0.499990 -0.548716
O9    O     O_R   0.712390 0.724470 0.373700 -0.567390
O10   O     O_R   0.287610 0.275530 0.626300 -0.616348
O11   O     O_R   0.287610 0.724470 0.626300 -0.567390
O12   O     O_R   0.179250 0.230300 0.500030 -0.627471
O13   O     O_R   0.712390 0.275530 0.373700 -0.616348
O14   O     O_R   0.212390 0.224470 0.373700 -0.567390
O15   O     O_R   0.787610 0.775530 0.626300 -0.616348
O16   O     O_R   0.787610 0.224470 0.626300 -0.567390
O17   O     O_R   0.212390 0.775530 0.373700 -0.616348
O18   O     O_R   0.661330 0.775540 0.373730 -0.612848
O19   O     O_R   0.338670 0.224460 0.626270 -0.563269
O20   O     O_R   0.338670 0.775540 0.626270 -0.612848
O21   O     O_R   0.661330 0.224460 0.373730 -0.563269
O22   O     O_R   0.161330 0.275540 0.373730 -0.612848
O23   O     O_R   0.179250 0.769700 0.500030 -0.547675
O24   O     O_R   0.838670 0.724460 0.626270 -0.563269
O25   O     O_R   0.838670 0.275540 0.626270 -0.612848
O26   O     O_R   0.161330 0.724460 0.373730 -0.563269
O27   O     O_R   0.419140 0.545230 0.428730 -0.619069
O28   O     O_R   0.580860 0.454770 0.571270 -0.619767
O29   O     O_R   0.580860 0.545230 0.571270 -0.619069
O30   O     O_R   0.419140 0.454770 0.428730 -0.619767
O31   O     O_R   0.919140 0.045230 0.428730 -0.619069
O32   O     O_R   0.080860 0.954770 0.571270 -0.619768
O33   O     O_R   0.080860 0.045230 0.571270 -0.619069
O34   O     O_R   0.820750 0.230300 0.499970 -0.627471
O35   O     O_R   0.919140 0.954770 0.428730 -0.619767
O36   O     O_R   0.490420 0.545230 0.571310 -0.623189
O37   O     O_R   0.509580 0.454770 0.428690 -0.623053
O38   O     O_R   0.509580 0.545230 0.428690 -0.623188
O39   O     O_R   0.490420 0.454770 0.571310 -0.623053
O40   O     O_R   0.990420 0.045230 0.571310 -0.623189
O41   O     O_R   0.009580 0.954770 0.428690 -0.623053
O42   O     O_R   0.009580 0.045230 0.428690 -0.623188
O43   O     O_R   0.990420 0.954770 0.571310 -0.623053
O44   O     O_2   0.863109 0.756733 0.420502 -0.206623
O45   O     O_R   0.320750 0.269700 0.499970 -0.547675
O46   O     O_2   0.753659 0.781676 0.306553 -0.327603
O47   O     O_3   0.825301 0.805945 0.288934 -0.514256
O48   O     O_2   0.282919 0.097423 0.579611 -0.220664
O49   O     O_2   0.314522 0.150141 0.693545 -0.323409
O50   O     O_3   0.299044 0.069702 0.711038 -0.517398
O51   O     O_2   0.136891 0.756733 0.579499 -0.206623
O52   O     O_2   0.246341 0.781676 0.693447 -0.327603
O53   O     O_3   0.174699 0.805945 0.711067 -0.514256
O54   O     O_2   0.717081 0.097423 0.420388 -0.220663
O55   O     O_2   0.685478 0.150141 0.306454 -0.323410
O56   O     O_R   0.679250 0.730300 0.500030 -0.627471
O57   O     O_3   0.700956 0.069702 0.288961 -0.517398
O58   O     O_2   0.363109 0.256733 0.420502 -0.206623
O59   O     O_2   0.253659 0.281676 0.306553 -0.327602
O60   O     O_3   0.325301 0.305945 0.288934 -0.514256
O61   O     O_2   0.782919 0.597423 0.579611 -0.220663
O62   O     O_2   0.814522 0.650140 0.693545 -0.323409
O63   O     O_3   0.799044 0.569702 0.711038 -0.517398
O64   O     O_2   0.636891 0.256733 0.579498 -0.206623
O65   O     O_2   0.746341 0.281676 0.693446 -0.327602
O66   O     O_3   0.674699 0.305945 0.711066 -0.514256
O67   O     O_R   0.679250 0.269700 0.500030 -0.547674
O68   O     O_2   0.217081 0.597423 0.420388 -0.220663
O69   O     O_2   0.185478 0.650141 0.306454 -0.323410
O70   O     O_3   0.200956 0.569702 0.288961 -0.517398
O71   O     O_R   0.320750 0.730300 0.499970 -0.627471
O72   O     O_R   0.769690 0.820770 0.499990 -0.622775
S1    S     S_3+6 0.820237 0.794334 0.361168 0.070085
S2    S     S_3+6 0.274742 0.110725 0.638864 0.063592
S3    S     S_3+6 0.179763 0.794334 0.638832 0.070085
S4    S     S_3+6 0.725258 0.110725 0.361136 0.063592
S5    S     S_3+6 0.320237 0.294334 0.361168 0.070085
S6    S     S_3+6 0.774742 0.610725 0.638864 0.063592
S7    S     S_3+6 0.679763 0.294334 0.638832 0.070085
S8    S     S_3+6 0.225258 0.610725 0.361136 0.063592
Zn1   Zn    Zn3+2 0.784090 0.715900 0.499990 1.151981
Zn2   Zn    Zn3+2 0.547600 0.500000 0.595200 0.993059
Zn3   Zn    Zn3+2 0.952400 1.000000 0.404800 0.993059
Zn4   Zn    Zn3+2 0.047600 1.000000 0.595200 0.993059
Zn5   Zn    Zn3+2 0.215910 0.284100 0.500010 1.002488
Zn6   Zn    Zn3+2 0.215910 0.715900 0.500010 1.151981
Zn7   Zn    Zn3+2 0.784090 0.284100 0.499990 1.002488
Zn8   Zn    Zn3+2 0.284090 0.215900 0.499990 1.151981
Zn9   Zn    Zn3+2 0.715910 0.784100 0.500010 1.002488
Zn10  Zn    Zn3+2 0.715910 0.215900 0.500010 1.151981
Zn11  Zn    Zn3+2 0.284090 0.784100 0.499990 1.002488
Zn12  Zn    Zn3+2 0.452400 0.500000 0.404800 0.993059

loop_
_geom_bond_atom_site_label_1
_geom_bond_atom_site_label_2
_ccdc_geom_bond_type
O22   Zn5   S    
C58   H5    S    
O65   S7    D    
O11   Zn6   S    
C69   C77   D    
C16   O25   A    
C67   C77   S    
O48   S2    D    
C6    C55   S    
O52   S3    D    
C11   O20   A    
C69   S7    S    
O23   Zn6   S    
C70   S8    S    
C48   C57   D    
C9    O18   A    
C31   C40   S    
O58   S5    D    
O53   S3    S    
C5    O40   A    
C1    O1    A    
O7    Zn7   S    
C50   C59   D    
O39   Zn2   S    
C45   O5    A    
C52   C61   D    
C76   H15   S    
C4    O30   A    
O69   S8    D    
C2    C60   S    
C5    O31   A    
C48   H27   S    
C46   H12   S    
O55   S4    D    
C61   C80   S    
C34   O4    A    
C66   S5    S    
O61   S6    D    
C16   C25   S    
O56   Zn9   S    
O59   S5    D    
O51   S3    D    
C78   O71   A    
O34   Zn7   S    
O6    Zn1   S    
C8    O43   A    
C10   O19   A    
H26   O70   S    
O33   Zn4   S    
O43   Zn4   S    
C44   C53   D    
C60   H7    S    
O25   Zn7   S    
C3    O38   A    
C3    O29   A    
C29   C38   S    
C30   C39   S    
O8    Zn6   S    
C32   C41   S    
O35   Zn3   S    
C17   O26   A    
O38   Zn12  S    
C48   C65   S    
C49   H28   S    
C35   C43   S    
H25   O66   S    
C13   O13   A    
C2    O37   A    
C40   C42   T    
C12   C72   S    
C65   S4    S    
O2    Zn8   S    
C41   C43   T    
C74   H13   S    
C56   O56   A    
O70   S8    S    
C23   C73   S    
C6    O32   A    
O9    Zn1   S    
C1    O72   A    
H24   O63   S    
C12   O2    A    
C20   C29   T    
H22   O60   S    
C11   C20   S    
C47   H23   S    
C49   C66   S    
O40   Zn4   S    
C17   O17   A    
C6    O41   A    
C45   O45   A    
C73   H11   S    
C44   H1    S    
C22   C31   T    
C47   C64   S    
O50   S2    S    
C78   C79   S    
O64   S7    D    
O16   Zn10  S    
C15   O24   A    
C14   O22   A    
C52   H31   S    
C44   C62   S    
O44   S1    D    
O63   S6    S    
O12   Zn5   S    
C50   H29   S    
C65   C74   D    
O3    Zn11  S    
H20   O53   S    
O30   Zn12  S    
C78   O8    A    
C67   O7    A    
C24   C32   T    
O49   S2    D    
C61   H8    S    
H19   O50   S    
C72   H10   S    
C26   C35   T    
C9    O9    A    
O41   Zn3   S    
O67   Zn10  S    
C68   S6    S    
C10   C19   S    
C64   C73   D    
C63   S2    S    
O31   Zn3   S    
C46   C54   D    
C57   H4    S    
C13   C21   S    
C1    C71   S    
H18   O47   S    
H21   O57   S    
C19   C28   T    
C16   O16   A    
O37   Zn12  S    
C45   C75   S    
O18   Zn9   S    
C71   H9    S    
O62   S6    D    
C62   S1    S    
O42   Zn3   S    
O26   Zn6   S    
C53   H32   S    
O36   Zn2   S    
C15   C24   S    
C34   C74   S    
C51   H30   S    
C56   C76   S    
O68   S8    D    
O60   S5    S    
O54   S4    D    
C8    O35   A    
C17   C26   S    
C55   H3    S    
O46   S1    D    
C54   H2    S    
O5    Zn5   S    
C47   C55   D    
O14   Zn8   S    
O21   Zn10  S    
C4    O39   A    
C33   C42   S    
O20   Zn11  S    
O72   Zn9   S    
C70   C79   D    
O1    Zn1   S    
C79   H17   S    
C11   O11   A    
C18   C27   T    
O57   S4    S    
C10   O10   A    
C8    C53   S    
O4    Zn10  S    
O32   Zn4   S    
C23   O23   A    
C27   C36   S    
C68   C76   D    
C80   O27   A    
C21   C30   T    
C77   H16   S    
C14   O14   A    
C5    C57   S    
C46   C63   S    
O27   Zn12  S    
O45   Zn8   S    
C2    O28   A    
C14   C22   S    
C36   C38   T    
O19   Zn8   S    
C59   H6    S    
O71   Zn11  S    
O24   Zn1   S    
C37   C39   T    
C67   O67   A    
C56   O6    A    
O66   S7    S    
C34   O34   A    
O47   S1    S    
C7    O42   A    
O28   Zn2   S    
C28   C37   S    
C66   C75   D    
C62   C71   D    
O29   Zn2   S    
O15   Zn9   S    
O10   Zn5   S    
C13   O21   A    
C64   S3    S    
C52   C70   S    
C49   C58   D    
C23   O3    A    
O17   Zn11  S    
C9    C18   S    
C80   O36   A    
C63   C72   D    
O13   Zn7   S    
C4    C58   S    
C15   O15   A    
C51   C60   D    
C51   C69   S    
C7    C54   S    
C50   C68   S    
C12   O12   A    
C75   H14   S    
C25   C33   T    
C7    O33   A    
C3    C59   S    
