data_mof_unit_29451.cif
_audit_creation_date              2013-03-05T15:53:46-0500
_audit_creation_method            fapswitch 2.2
_symmetry_space_group_name_H-M    P1
_symmetry_Int_Tables_number       1
_space_group_crystal_system       triclinic
_cell_length_a                    7.049876
_cell_length_b                    11.88779
_cell_length_c                    35.987241
_cell_angle_alpha                 89.986307
_cell_angle_beta                  91.369285
_cell_angle_gamma                 90.007541
_cell_volume                      3015.1373882

loop_
_atom_site_label
_atom_site_type_symbol
_atom_site_description
_atom_site_fract_x
_atom_site_fract_y
_atom_site_fract_z
_atom_type_partial_charge
O1    O     O_R   0.379730 0.148600 0.662710 -0.588592
O2    O     O_R   0.620270 0.851400 0.337290 -0.588620
O3    O     O_R   0.120270 0.648600 0.337290 -0.590119
O4    O     O_R   0.879730 0.351400 0.662710 -0.590126
O5    O     O_R   0.722480 0.134490 0.741330 -0.569029
O6    O     O_R   0.277520 0.865510 0.258670 -0.569024
O7    O     O_R   0.777520 0.634490 0.258670 -0.585322
O8    O     O_R   0.222480 0.365510 0.741330 -0.585494
O9    O     O_R   0.892880 0.345890 0.741600 -0.568744
O10   O     O_R   0.107120 0.654110 0.258400 -0.568709
O11   O     O_R   0.607120 0.845890 0.258400 -0.591096
O12   O     O_R   0.392880 0.154110 0.741600 -0.591065
C1    C     C_R   0.553602 0.111836 0.753979 0.943234
C2    C     C_R   0.446411 0.888230 0.246042 0.943319
C3    C     C_R   0.945743 0.612115 0.245998 0.933898
C4    C     C_R   0.054260 0.387897 0.753995 0.934055
O13   O     O_R   0.709490 0.135560 0.662990 -0.587306
O14   O     O_R   0.290510 0.864440 0.337010 -0.587330
O15   O     O_R   0.790510 0.635560 0.337010 -0.585393
O16   O     O_R   0.209490 0.364440 0.662990 -0.585394
C5    C     C_R   0.539513 0.108433 0.650790 0.943508
C6    C     C_R   0.460487 0.891567 0.349210 0.943399
C7    C     C_R   0.960526 0.608418 0.349200 0.944057
C8    C     C_R   0.039474 0.391582 0.650800 0.944039
O17   O     O_3   0.552800 0.316610 0.702160 -0.268200
O18   O     O_3   0.447200 0.683390 0.297840 -0.268139
O19   O     O_3   0.947200 0.816610 0.297840 -0.270016
O20   O     O_3   0.052800 0.183390 0.702160 -0.269959
V1    V     V_3+5 0.827630 0.234380 0.702160 1.244163
V2    V     V_3+5 0.172370 0.765620 0.297840 1.244160
V3    V     V_3+5 0.672370 0.734380 0.297840 1.233758
V4    V     V_3+5 0.327630 0.265620 0.702160 1.233673
C9    C     C_R   0.995430 0.662455 0.912038 0.425182
C10   C     C_R   0.005174 0.337575 0.087932 0.425223
C11   C     C_R   0.454012 0.160278 0.086409 0.424765
C12   C     C_R   0.546526 0.840075 0.913696 0.424888
O21   O     O_2   0.948804 0.553885 0.917600 -0.591975
O22   O     O_2   0.051801 0.446147 0.082376 -0.592081
O23   O     O_2   0.410314 0.051703 0.079588 -0.597656
O24   O     O_2   0.590148 0.948664 0.920508 -0.597682
N1    N     N_R   0.030939 0.701656 0.876828 -0.180244
N2    N     N_R   0.969635 0.298360 0.123143 -0.180245
N3    N     N_R   0.474556 0.198969 0.122365 -0.177331
N4    N     N_R   0.525932 0.801370 0.877743 -0.177354
C13   C     C_R   0.058006 0.815732 0.871898 0.464525
C14   C     C_R   0.942695 0.184261 0.128065 0.463988
C15   C     C_R   0.500007 0.312865 0.128178 0.479927
C16   C     C_R   0.500454 0.687471 0.871936 0.479765
C17   C     C_R   0.985508 0.654601 0.808614 -0.006179
C18   C     C_R   0.014726 0.345420 0.191373 -0.006072
C19   C     C_R   0.398042 0.152806 0.188643 -0.017605
C20   C     C_R   0.602288 0.847444 0.811454 -0.016844
C21   C     C_R   0.985550 0.577899 0.779161 -0.140957
C22   C     C_R   0.014458 0.422102 0.220832 -0.140791
C23   C     C_R   0.388819 0.077803 0.218494 -0.119564
C24   C     C_R   0.611299 0.922360 0.781578 -0.119078
C25   C     C_R   0.112693 0.435794 0.820334 -0.035900
C26   C     C_R   0.887675 0.564246 0.179635 -0.035847
C27   C     C_R   0.537644 0.935374 0.181591 -0.042278
C28   C     C_R   0.462504 0.064855 0.818464 -0.042903
C29   C     C_R   0.109549 0.511663 0.850015 0.052610
C30   C     C_R   0.890968 0.488379 0.149952 0.051921
C31   C     C_R   0.542862 0.009647 0.151432 0.065317
C32   C     C_R   0.457514 0.990664 0.848649 0.064473
C33   C     C_R   0.040991 0.622905 0.845276 0.202927
C34   C     C_R   0.959457 0.377116 0.154698 0.202647
C35   C     C_R   0.470409 0.120334 0.153957 0.185779
C36   C     C_R   0.530035 0.879981 0.846142 0.186080
C37   C     C_R   0.015281 0.851718 0.937767 -0.058878
C38   C     C_R   0.985353 0.148326 0.062186 -0.058696
C39   C     C_R   0.483801 0.350232 0.061769 -0.065138
C40   C     C_R   0.516828 0.650117 0.938343 -0.065206
C41   C     C_R   0.002238 0.734841 0.942961 -0.023568
C42   C     C_R   0.998441 0.265200 0.057001 -0.023428
C43   C     C_R   0.473709 0.233400 0.055960 -0.018399
C44   C     C_R   0.526942 0.766952 0.944150 -0.018250
C45   C     C_R   0.989254 0.691820 0.978925 -0.083628
C46   C     C_R   0.011589 0.308221 0.021039 -0.083496
C47   C     C_R   0.476141 0.191405 0.019732 -0.086386
C48   C     C_R   0.524632 0.808943 0.980380 -0.086401
C49   C     C_R   0.031032 0.893737 0.901307 -0.206727
C50   C     C_R   0.969559 0.106297 0.098642 -0.206442
C51   C     C_R   0.482604 0.391378 0.098509 -0.208139
C52   C     C_R   0.517915 0.608965 0.901604 -0.208222
C53   C     C_R   0.047578 0.467832 0.784992 -0.106995
C54   C     C_R   0.952478 0.532176 0.214996 -0.106668
C55   C     C_R   0.457397 0.968262 0.215012 -0.116948
C56   C     C_R   0.542659 0.031893 0.785037 -0.116749
H1    H     H_    0.165613 0.351555 0.824894 0.178911
H2    H     H_    0.834915 0.648514 0.175060 0.178943
H3    H     H_    0.593603 0.851255 0.178745 0.181017
H4    H     H_    0.406372 0.148946 0.821296 0.180575
H5    H     H_    0.165690 0.482597 0.876395 0.130990
H6    H     H_    0.834984 0.517474 0.123563 0.131012
H7    H     H_    0.609275 0.980338 0.126596 0.143149
H8    H     H_    0.391147 0.020019 0.873486 0.142834
H9    H     H_    0.979358 0.602049 0.983757 0.161471
H10   H     H_    0.021605 0.397990 0.016211 0.161454
H11   H     H_    0.467460 0.101808 0.014421 0.161072
H12   H     H_    0.533366 0.898539 0.985691 0.161043
C57   C     C_R   0.989539 0.956036 0.036576 -0.000215
C58   C     C_R   0.011067 0.044006 0.963374 -0.000087
C59   C     C_R   0.508960 0.457149 0.963284 -0.006196
C60   C     C_R   0.491711 0.543200 0.036831 -0.006092
C61   C     C_R   0.004484 0.118629 0.994455 0.052845
C62   C     C_R   0.996235 0.881416 0.005498 0.052957
C63   C     C_R   0.502802 0.618614 0.006024 0.057579
C64   C     C_R   0.497932 0.381735 0.994090 0.057520
C65   C     C_R   0.992251 0.074022 0.030966 0.106711
C66   C     C_R   0.008408 0.926023 0.968986 0.106880
C67   C     C_R   0.508763 0.574984 0.969300 0.095223
C68   C     C_R   0.491921 0.425366 0.030813 0.095352
C69   C     C_R   0.985079 0.916205 0.073414 -0.253633
C70   C     C_R   0.015288 0.083833 0.926532 -0.253164
C71   C     C_R   0.526444 0.418290 0.926511 -0.264963
C72   C     C_R   0.474112 0.582057 0.073602 -0.265169
C73   C     C_R   0.976366 0.987975 0.104098 0.424694
C74   C     C_R   0.024043 0.012067 0.895839 0.423833
C75   C     C_R   0.532005 0.490995 0.895964 0.434978
C76   C     C_R   0.468459 0.509346 0.104148 0.434864
O25   O     O_2   0.879751 0.146019 0.160651 -0.545747
O26   O     O_2   0.121253 0.853875 0.839323 -0.545341
O27   O     O_2   0.446724 0.650071 0.838032 -0.541327
O28   O     O_2   0.553645 0.350255 0.162088 -0.541331
C77   C     C_R   0.987799 0.762923 0.009485 -0.196811
C78   C     C_R   0.013110 0.237119 0.990475 -0.196928
C79   C     C_R   0.488725 0.263437 0.989509 -0.198981
C80   C     C_R   0.512099 0.736909 0.010605 -0.198981
H13   H     H_    0.059820 0.394819 0.248369 0.114058
H14   H     H_    0.940029 0.605167 0.751632 0.114164
H15   H     H_    0.670597 0.894419 0.755659 0.116332
H16   H     H_    0.329459 0.105690 0.244413 0.116433
H17   H     H_    0.057158 0.261348 0.198236 0.145723
H18   H     H_    0.943114 0.738693 0.801763 0.145671
H19   H     H_    0.651241 0.763633 0.806877 0.145294
H20   H     H_    0.349180 0.236628 0.193240 0.145515
H21   H     H_    0.995764 0.828127 0.079717 0.171195
H22   H     H_    0.004282 0.171908 0.920244 0.171439
H23   H     H_    0.544276 0.330481 0.920499 0.173471
H24   H     H_    0.456232 0.669868 0.079609 0.173536
H25   H     H_    0.974116 0.720996 0.035757 0.148687
H26   H     H_    0.027054 0.279033 0.964205 0.148699
H27   H     H_    0.484978 0.222627 0.962830 0.149874
H28   H     H_    0.515963 0.777708 0.037287 0.149890
C81   C     C_R   0.972365 0.529198 0.380242 -0.145024
C82   C     C_R   0.027636 0.470803 0.619759 -0.145012
C83   C     C_R   0.528335 0.029113 0.619762 -0.145533
C84   C     C_R   0.471666 0.970887 0.380237 -0.145476
C85   C     C_R   0.987662 0.337309 0.403294 0.413425
C86   C     C_R   0.012348 0.662693 0.596707 0.413423
C87   C     C_R   0.534153 0.837236 0.596626 0.406723
C88   C     C_R   0.465858 0.162766 0.403373 0.406733
C89   C     C_R   0.975238 0.413942 0.373715 -0.135663
C90   C     C_R   0.024768 0.586058 0.626285 -0.135669
C91   C     C_R   0.537115 0.913891 0.626241 -0.141258
C92   C     C_R   0.462894 0.086109 0.373758 -0.141296
C93   C     C_R   0.977719 0.570409 0.416428 -0.220246
C94   C     C_R   0.022282 0.429592 0.583572 -0.220249
C95   C     C_R   0.513048 0.070254 0.583619 -0.218674
C96   C     C_R   0.486950 0.929747 0.416381 -0.218672
C97   C     C_R   0.986740 0.497226 0.447378 0.107533
C98   C     C_R   0.013270 0.502777 0.552623 0.107533
C99   C     C_R   0.509361 0.997110 0.552643 0.109082
C100  C     C_R   0.490646 0.002893 0.447356 0.109074
C101  C     C_R   0.998496 0.379227 0.440468 0.020858
C102  C     C_R   0.001518 0.620776 0.559532 0.020862
C103  C     C_R   0.526617 0.879202 0.559434 0.025117
C104  C     C_R   0.473394 0.120801 0.440565 0.025119
C105  C     C_R   0.988283 0.538283 0.484875 0.100396
C106  C     C_R   0.011732 0.461719 0.515125 0.100397
C107  C     C_R   0.494019 0.038188 0.515194 0.099521
C108  C     C_R   0.505991 0.961815 0.484805 0.099525
C109  C     C_R   0.035897 0.346631 0.506887 -0.231462
C110  C     C_R   0.964125 0.653372 0.493113 -0.231464
C111  C     C_R   0.535428 0.846865 0.492838 -0.230355
C112  C     C_R   0.464589 0.153139 0.507162 -0.230354
C113  C     C_R   0.027499 0.306741 0.470708 -0.161981
C114  C     C_R   0.972524 0.693262 0.529293 -0.161981
C115  C     C_R   0.543216 0.806894 0.529011 -0.160639
C116  C     C_R   0.456800 0.193110 0.470988 -0.160636
H29   H     H_    0.052715 0.218011 0.467033 0.185783
H30   H     H_    0.947315 0.781993 0.532968 0.185784
H31   H     H_    0.571393 0.718306 0.532474 0.186399
H32   H     H_    0.428627 0.281699 0.467525 0.186399
H33   H     H_    0.021874 0.339416 0.580796 0.110758
H34   H     H_    0.978119 0.660585 0.419204 0.110755
H35   H     H_    0.489205 0.839577 0.419160 0.110659
H36   H     H_    0.510782 0.160424 0.580841 0.110656
H37   H     H_    0.033751 0.616260 0.654683 0.146074
H38   H     H_    0.966254 0.383740 0.345317 0.146074
H39   H     H_    0.455294 0.116231 0.345339 0.149247
H40   H     H_    0.544716 0.883769 0.654660 0.149272
H41   H     H_    0.065672 0.283959 0.527794 0.139405
H42   H     H_    0.934360 0.716045 0.472207 0.139406
H43   H     H_    0.557198 0.784392 0.471740 0.139134
H44   H     H_    0.442829 0.215616 0.528259 0.139134
N5    N     N_R   0.983904 0.218578 0.394724 0.217775
O29   O     O_R   0.041685 0.183502 0.362661 -0.403729
O30   O     O_R   0.890447 0.148549 0.415148 -0.439865
N6    N     N_R   0.016107 0.781423 0.605277 0.217776
O31   O     O_R   0.958319 0.816499 0.637339 -0.403710
O32   O     O_R   0.109571 0.851451 0.584855 -0.439865
N7    N     N_R   0.534451 0.718460 0.605205 0.217371
O33   O     O_R   0.605526 0.683383 0.636843 -0.404438
O34   O     O_R   0.432591 0.648377 0.585464 -0.439694
N8    N     N_R   0.465561 0.281541 0.394793 0.217371
O35   O     O_R   0.394483 0.316617 0.363155 -0.404443
O36   O     O_R   0.567421 0.351625 0.414534 -0.439696
N9    N     N_R   0.985944 0.937128 0.140398 0.247369
O37   O     O_R   0.102809 0.975912 0.165666 -0.372115
O38   O     O_R   0.912944 0.837972 0.145419 -0.457383
N10   N     N_R   0.014229 0.062914 0.859530 0.247130
O39   O     O_R   0.898437 0.023450 0.834177 -0.372174
O40   O     O_R   0.085589 0.162581 0.854558 -0.456889
N11   N     N_R   0.563354 0.441986 0.859985 0.251664
O41   O     O_R   0.683710 0.487149 0.837681 -0.368433
O42   O     O_R   0.504826 0.340328 0.852820 -0.448742
N12   N     N_R   0.436980 0.558339 0.140124 0.251665
O43   O     O_R   0.316600 0.513141 0.162416 -0.368521
O44   O     O_R   0.495426 0.660007 0.147296 -0.448612

loop_
_geom_bond_atom_site_label_1
_geom_bond_atom_site_label_2
_geom_bond_distance
_ccdc_geom_bond_type
C26   C30   1.398817 A    
C103  C115  1.399233 A    
C107  C108  1.425609 A    
C94   H33   1.076658 S    
C75   N11   1.441797 S    
C50   C73   1.420836 A    
C96   C100  1.413662 A    
O13   V1    2.001295 S    
C105  C106  1.425428 A    
O3    C7    1.304983 A    
C10   N2    1.378605 A    
C17   H18   1.070463 S    
C83   C95   1.391277 A    
C16   O27   1.344597 S    
C28   C56   1.397395 A    
N12   O43   1.297963 A    
O1    C5    1.305463 A    
N7    O34   1.300076 A    
C62   C77   1.417246 A    
C11   C43   1.407961 A    
C18   C22   1.398397 A    
C64   C68   1.421401 A    
C17   C33   1.418016 A    
C61   C78   1.417260 A    
C32   C36   1.415360 A    
C47   H11   1.083638 S    
O20   V1    1.699290 S    
O9    C4    1.310892 A    
C63   C80   1.417265 A    
O10   C3    1.310898 A    
N11   O42   1.300813 A    
N2    C14   1.381541 A    
O4    C8    1.304983 A    
O11   C2    1.307951 A    
C17   C21   1.398359 A    
C24   C56   1.395803 A    
C57   C65   1.417203 A    
C113  H29   1.078399 S    
C86   C102  1.428044 A    
C31   H7    1.076888 S    
C101  C113  1.399117 A    
N10   O39   1.297472 A    
C58   C61   1.429401 A    
C59   C67   1.417492 A    
C84   C96   1.391279 A    
C86   N6    1.444922 S    
N5    O30   1.300013 A    
C85   C89   1.402065 A    
C61   C65   1.421296 A    
C12   C44   1.408029 A    
C98   C102  1.427437 A    
C88   C92   1.402167 A    
C77   H25   1.075074 S    
N6    O31   1.301501 A    
C98   C106  1.434884 A    
C46   H10   1.083727 S    
C105  C110  1.411174 A    
C14   O25   1.342878 S    
C45   H9    1.083729 S    
C59   C64   1.429151 A    
C102  C114  1.399115 A    
C15   C51   1.421091 A    
C11   N3    1.377751 A    
C72   C76   1.399571 A    
C110  C114  1.385697 A    
C115  H31   1.078352 S    
O4    V1    2.027184 S    
C20   C36   1.413528 A    
C108  C111  1.411020 A    
O9    V1    1.988186 S    
C97   C105  1.434885 A    
O17   V4    1.699141 S    
O7    C3    1.308127 A    
C40   C67   1.429909 A    
O15   V3    2.001023 S    
O18   V3    1.699141 S    
O8    C4    1.308042 A    
C60   C72   1.409968 A    
O12   V4    1.987815 S    
O19   V2    1.699290 S    
C21   C53   1.393899 A    
N5    O29   1.301508 A    
C26   C54   1.394788 A    
C111  H43   1.075851 S    
C88   C104  1.428086 A    
C95   H36   1.076637 S    
O16   V4    2.001028 S    
C39   C51   1.410053 A    
C89   H38   1.083706 S    
C28   H4    1.080915 S    
O17   V1    2.170263 S    
C48   H12   1.083637 S    
C31   C35   1.415279 A    
O7    V3    1.999401 S    
C30   C34   1.416991 A    
C107  C112  1.411027 A    
O19   V3    2.170033 S    
O8    V4    1.999402 S    
C14   C50   1.423433 A    
C12   O24   1.348141 S    
C85   C101  1.428042 A    
C93   H34   1.076657 S    
C32   H8    1.076928 S    
C27   C55   1.397237 A    
C4    C53   1.467164 S    
C87   N7    1.445257 S    
C60   C68   1.417490 A    
N8    O35   1.301484 A    
C79   H27   1.075580 S    
C99   C107  1.434958 A    
C48   C80   1.388642 A    
C19   C23   1.398612 A    
C104  C116  1.399235 A    
C86   C90   1.402063 A    
C49   C74   1.421036 A    
C78   H26   1.075122 S    
O1    V4    2.027716 S    
O13   C5    1.306727 A    
C16   C52   1.421041 A    
O2    V3    2.027716 S    
C51   C76   1.420885 A    
O3    V2    2.027184 S    
C11   O23   1.348150 S    
N11   O41   1.297956 A    
N3    C35   1.472533 S    
C38   C42   1.405123 A    
C59   C71   1.409937 A    
C58   C70   1.408713 A    
C38   C65   1.431095 A    
C29   C33   1.416897 A    
O6    C2    1.312580 A    
C7    C81   1.461792 S    
C19   H20   1.068579 S    
O10   V2    1.988191 S    
N12   O44   1.300796 A    
C82   C90   1.390407 A    
O20   V4    2.170033 S    
C99   C103  1.427468 A    
C74   N10   1.439734 S    
C39   C68   1.429903 A    
N9    O37   1.297123 A    
C40   C44   1.406138 A    
C40   C52   1.410049 A    
C112  H44   1.075857 S    
C37   C41   1.405179 A    
C80   H28   1.075600 S    
C70   C74   1.398351 A    
C25   H1    1.079830 S    
C26   H2    1.079842 S    
C3    C54   1.467342 S    
C69   C73   1.398112 A    
C100  C104  1.427467 A    
C9    C41   1.406804 A    
O6    V2    1.998885 S    
C37   C66   1.431039 A    
C6    C84   1.462332 S    
O18   V2    2.170263 S    
C71   C75   1.399519 A    
C30   H6    1.076691 S    
C76   N12   1.441783 S    
C109  H41   1.075840 S    
O14   V2    2.001290 S    
C13   O26   1.342870 S    
C95   C99   1.413664 A    
C27   H3    1.080824 S    
N4    C36   1.472562 S    
C46   C78   1.387564 A    
O5    V1    1.998886 S    
C93   C97   1.413386 A    
C45   C77   1.387454 A    
O15   C7    1.306934 A    
C22   C54   1.393893 A    
C62   C66   1.421315 A    
C88   N8    1.445258 S    
C57   C62   1.429326 A    
C100  C108  1.434959 A    
C47   C79   1.388594 A    
N1    C13   1.381435 A    
C110  H42   1.075835 S    
C10   O22   1.347895 S    
C63   C67   1.421397 A    
C22   H13   1.083616 S    
C12   N4    1.377741 A    
C13   C49   1.423486 A    
C44   C48   1.396698 A    
N10   O40   1.301140 A    
C18   H17   1.070409 S    
C2    C55   1.470286 S    
N1    C33   1.474834 S    
C18   C34   1.418074 A    
C25   C29   1.398716 A    
C82   C94   1.391120 A    
C83   C91   1.390518 A    
C114  H30   1.078398 S    
C81   C93   1.391119 A    
C111  C115  1.385538 A    
C27   C31   1.400103 A    
C87   C91   1.402169 A    
C96   H35   1.076639 S    
C28   C32   1.400170 A    
C69   H21   1.073564 S    
C9    N1    1.378484 A    
O14   C6    1.306729 A    
C81   C89   1.390408 A    
N4    C16   1.381132 A    
C8    C82   1.461795 S    
O2    C6    1.305461 A    
C58   C66   1.417168 A    
C39   C43   1.406113 A    
C15   O28   1.344605 S    
C19   C35   1.413543 A    
N3    C15   1.381111 A    
C52   C75   1.420892 A    
C87   C103  1.428081 A    
O5    C1    1.312610 A    
C1    C56   1.470357 S    
C73   N9    1.439386 S    
N9    O38   1.300431 A    
C25   C53   1.394751 A    
C29   H5    1.076698 S    
C70   H22   1.073563 S    
C64   C79   1.417266 A    
C23   C55   1.395826 A    
C57   C69   1.408678 A    
C38   C50   1.410613 A    
C9    O21   1.347907 S    
C24   H15   1.083474 S    
C37   C49   1.410704 A    
C91   H40   1.083657 S    
C94   C98   1.413384 A    
O11   V3    1.987820 S    
C92   H39   1.083657 S    
C20   C24   1.398555 A    
C112  C116  1.385542 A    
C90   H37   1.083707 S    
O12   C1    1.307963 A    
N6    O32   1.300003 A    
C23   H16   1.083475 S    
C42   C46   1.396600 A    
N2    C34   1.475022 S    
C20   H19   1.068548 S    
C41   C45   1.396528 A    
C5    C83   1.462334 S    
C10   C42   1.406941 A    
C21   H14   1.083610 S    
C84   C92   1.390518 A    
N7    O33   1.301480 A    
C109  C113  1.385694 A    
C71   H23   1.074098 S    
N8    O36   1.300080 A    
C43   C47   1.396670 A    
O16   C8    1.306932 A    
C60   C63   1.429172 A    
C97   C101  1.427438 A    
C116  H32   1.078357 S    
C85   N5    1.444921 S    
C72   H24   1.074131 S    
C106  C109  1.411175 A    
