data_mof_unit_13976.cif
_audit_creation_date              2012-12-11T15:23:46-0500
_audit_creation_method            fapswitch 2.2
_symmetry_space_group_name_H-M    P1
_symmetry_Int_Tables_number       1
_space_group_crystal_system       triclinic
_cell_length_a                    17.487554
_cell_length_b                    24.724494
_cell_length_c                    14.986441
_cell_angle_alpha                 90.170258
_cell_angle_beta                  126.067307
_cell_angle_gamma                 89.902086
_cell_volume                      5237.68759886

loop_
_atom_site_label
_atom_site_type_symbol
_atom_type_description
_atom_site_fract_x
_atom_site_fract_y
_atom_site_fract_z
_atom_type_partial_charge
C1    C     C_R   0.344787 0.351684 0.906543 -0.091806
C2    C     C_R   0.441520 0.499347 0.636167 0.021106
C3    C     C_R   0.064391 0.999670 0.366393 0.041255
C4    C     C_R   0.039405 0.999907 0.713796 0.032544
C5    C     C_R   0.184165 0.497693 0.649564 0.088056
C6    C     C_R   0.822094 0.498265 0.267603 0.073540
C7    C     C_R   0.674158 0.998394 0.693406 0.095068
C8    C     C_R   0.297627 0.997609 0.369038 0.082842
C9    C     C_2   0.975836 0.454603 0.364956 -0.093060
C10   C     C_2   0.071885 0.458000 0.467121 -0.111394
C11   C     C_2   0.421280 0.953334 0.538355 -0.070845
C12   C     C_R   0.645973 0.348712 0.090551 -0.126961
C13   C     C_2   0.522732 0.957509 0.625055 -0.108336
C14   C     C_2   0.923249 0.499192 0.319082 -0.167406
C15   C     C_2   0.095598 0.497945 0.540107 -0.171406
C16   C     C_2   0.370642 0.997873 0.487207 -0.190358
C17   C     C_2   0.572312 0.998601 0.624203 -0.154205
C18   C     C_R   0.377575 0.771104 0.056355 -0.227471
C19   C     C_R   0.770734 0.710490 0.048097 -0.262399
C20   C     C_R   0.673034 0.186582 0.930536 -0.217759
C21   C     C_R   0.292916 0.201357 0.066498 -0.238285
C22   C     C_R   0.617792 0.227075 0.929444 0.534158
C23   C     C_R   0.826089 0.861019 0.908863 -0.105137
C24   C     C_R   0.352850 0.235182 0.061956 0.519025
C25   C     C_R   0.327661 0.814498 0.056653 0.533498
C26   C     C_R   0.825707 0.749430 0.046743 0.526762
C27   C     C_R   0.664724 0.269932 0.005572 -0.040777
C28   C     C_R   0.312508 0.280309 0.992177 -0.059396
C29   C     C_R   0.229721 0.807902 0.002957 -0.119335
C30   C     C_R   0.783629 0.799926 0.001540 -0.080609
C31   C     C_R   0.762869 0.269564 0.085799 -0.217011
C32   C     C_R   0.214569 0.289631 0.924752 -0.234981
C33   C     C_R   0.182390 0.760198 0.948890 -0.176571
C34   C     C_R   0.181962 0.867575 0.093723 0.007806
C35   C     C_R   0.688456 0.810594 0.954256 -0.230620
C36   C     C_R   0.231868 0.718326 0.947151 -0.076516
C37   C     C_R   0.633760 0.770724 0.953986 -0.067107
C38   C     C_R   0.815949 0.229428 0.085848 -0.102181
C39   C     C_R   0.155990 0.255321 0.929375 -0.104073
C40   C     C_R   0.438982 0.648755 0.092173 -0.171541
C41   C     C_R   0.562187 0.648397 0.908448 -0.136319
C42   C     C_R   0.909331 0.129984 0.092762 -0.116662
C43   C     C_R   0.067048 0.146783 0.908977 -0.157435
C44   C     C_R   0.328603 0.724098 0.000711 0.096900
C45   C     C_R   0.376605 0.678544 0.001027 -0.092246
C46   C     C_R   0.676260 0.721596 0.002455 0.116757
C47   C     C_R   0.771157 0.189394 0.005915 0.132987
C48   C     C_R   0.195916 0.212317 0.001878 0.126097
C49   C     C_R   0.400568 0.548433 0.469236 -0.147149
C50   C     C_R   0.400703 0.548459 0.377049 -0.143643
C51   C     C_R   0.094925 0.049176 0.618348 -0.125973
C52   C     C_R   0.101946 0.049094 0.531273 -0.144475
C53   C     C_R   0.411227 0.499517 0.337938 0.125436
C54   C     C_R   0.409918 0.499422 0.521680 0.123260
C55   C     C_R   0.096136 0.999989 0.480678 0.118065
C56   C     C_R   0.622505 0.678989 0.000162 -0.093606
C57   C     C_R   0.082004 0.000155 0.654534 0.128526
C58   C     C_R   0.400183 0.450558 0.376113 -0.134111
C59   C     C_R   0.400264 0.450480 0.468452 -0.139907
C60   C     C_R   0.104549 0.951132 0.532991 -0.143088
C61   C     C_R   0.097817 0.951245 0.620366 -0.121181
C62   C     C_R   0.482303 0.454034 0.250318 -0.117420
C63   C     C_R   0.455034 0.454093 0.698410 -0.120384
C64   C     C_R   0.048320 0.954384 0.303100 -0.142163
C65   C     C_R   0.008713 0.954552 0.738899 -0.096252
C66   C     C_R   0.235586 0.543558 0.705796 -0.079290
C67   C     C_R   0.828494 0.151204 0.000806 -0.128341
C68   C     C_R   0.767311 0.543928 0.243655 -0.065086
C69   C     C_R   0.730090 0.044003 0.729393 -0.111386
C70   C     C_R   0.253155 0.043123 0.306622 -0.063480
C71   C     C_R   0.481093 0.544896 0.249103 -0.071445
C72   C     C_R   0.456566 0.544611 0.699490 -0.074066
C73   C     C_R   0.047709 0.044688 0.302618 -0.109281
C74   C     C_R   0.014290 0.045112 0.745962 -0.074398
C75   C     C_R   0.238587 0.452972 0.706796 -0.124353
C76   C     C_R   0.766061 0.453299 0.244841 -0.102466
C77   C     C_R   0.731675 0.953384 0.731071 -0.109027
C78   C     C_R   0.136094 0.174264 0.001289 -0.088680
C79   C     C_R   0.252070 0.953217 0.303058 -0.043593
C80   C     C_R   0.349594 0.649994 0.908532 0.503082
C81   C     C_R   0.648847 0.650262 0.091907 0.474526
C82   C     C_R   0.823207 0.137331 0.907739 0.476734
C83   C     C_R   0.157466 0.147556 0.092986 0.512408
C84   C     C_R   0.435812 0.350770 0.090876 -0.103010
C85   C     C_R   0.559672 0.349792 0.906975 -0.068981
C86   C     C_R   0.915973 0.864163 0.094475 -0.008669
C87   C     C_R   0.087376 0.864468 0.908617 -0.113877
C88   C     C_R   0.368354 0.322860 0.996960 0.178239
C89   C     C_R   0.452071 0.499484 0.276463 0.016182
C90   C     C_R   0.619668 0.319072 0.999387 0.162167
C91   C     C_R   0.836982 0.842132 0.001661 0.095944
C92   C     C_R   0.173316 0.848893 0.001982 0.146374
H1    H     H_    0.298132 0.339889 0.820626 0.123460
H2    H     H_    0.800242 0.670914 0.082174 0.148941
H3    H     H_    0.640443 0.153499 0.871860 0.154357
H4    H     H_    0.321254 0.165828 0.118644 0.160058
H5    H     H_    0.799989 0.302421 0.144179 0.138305
H6    H     H_    0.183618 0.324845 0.871927 0.147835
H7    H     H_    0.107236 0.755141 0.909287 0.170236
H8    H     H_    0.657264 0.849670 0.918367 0.154824
H9    H     H_    0.195279 0.680934 0.906228 0.137115
H10   H     H_    0.559645 0.777945 0.917314 0.170563
H11   H     H_    0.892307 0.231419 0.144264 0.146477
H12   H     H_    0.685399 0.334801 0.175069 0.129390
H13   H     H_    0.080332 0.262516 0.878098 0.151335
H14   H     H_    0.401604 0.587057 0.503789 0.116705
H15   H     H_    0.402115 0.587064 0.344454 0.117398
H16   H     H_    0.090495 0.087819 0.648848 0.118692
H17   H     H_    0.102033 0.087687 0.497747 0.118438
H18   H     H_    0.401015 0.411983 0.342629 0.132988
H19   H     H_    0.401240 0.411831 0.502525 0.134278
H20   H     H_    0.106820 0.912486 0.500797 0.130221
H21   H     H_    0.096229 0.912745 0.653219 0.129546
H22   H     H_    0.479380 0.661856 0.177307 0.177468
H23   H     H_    0.777662 0.846266 0.825483 0.107547
H24   H     H_    0.526328 0.659819 0.823002 0.170550
H25   H     H_    0.938000 0.136271 0.178528 0.137707
H26   H     H_    0.029123 0.159771 0.824163 0.150791
H27   H     H_    0.474277 0.412279 0.263351 0.106703
H28   H     H_    0.438340 0.412570 0.670872 0.111203
H29   H     H_    0.066022 0.912988 0.330765 0.108929
H30   H     H_    0.007379 0.913682 0.713772 0.096881
H31   H     H_    0.215974 0.584107 0.674786 0.198245
H32   H     H_    0.790296 0.585066 0.250767 0.157154
H33   H     H_    0.705160 0.084742 0.707228 0.191486
H34   H     H_    0.236153 0.858296 0.179393 0.123839
H35   H     H_    0.263048 0.082891 0.340749 0.190112
H36   H     H_    0.471500 0.586732 0.260427 0.095839
H37   H     H_    0.442298 0.586249 0.673167 0.121318
H38   H     H_    0.064881 0.086146 0.330115 0.122871
H39   H     H_    0.023084 0.086866 0.734135 0.094022
H40   H     H_    0.224081 0.411249 0.679996 0.101197
H41   H     H_    0.786229 0.411348 0.253511 0.094271
H42   H     H_    0.709464 0.911951 0.708554 0.102530
H43   H     H_    0.259144 0.911878 0.330145 0.088899
H44   H     H_    0.473282 0.337702 0.175489 0.154402
H45   H     H_    0.956649 0.538718 0.338640 0.145519
H46   H     H_    0.522047 0.338169 0.821385 0.157540
H47   H     H_    0.947238 0.855177 0.180020 0.131151
H48   H     H_    0.053971 0.849267 0.826001 0.107904
H49   H     H_    0.944388 0.414629 0.340762 0.123733
H50   H     H_    0.118729 0.423827 0.488489 0.133948
H51   H     H_    0.395083 0.913448 0.503003 0.133447
H52   H     H_    0.558419 0.922961 0.678916 0.125695
H53   H     H_    0.463304 0.142893 0.755166 0.350228
H54   H     H_    0.490326 0.138569 0.209956 0.359727
H55   H     H_    0.520852 0.911913 0.172331 0.386979
H56   H     H_    0.048562 0.531693 0.521125 0.151924
H57   H     H_    0.972165 0.653215 0.171104 0.352253
H58   H     H_    0.315336 0.666636 0.644977 0.372071
H59   H     H_    0.694180 0.658361 0.362217 0.376260
H60   H     H_    0.795552 0.186686 0.661490 0.384454
H61   H     H_    0.175265 0.176169 0.343072 0.372725
H62   H     H_    0.395211 0.037197 0.526930 0.150285
H63   H     H_    0.538516 0.032789 0.568840 0.156819
H64   H     H_    0.453218 0.773731 0.097585 0.218503
N1    N     N_R   0.395440 0.396300 0.944370 -0.058105
N2    N     N_R   0.474910 0.470990 0.794360 -0.051034
N3    N     N_R   0.025090 0.970990 0.205640 -0.056295
N4    N     N_R   0.974910 0.970990 0.794360 -0.048807
N5    N     N_R   0.320240 0.527820 0.794510 -0.044617
N6    N     N_R   0.679760 0.527820 0.205490 -0.027771
N7    N     N_R   0.820240 0.027820 0.794510 -0.048373
N8    N     N_R   0.179760 0.027820 0.205490 -0.051446
N9    N     N_R   0.524580 0.527810 0.205160 -0.026877
N10   N     N_R   0.475420 0.527810 0.794840 -0.035679
N11   N     N_R   0.024580 0.027810 0.205160 -0.041094
N12   N     N_R   0.604560 0.396300 0.055630 -0.057355
N13   N     N_R   0.975420 0.027810 0.794840 -0.035874
N14   N     N_R   0.320750 0.470990 0.794990 -0.055786
N15   N     N_R   0.679250 0.470990 0.205010 -0.054829
N16   N     N_R   0.820750 0.970990 0.794990 -0.056650
N17   N     N_R   0.179250 0.970990 0.205010 -0.058757
N18   N     N_R   0.393580 0.602500 0.942610 -0.108608
N19   N     N_R   0.606420 0.602500 0.057390 -0.112236
N20   N     N_R   0.893580 0.102500 0.942610 -0.097013
N21   N     N_R   0.106420 0.102500 0.057390 -0.102781
N22   N     N_R   0.451750 0.396300 0.057540 -0.060208
N23   N     N_R   0.895440 0.896300 0.944370 -0.052153
N24   N     N_R   0.548250 0.396300 0.942460 -0.059908
N25   N     N_R   0.951750 0.896300 0.057540 -0.057586
N26   N     N_R   0.048250 0.896300 0.942460 -0.048746
N27   N     N_R   0.104560 0.896300 0.055630 -0.058643
N28   N     N_R   0.449890 0.602500 0.055780 -0.072974
N29   N     N_R   0.550110 0.602500 0.944220 -0.071105
N30   N     N_R   0.949890 0.102500 0.055780 -0.056483
N31   N     N_R   0.050110 0.102500 0.944220 -0.067386
N32   N     N_R   0.525090 0.470990 0.205640 -0.049094
Ni1   Ni    Ni4+2 0.435420 0.434250 0.870220 0.226857
Ni2   Ni    Ni4+2 0.564580 0.434250 0.129780 0.236295
Ni3   Ni    Ni4+2 0.935420 0.934250 0.870220 0.236151
Ni4   Ni    Ni4+2 0.064580 0.934250 0.129780 0.239985
Ni5   Ni    Ni4+2 0.563400 0.564580 0.128670 0.299395
Ni6   Ni    Ni4+2 0.436600 0.564580 0.871330 0.281255
Ni7   Ni    Ni4+2 0.063400 0.064580 0.128670 0.286332
Ni8   Ni    Ni4+2 0.936600 0.064580 0.871330 0.296618
O1    O     O_2   0.442783 0.252554 0.869983 -0.255811
O2    O     O_2   0.967369 0.756760 0.024106 -0.273096
O3    O     O_2   0.010965 0.754457 0.211920 -0.308708
O4    O     O_3   0.956395 0.665044 0.098942 -0.507401
O5    O     O_2   0.201236 0.683233 0.711721 -0.307834
O6    O     O_2   0.345395 0.737745 0.802742 -0.280650
O7    O     O_3   0.342486 0.646604 0.714710 -0.611214
O8    O     O_2   0.795250 0.690993 0.282549 -0.289395
O9    O     O_2   0.639998 0.732026 0.201599 -0.279415
O10   O     O_3   0.673235 0.637761 0.294608 -0.577050
O11   O     O_2   0.675057 0.183224 0.723576 -0.295359
O12   O     O_2   0.464526 0.244198 0.723548 -0.303248
O13   O     O_2   0.819626 0.236938 0.838302 -0.264071
O14   O     O_3   0.818787 0.159343 0.720354 -0.571456
O15   O     O_2   0.305811 0.169817 0.298690 -0.304776
O16   O     O_2   0.185264 0.240096 0.200168 -0.260936
O17   O     O_3   0.144837 0.157318 0.271314 -0.600835
O18   O     O_3   0.460986 0.156424 0.815822 -0.481374
O19   O     O_2   0.523589 0.243907 0.097742 -0.244042
O20   O     O_2   0.521108 0.238954 0.258938 -0.303019
O21   O     O_3   0.488008 0.151203 0.145736 -0.474147
O22   O     O_2   0.328177 0.923206 0.053467 -0.282975
O23   O     O_2   0.409706 0.878831 0.233811 -0.314478
O24   O     O_3   0.490414 0.877442 0.133627 -0.504124
S1    S     S_3+6 0.493339 0.221848 0.832486 -0.005674
S2    S     S_3+6 0.475011 0.218777 0.143115 -0.002106
S3    S     S_3+6 0.388289 0.875678 0.120999 -0.032297
S4    S     S_3+6 0.943475 0.732612 0.096816 -0.031620
S5    S     S_3+6 0.307429 0.681031 0.781531 -0.072032
S6    S     S_3+6 0.691281 0.679671 0.220527 -0.059659
S7    S     S_3+6 0.781311 0.181143 0.794974 -0.052367
S8    S     S_3+6 0.201391 0.180203 0.219155 -0.054093

loop_
_geom_bond_atom_site_label_1
_geom_bond_atom_site_label_2
_ccdc_geom_bond_type
C70   H35   S    
C53   C58   A    
N31   Ni8   S    
O14   S7    S    
C79   N17   A    
C6    C76   A    
C87   H48   S    
C73   N11   A    
N27   Ni4   S    
C68   H32   S    
C87   N26   A    
H61   O17   S    
N8    Ni7   S    
C56   C81   A    
C3    C64   A    
C2    C63   A    
C43   C78   A    
O5    S5    D    
C4    C74   A    
N14   Ni1   S    
C30   C35   A    
C13   C17   D    
C81   N19   A    
C12   C90   A    
C35   C37   A    
C12   H12   S    
O1    S1    D    
C86   C91   A    
C77   N16   A    
C4    C65   A    
N22   Ni2   S    
N25   Ni4   S    
C13   H52   S    
N19   N29   A    
N24   Ni1   S    
N28   Ni5   S    
N20   N30   A    
C62   C89   A    
C29   C33   A    
C33   C36   A    
N12   Ni2   S    
N6    Ni5   S    
C27   C90   S    
N32   Ni2   S    
C10   H50   S    
C32   C39   A    
C48   C78   S    
C19   C26   A    
N26   N27   A    
C74   N13   A    
H55   O24   S    
H54   O21   S    
C3    C55   S    
C78   C83   A    
C40   H22   S    
N6    N15   A    
C32   H6    S    
C51   H16   S    
C7    C17   S    
C4    C57   S    
C28   C88   S    
C86   N25   A    
C59   H19   S    
N4    N13   A    
C51   C57   A    
C43   N31   A    
C80   S5    S    
N13   Ni8   S    
C9    C10   S    
N29   Ni6   S    
C23   N23   A    
C52   C55   A    
C34   N27   A    
C83   S8    S    
C21   C48   A    
C55   C60   A    
C42   N30   A    
C1    C88   A    
C6    C68   A    
C15   H56   S    
C69   H33   S    
C8    C16   S    
C49   C54   A    
C87   C92   A    
C18   C25   A    
C72   N10   A    
H58   O7    S    
C65   N4    A    
C2    C72   A    
C47   C67   S    
O6    S5    D    
C34   C92   A    
C54   C59   A    
N16   Ni3   S    
C25   C29   A    
C40   C45   A    
C22   S1    S    
C29   C92   S    
C19   C46   A    
N9    N32   A    
C81   S6    S    
C83   N21   A    
C27   C31   A    
C51   C52   A    
C50   C53   A    
C69   N7    A    
N30   Ni7   S    
O22   S3    D    
C2    C54   S    
N2    Ni1   S    
N18   N28   A    
C9    H49   S    
C5    C66   A    
C43   H26   S    
C58   C59   A    
N12   N24   A    
C16   H62   S    
O23   S3    D    
C37   H10   S    
N15   Ni2   S    
C70   N8    A    
C36   H9    S    
C33   H7    S    
O4    S4    S    
C5    C75   A    
C76   N15   A    
O2    S4    D    
C9    C14   D    
C41   C56   A    
O10   S6    S    
C38   H11   S    
C60   H20   S    
O18   S1    S    
C18   C44   A    
C6    C14   S    
C11   C16   D    
C71   C89   A    
C14   H45   S    
C28   C32   A    
C34   H34   S    
C75   N14   A    
C72   H37   S    
C62   H27   S    
C41   N29   A    
N8    N17   A    
C65   H30   S    
N20   Ni8   S    
C84   N22   A    
N7    N16   A    
C38   C47   A    
C19   H2    S    
C86   H47   S    
N5    N14   A    
O11   S7    D    
C20   H3    S    
C82   N20   A    
N18   Ni6   S    
C68   N6    A    
O15   S8    D    
C53   C89   S    
C42   C67   A    
C76   H41   S    
C23   C91   A    
C71   H36   S    
C36   C44   A    
N10   Ni6   S    
C77   H42   S    
C41   H24   S    
O8    S6    D    
C35   H8    S    
C17   H63   S    
O19   S2    D    
O7    S5    S    
C18   H64   S    
C75   H40   S    
N2    N10   A    
C12   N12   A    
C62   N32   A    
O21   S2    S    
C39   H13   S    
H60   O14   S    
C73   H38   S    
C84   H44   S    
N21   Ni7   S    
C10   C15   D    
C58   H18   S    
N11   Ni7   S    
N3    Ni4   S    
C44   C45   S    
C24   C28   A    
N4    Ni3   S    
C20   C22   A    
C30   C91   S    
N9    Ni5   S    
C7    C69   A    
C85   C90   A    
C61   H21   S    
C42   H25   S    
C57   C61   A    
C49   H14   S    
C21   H4    S    
C24   S2    S    
C79   H43   S    
C82   S7    S    
N17   Ni4   S    
C8    C70   A    
N21   N31   A    
C31   C38   A    
C7    C77   A    
C22   C27   A    
O9    S6    D    
C1    N1    A    
O12   S1    D    
C80   N18   A    
C8    C79   A    
C52   H17   S    
C26   S4    S    
C63   H28   S    
C11   C13   S    
C50   H15   S    
C84   C88   A    
N7    Ni8   S    
C85   N24   A    
C64   N3    A    
N3    N11   A    
N5    Ni6   S    
C25   S3    S    
C45   C80   A    
N1    N22   A    
C31   H5    S    
H59   O10   S    
C3    C73   A    
N1    Ni1   S    
C5    C15   S    
O20   S2    D    
H57   O4    S    
C23   H23   S    
H53   O18   S    
O16   S8    D    
N23   Ni3   S    
C66   N5    A    
C67   C82   A    
C1    H1    S    
C49   C50   A    
C71   N9    A    
C21   C24   A    
C46   C56   S    
O17   S8    S    
C66   H31   S    
C60   C61   A    
O3    S4    D    
O13   S7    D    
C63   N2    A    
C40   N28   A    
C37   C46   A    
C74   H39   S    
C11   H51   S    
C85   H46   S    
N19   Ni5   S    
O24   S3    S    
C20   C47   A    
C64   H29   S    
N26   Ni3   S    
C39   C48   A    
N23   N25   A    
C26   C30   A    
