data_mof_unit_9884.cif
_audit_creation_date              2012-12-10T16:53:09-0500
_audit_creation_method            fapswitch 2.2
_symmetry_space_group_name_H-M    P1
_symmetry_Int_Tables_number       1
_space_group_crystal_system       triclinic
_cell_length_a                    10.783789
_cell_length_b                    10.932081
_cell_length_c                    9.694793
_cell_angle_alpha                 90.015
_cell_angle_beta                  89.817927
_cell_angle_gamma                 90.233328
_cell_volume                      1142.89663951

loop_
_atom_site_label
_atom_site_type_symbol
_atom_type_description
_atom_site_fract_x
_atom_site_fract_y
_atom_site_fract_z
_atom_type_partial_charge
C1    C     C_R   0.501936 0.265379 0.500059 0.824030
C2    C     C_R   0.064430 0.398787 0.583091 0.103695
C3    C     C_R   0.128725 0.485429 0.500569 -0.082149
C4    C     C_R   0.064576 0.565576 0.414760 -0.199499
C5    C     C_R   0.936785 0.565546 0.414135 -0.200039
C6    C     C_R   0.871019 0.485303 0.499246 -0.071573
C7    C     C_2   0.505634 0.933071 0.386887 -0.156391
C8    C     C_2   0.493104 0.866692 0.502318 -0.311263
C9    C     C_2   0.500022 0.066999 0.386732 -0.146536
C10   C     C_2   0.509178 0.133493 0.502388 -0.315990
C11   C     C_2   0.431639 0.426297 0.922316 -0.072106
C12   C     C_R   0.262591 0.494629 0.500298 0.790163
C13   C     C_2   0.432903 0.425151 0.078019 -0.066086
C14   C     C_R   0.498809 0.734665 0.500102 0.858947
C15   C     C_R   0.737365 0.495374 0.499786 0.795355
C16   C     C_R   0.126861 0.309545 0.661833 -0.279849
C17   C     C_R   0.061112 0.225717 0.742381 -0.181509
C18   C     C_R   0.931850 0.226256 0.745486 0.510540
C19   C     C_R   0.868566 0.309367 0.659992 -0.307422
C20   C     C_R   0.933441 0.398584 0.582148 0.050791
Cu1   Cu    Cu3+1 0.500020 0.500020 0.638630 0.932081
Cu2   Cu    Cu3+1 0.499980 0.499980 0.361370 0.941170
H1    H     H_    0.113830 0.630842 0.350405 0.157076
H2    H     H_    0.524926 0.092657 0.602410 0.143536
H3    H     H_    0.370545 0.361743 0.871156 0.149333
H4    H     H_    0.558295 0.558846 0.893707 0.194899
H5    H     H_    0.374183 0.358466 0.129565 0.152240
H6    H     H_    0.553489 0.563095 0.105892 0.191981
H7    H     H_    0.226674 0.301710 0.660567 0.165219
H8    H     H_    0.111396 0.158949 0.802583 0.153986
H9    H     H_    0.769209 0.301309 0.651920 0.146824
H10   H     H_    0.888816 0.630912 0.349560 0.152430
H11   H     H_    0.518235 0.888369 0.287756 0.165566
H12   H     H_    0.475734 0.907745 0.602021 0.148086
H13   H     H_    0.489567 0.111567 0.287315 0.160173
N1    N     N_2   0.498640 0.498660 0.846910 -0.284014
N2    N     N_2   0.498610 0.498630 0.153040 -0.282330
O1    O     O_R   0.500020 0.321960 0.617040 -0.603712
O2    O     O_R   0.499980 0.321920 0.382900 -0.572689
O3    O     O_R   0.319670 0.500020 0.617100 -0.572910
O4    O     O_R   0.319630 0.499980 0.382950 -0.572677
O5    O     O_R   0.500020 0.678080 0.617100 -0.572743
O6    O     O_R   0.499980 0.678040 0.382960 -0.578244
O7    O     O_R   0.680370 0.500020 0.617050 -0.582956
O8    O     O_R   0.680330 0.499980 0.382900 -0.575341
O9    O     O_3   0.872216 0.137456 0.824734 -0.585359
C21   C     C_3   0.762839 0.182423 0.887577 0.070537
H14   H     H_    0.684256 0.177249 0.813796 0.151301
H15   H     H_    0.774271 0.278351 0.924961 0.146161
C22   C     C_3   0.730361 0.102950 0.011418 -0.777487
H16   H     H_    0.806741 0.106078 0.087941 0.252759
H17   H     H_    0.644122 0.137036 0.060925 0.194998
H18   H     H_    0.715438 0.006802 0.978118 0.246997

loop_
_geom_bond_atom_site_label_1
_geom_bond_atom_site_label_2
_ccdc_geom_bond_type
C12   O3    A    
C22   H17   S    
C12   O4    A    
Cu1   O7    S    
C2    C16   A    
C9    C10   D    
C13   N2    D    
C19   C20   A    
C14   O5    A    
C5    H10   S    
C19   H9    S    
C17   C18   A    
C6    C15   S    
C7    C8    D    
C21   H15   S    
Cu1   N1    S    
C8    H12   S    
Cu1   Cu2   S    
C17   H8    S    
C7    H11   S    
Cu1   O5    S    
Cu1   O3    S    
C1    O1    A    
Cu2   O2    S    
H6    N2    S    
H4    N1    S    
C11   N1    D    
C15   O7    A    
C2    C3    A    
C21   C22   S    
C5    C6    A    
Cu2   O4    S    
C16   C17   A    
C1    O2    A    
C2    C20   A    
C3    C4    A    
C22   H18   S    
C18   O9    S    
C11   C13   S    
Cu2   O8    S    
C6    C20   A    
C7    C9    S    
C18   C19   A    
C1    C10   S    
C9    H13   S    
C4    H1    S    
C11   H3    S    
O9    C21   S    
C4    C5    A    
C10   H2    S    
C8    C14   S    
C3    C12   S    
C22   H16   S    
C16   H7    S    
Cu2   N2    S    
Cu2   O6    S    
C13   H5    S    
Cu1   O1    S    
C21   H14   S    
C14   O6    A    
C15   O8    A    
