data_mof_unit_6024.cif
_audit_creation_date              2012-12-11T14:58:03-0500
_audit_creation_method            fapswitch 2.2
_symmetry_space_group_name_H-M    P1
_symmetry_Int_Tables_number       1
_space_group_crystal_system       triclinic
_cell_length_a                    6.92916
_cell_length_b                    16.855582
_cell_length_c                    16.981795
_cell_angle_alpha                 100.422688
_cell_angle_beta                  92.118636
_cell_angle_gamma                 89.059832
_cell_volume                      1949.23429843

loop_
_atom_site_label
_atom_site_type_symbol
_atom_type_description
_atom_site_fract_x
_atom_site_fract_y
_atom_site_fract_z
_atom_type_partial_charge
O1    O     O_R   0.506180 0.438940 0.579430 -0.546785
O2    O     O_R   0.170520 0.406230 0.413590 -0.538702
O3    O     O_R   0.005180 0.561060 0.420570 -0.541262
C1    C     C_R   0.338921 0.382918 0.385370 0.691462
O4    O     O_R   0.176140 0.429310 0.578370 -0.539139
O5    O     O_R   0.010830 0.584300 0.586530 -0.535646
C2    C     C_R   0.350021 0.413611 0.605094 0.694736
O6    O     O_R   0.500520 0.415700 0.413470 -0.535937
O7    O     O_3   0.340830 0.550820 0.502480 -0.365586
V1    V     V_3+5 0.064040 0.490570 0.499540 1.410360
O8    O     O_R   0.681400 0.593770 0.586410 -0.537816
C3    C     C_R   0.851567 0.616629 0.614785 0.698916
O9    O     O_R   0.675790 0.570690 0.421630 -0.539974
C4    C     C_R   0.840509 0.586828 0.394848 0.686831
V2    V     V_3+5 0.564650 0.509430 0.500460 1.413822
O10   O     O_3   0.837730 0.449180 0.497520 -0.368145
C5    C     C_R   0.931474 0.860876 0.167844 -0.144202
C6    C     C_R   0.835521 0.639800 0.333187 -0.071663
C7    C     C_R   0.665586 0.687653 0.221437 -0.182174
C8    C     C_R   0.679188 0.635503 0.277159 -0.168805
C9    C     C_R   0.977339 0.698415 0.332782 -0.218381
C10   C     C_R   0.961591 0.752522 0.278130 0.110226
C11   C     C_R   0.805886 0.746778 0.221480 0.159744
C12   C     C_R   0.792249 0.800538 0.166540 -0.339624
C13   C     C_R   0.085393 0.867887 0.226024 0.410324
C14   C     C_R   0.097121 0.813547 0.280895 -0.293461
H1    H     H_    0.674652 0.794791 0.122022 0.133498
H2    H     H_    0.210341 0.818815 0.326944 0.125775
H3    H     H_    0.566918 0.591362 0.276349 0.124415
H4    H     H_    0.096342 0.703606 0.376644 0.117560
H5    H     H_    0.630485 0.649026 0.969790 0.111373
C15   C     C_R   0.044591 0.897549 0.727893 -0.141243
C16   C     C_R   0.105220 0.906892 0.652806 -0.124769
C17   C     C_R   0.086894 0.843763 0.587975 -0.120691
C18   C     C_R   0.008264 0.770780 0.597839 -0.129513
C19   C     C_R   0.947156 0.759174 0.673607 0.069461
C20   C     C_R   0.965161 0.824007 0.739993 0.069038
C21   C     C_R   0.865235 0.685155 0.683464 -0.186770
C22   C     C_R   0.800061 0.676227 0.759624 0.068864
C23   C     C_R   0.817938 0.741072 0.825996 0.069788
C24   C     C_R   0.900249 0.815033 0.816197 -0.184528
C25   C     C_R   0.720305 0.602733 0.771668 -0.141363
C26   C     C_R   0.658913 0.593502 0.846658 -0.124178
C27   C     C_R   0.676939 0.656663 0.911461 -0.121032
C28   C     C_R   0.756175 0.729549 0.901688 -0.131285
H6    H     H_    0.059528 0.948825 0.776022 0.101310
H7    H     H_    0.165470 0.963656 0.644818 0.118181
H8    H     H_    0.132707 0.851495 0.529575 0.111060
H9    H     H_    0.598269 0.536794 0.854594 0.118490
H10   H     H_    0.947680 0.434525 0.151530 0.116824
C29   C     C_R   0.578119 0.242814 0.398582 -0.122907
C30   C     C_R   0.714896 0.182689 0.404744 -0.126957
C31   C     C_R   0.755714 0.124920 0.338192 -0.128434
C32   C     C_R   0.655160 0.125107 0.265695 -0.146541
C33   C     C_R   0.518392 0.186608 0.256738 0.070308
C34   C     C_R   0.482942 0.248220 0.324335 0.069383
C35   C     C_R   0.415972 0.187177 0.182756 -0.189712
C36   C     C_R   0.288796 0.252874 0.175388 0.070898
C37   C     C_R   0.256891 0.315502 0.242513 0.070041
C38   C     C_R   0.352912 0.313101 0.317397 -0.192763
C39   C     C_R   0.197371 0.259271 0.100672 -0.124119
C40   C     C_R   0.074004 0.323592 0.092778 -0.121741
C41   C     C_R   0.041877 0.384099 0.158195 -0.126525
C42   C     C_R   0.133496 0.380931 0.231927 -0.146936
H11   H     H_    0.547826 0.284560 0.453031 0.112754
H12   H     H_    0.788759 0.180662 0.461661 0.113355
H13   H     H_    0.862689 0.078451 0.343256 0.133025
H14   H     H_    0.687395 0.076236 0.217516 0.124928
H15   H     H_    0.223182 0.215907 0.046836 0.110489
H16   H     H_    0.005222 0.327084 0.035197 0.112320
H17   H     H_    0.107293 0.431092 0.279740 0.120291
C43   C     C_R   0.383639 0.139286 0.834229 -0.068381
C44   C     C_R   0.382068 0.360812 0.665953 -0.069221
C45   C     C_R   0.608497 0.308515 0.758826 -0.206716
C46   C     C_R   0.563037 0.362483 0.707439 -0.168043
C47   C     C_R   0.245268 0.304311 0.678555 -0.245682
C48   C     C_R   0.291142 0.249120 0.729961 0.162377
C49   C     C_R   0.474569 0.250947 0.770184 0.162165
C50   C     C_R   0.520454 0.195760 0.821589 -0.245172
C51   C     C_R   0.202649 0.137617 0.792760 -0.168303
C52   C     C_R   0.157206 0.191559 0.741337 -0.207187
H18   H     H_    0.659478 0.198439 0.853374 0.122692
H19   H     H_    0.093152 0.095077 0.800975 0.125420
H20   H     H_    0.749477 0.311347 0.789010 0.120377
H21   H     H_    0.016224 0.188723 0.711154 0.120237
H22   H     H_    0.672524 0.405042 0.699257 0.125843
H23   H     H_    0.106269 0.301621 0.646750 0.122344
O11   O     O_R   0.265840 0.084300 0.086750 -0.528015
O12   O     O_R   0.589750 0.070740 0.921690 -0.539712
O13   O     O_R   0.755020 0.915730 0.913400 -0.536862
C53   C     C_R   0.415800 0.086470 0.895064 0.690988
O14   O     O_R   0.595830 0.093740 0.086480 -0.543487
O15   O     O_R   0.761150 0.938890 0.079360 -0.552516
C54   C     C_R   0.427969 0.116812 0.115142 0.703369
O16   O     O_R   0.259710 0.061140 0.920790 -0.548099
O17   O     O_3   0.425260 0.949200 0.997610 -0.367074
V3    V     V_3+5 0.702060 0.009430 0.000450 1.406640
O18   O     O_R   0.090530 0.929220 0.078150 -0.518370
C55   C     C_R   0.925874 0.913385 0.105379 0.739248
O19   O     O_R   0.084440 0.906220 0.913360 -0.540883
C56   C     C_R   0.914193 0.883486 0.884956 0.691582
V4    V     V_3+5 0.201450 0.990520 0.999290 1.442317
O20   O     O_3   0.928380 0.050800 0.002390 -0.370662
H24   H     H_    0.994266 0.724086 0.545186 0.101041
H25   H     H_    0.705549 0.551422 0.723572 0.101950
H26   H     H_    0.769992 0.776231 0.954354 0.100934
O21   O     O_3   0.208171 0.933721 0.232323 -0.576486
C57   C     C_3   0.401714 0.915998 0.253313 0.094782
H27   H     H_    0.496824 0.943471 0.214583 0.137679
H28   H     H_    0.437663 0.850344 0.241374 0.116407
C58   C     C_3   0.448677 0.954363 0.340716 -0.327593
H29   H     H_    0.446422 0.020996 0.346530 0.209506
H30   H     H_    0.337709 0.938884 0.380741 0.191112
C59   C     C_3   0.646008 0.926497 0.368711 -0.820799
H31   H     H_    0.644570 0.860730 0.369366 0.240202
H32   H     H_    0.681477 0.959054 0.430281 0.229850
H33   H     H_    0.759332 0.939063 0.328282 0.234949
H34   H     H_    0.543744 0.682409 0.179012 0.114708

loop_
_geom_bond_atom_site_label_1
_geom_bond_atom_site_label_2
_ccdc_geom_bond_type
C33   C34   A    
O17   V4    S    
C6    C9    A    
C4    C6    S    
O2    C1    A    
C7    C8    A    
C12   H1    S    
C1    O6    A    
C59   H31   S    
C2    C44   S    
C48   C49   A    
C28   H26   S    
C37   C42   A    
C19   C20   A    
C29   C34   A    
C43   C50   A    
O5    C3    A    
C21   C22   A    
C32   H14   S    
V2    O10   S    
C57   H27   S    
C40   H16   S    
C17   C18   A    
C29   H11   S    
C42   H17   S    
O8    V2    S    
C58   H29   S    
C7    H34   S    
C57   H28   S    
O21   C57   S    
O1    V2    S    
O12   C53   A    
O7    V1    S    
O15   C55   A    
O13   V3    S    
O16   V4    S    
C36   C39   A    
C37   C38   A    
O9    C4    A    
C3    C21   S    
H10   C41   S    
C44   C46   A    
V4    O20   S    
C51   H19   S    
O19   V4    S    
O14   V3    S    
C22   C25   A    
C8    H3    S    
C23   C28   A    
O11   C54   A    
C5    C12   A    
H5    C27   S    
C29   C30   A    
C47   C48   A    
C18   H24   S    
C45   C46   A    
C22   C23   A    
O4    C2    A    
C43   C53   S    
C49   C50   A    
C26   H9    S    
C36   C37   A    
O18   V4    S    
C34   C38   A    
O12   V3    S    
C18   C19   A    
C7    C11   A    
C26   C27   A    
O13   C56   A    
C40   C41   A    
C46   H22   S    
O11   V4    S    
C48   C52   A    
C11   C12   A    
O17   V3    S    
C1    C38   S    
O14   C54   A    
C16   C17   A    
C58   H30   S    
C15   C20   A    
C5    C55   S    
C47   H23   S    
V3    O20   S    
O3    C4    A    
C23   C24   A    
O6    V2    S    
C35   C54   S    
O9    V2    S    
C45   C49   A    
C16   H7    S    
C44   C47   A    
C17   H8    S    
C25   C26   A    
O2    V1    S    
O15   V3    S    
C30   H12   S    
C30   C31   A    
C13   O21   S    
C39   H15   S    
C32   C33   A    
O1    C2    A    
C15   H6    S    
C27   C28   A    
C45   H20   S    
C51   C52   A    
O5    V1    S    
C50   H18   S    
C59   H32   S    
O8    C3    A    
C31   C32   A    
C9    H4    S    
C14   H2    S    
C57   C58   S    
C5    C13   A    
C15   C16   A    
C33   C35   A    
C13   C14   A    
O4    V1    S    
C43   C51   A    
O3    V1    S    
V1    O10   S    
C35   C36   A    
C19   C21   A    
O19   C56   A    
C24   C56   S    
C58   C59   S    
C6    C8    A    
C20   C24   A    
C39   C40   A    
C31   H13   S    
C25   H25   S    
C59   H33   S    
C53   O16   A    
C41   C42   A    
O18   C55   A    
C10   C14   A    
C10   C11   A    
C9    C10   A    
C52   H21   S    
O7    V2    S    
