data_mof_unit_57210.cif
_audit_creation_date              2012-10-26T19:42:40-0400
_audit_creation_method            fapswitch 2.2
_symmetry_space_group_name_H-M    P1
_symmetry_Int_Tables_number       1
_space_group_crystal_system       triclinic
_cell_length_a                    19.296446
_cell_length_b                    10.858172
_cell_length_c                    9.621717
_cell_angle_alpha                 89.315672
_cell_angle_beta                  89.016111
_cell_angle_gamma                 93.135076
_cell_volume                      2012.50035951

loop_
_atom_site_label
_atom_site_type_symbol
_atom_type_description
_atom_site_fract_x
_atom_site_fract_y
_atom_site_fract_z
_atom_type_partial_charge
C1    C     C_R   0.501900 0.262071 0.502257 0.543929
C2    C     C_R   0.853117 0.489929 0.503214 0.006706
C3    C     C_R   0.491961 0.107240 0.771202 -0.111074
C4    C     C_R   0.367559 0.498853 0.501085 0.545596
C5    C     C_R   0.463998 0.041580 0.886311 -0.137024
C6    C     C_R   0.432716 0.924763 0.869524 -0.111047
C7    C     C_R   0.435700 0.868828 0.740380 -0.084231
C8    C     C_R   0.469434 0.930516 0.625316 0.027331
C9    C     C_R   0.488145 0.057440 0.635398 0.027146
C10   C     C_R   0.502131 0.126818 0.509374 -0.011226
C11   C     C_R   0.508621 0.064839 0.383434 -0.169628
C12   C     C_R   0.291427 0.495549 0.503430 0.014604
C13   C     C_R   0.502923 0.937694 0.380298 -0.168219
C14   C     C_R   0.485806 0.869325 0.500973 -0.008991
C15   C     C_R   0.573891 0.699534 0.131238 0.045658
C16   C     C_R   0.493986 0.736317 0.499835 0.527255
C17   C     C_R   0.580752 0.809475 0.052913 -0.154133
C18   C     C_R   0.588624 0.800687 0.910693 -0.172519
C19   C     C_R   0.574835 0.687684 0.849235 -0.082285
C20   C     C_R   0.537233 0.592291 0.922011 0.141068
C21   C     C_R   0.537188 0.594592 0.070994 0.160128
C22   C     C_R   0.464107 0.411884 0.076328 -0.016117
C23   C     C_R   0.929115 0.486366 0.506882 0.340591
C24   C     C_R   0.463672 0.412568 0.928685 -0.022954
C25   C     C_R   0.632117 0.499904 0.498903 0.533799
C26   C     C_R   0.255174 0.532451 0.622123 -0.134409
C27   C     C_R   0.182857 0.529352 0.623903 -0.116912
C28   C     C_R   0.145715 0.487394 0.507860 0.035300
C29   C     C_R   0.182040 0.449305 0.389739 -0.117401
C30   C     C_R   0.254344 0.454301 0.387126 -0.130136
C31   C     C_3   0.638150 0.686066 0.215661 -0.333242
C32   C     C_3   0.718792 0.720790 0.586830 -0.414736
C33   C     C_3   0.698403 0.282150 0.396215 -0.390260
C34   C     C_R   0.069477 0.485326 0.509055 0.343377
C35   C     C_R   0.820800 0.594292 0.550300 -0.102352
C36   C     C_R   0.748839 0.601202 0.544584 -0.024491
C37   C     C_R   0.707983 0.498814 0.496117 0.049914
C38   C     C_R   0.740357 0.393231 0.447835 -0.025640
C39   C     C_R   0.812793 0.390478 0.450713 -0.102456
Cu1   Cu    Cu3+1 0.500000 0.499990 0.640660 0.909020
Cu2   Cu    Cu3+1 0.500000 0.500010 0.359340 0.921594
H1    H     H_    0.282706 0.564937 0.712968 0.125147
H2    H     H_    0.593444 0.678614 0.745650 0.181962
H3    H     H_    0.156030 0.558888 0.716449 0.136817
H4    H     H_    0.433240 0.341478 0.875871 0.118767
H5    H     H_    0.154636 0.417255 0.298594 0.136746
H6    H     H_    0.281191 0.424686 0.294606 0.126672
H7    H     H_    0.851890 0.672632 0.588189 0.141106
H8    H     H_    0.837764 0.309562 0.414377 0.136716
H9    H     H_    0.519737 0.114595 0.286609 0.130585
H10   H     H_    0.659586 0.594656 0.198304 0.155293
H11   H     H_    0.681813 0.751710 0.182165 0.094847
H12   H     H_    0.519481 0.193182 0.793900 0.148267
H13   H     H_    0.627843 0.708569 0.325491 0.157787
H14   H     H_    0.723843 0.732708 0.700705 0.136056
H15   H     H_    0.747613 0.799135 0.532516 0.128757
H16   H     H_    0.663675 0.726050 0.558841 0.116383
H17   H     H_    0.661562 0.246511 0.479025 0.133890
H18   H     H_    0.668917 0.307877 0.303183 0.154136
H19   H     H_    0.731914 0.206345 0.366711 0.118522
H20   H     H_    0.466203 0.081986 0.988610 0.101478
H21   H     H_    0.408662 0.875387 0.957754 0.120182
H22   H     H_    0.410775 0.777693 0.731538 0.143640
H23   H     H_    0.512213 0.892855 0.282841 0.141615
H24   H     H_    0.434424 0.339756 0.133118 0.115603
H25   H     H_    0.600687 0.894108 0.100127 0.112117
H26   H     H_    0.610445 0.878426 0.849895 0.127548
N1    N     N_R   0.032413 0.412943 0.419783 -0.227503
N2    N     N_R   0.963483 0.413117 0.419040 -0.227419
N3    N     N_R   0.966185 0.558486 0.596332 -0.227731
N4    N     N_R   0.035045 0.557664 0.597742 -0.227342
N5    N     N_R   0.500660 0.501210 0.147910 -0.238168
N6    N     N_R   0.500680 0.501290 0.852040 -0.246573
O1    O     O_R   0.499990 0.319640 0.618810 -0.513017
O2    O     O_R   0.500000 0.319660 0.381240 -0.507128
O3    O     O_R   0.400140 0.499970 0.618820 -0.502673
O4    O     O_R   0.400150 0.500000 0.381250 -0.496059
O5    O     O_R   0.500000 0.680340 0.618760 -0.532123
O6    O     O_R   0.500010 0.680360 0.381190 -0.500009
O7    O     O_R   0.599850 0.500000 0.618750 -0.509138
O8    O     O_R   0.599860 0.500030 0.381180 -0.517288

loop_
_geom_bond_atom_site_label_1
_geom_bond_atom_site_label_2
_ccdc_geom_bond_type
C2    C35   A    
C33   H17   S    
C25   O7    A    
C11   C13   A    
C23   N2    A    
C35   C36   A    
C31   H11   S    
C7    C8    A    
C26   C27   A    
C37   C38   A    
C1    O1    A    
C32   C36   S    
C28   C29   A    
Cu2   O4    S    
C5    C6    A    
C24   N6    A    
Cu1   N6    S    
C18   C19   A    
C25   C37   S    
C2    C39   A    
C19   C20   A    
C8    C9    A    
Cu1   O7    S    
N3    N4    A    
C14   C16   S    
C4    C12   S    
C9    C10   A    
C32   H14   S    
C28   C34   S    
C33   H18   S    
C13   C14   A    
C25   O8    A    
C23   N3    A    
C32   H16   S    
C35   H7    S    
C27   H3    S    
C22   N5    A    
C19   H2    S    
C21   N5    A    
C1    O2    A    
C30   H6    S    
C34   N1    A    
N1    N2    A    
C18   H26   S    
Cu1   O3    S    
C12   C26   A    
C22   H24   S    
C29   C30   A    
C3    C9    A    
Cu2   O2    S    
Cu2   O8    S    
C17   C18   A    
C17   H25   S    
C5    H20   S    
C7    H22   S    
Cu2   N5    S    
Cu1   O5    S    
Cu1   Cu2   S    
C39   H8    S    
C33   H19   S    
C22   C24   A    
C24   H4    S    
C2    C23   S    
C26   H1    S    
C15   C17   A    
C36   C37   A    
C8    C14   A    
C12   C30   A    
C1    C10   S    
C31   H10   S    
C3    C5    A    
Cu2   O6    S    
C15   C31   S    
C6    C7    A    
C33   C38   S    
C29   H5    S    
C16   O6    A    
C6    H21   S    
C4    O4    A    
C11   H9    S    
C3    H12   S    
C38   C39   A    
C13   H23   S    
Cu1   O1    S    
C20   N6    A    
C16   O5    A    
C31   H13   S    
C4    O3    A    
C10   C11   A    
C15   C21   A    
C20   C21   A    
C27   C28   A    
C34   N4    A    
C32   H15   S    
