data_mof_unit_26822.cif
_audit_creation_date              2012-12-11T16:53:47-0500
_audit_creation_method            fapswitch 2.2
_symmetry_space_group_name_H-M    P1
_symmetry_Int_Tables_number       1
_space_group_crystal_system       triclinic
_cell_length_a                    14.847238
_cell_length_b                    14.738004
_cell_length_c                    17.072029
_cell_angle_alpha                 108.962946
_cell_angle_beta                  106.509355
_cell_angle_gamma                 107.977665
_cell_volume                      3038.06000559

loop_
_atom_site_label
_atom_site_type_symbol
_atom_type_description
_atom_site_fract_x
_atom_site_fract_y
_atom_site_fract_z
_atom_type_partial_charge
C1    C     C_R   0.086984 0.284579 0.075509 -0.094566
C2    C     C_R   0.064315 0.551565 0.263326 -0.151235
C3    C     C_R   0.281348 0.783185 0.173569 0.419509
C4    C     C_R   0.935585 0.519203 0.746790 -0.100657
C5    C     C_R   0.700576 0.410405 0.001096 -0.090704
C6    C     C_R   0.337200 0.783476 0.254275 -0.042812
C7    C     C_R   0.640858 0.444685 0.950844 0.128393
C8    C     C_R   0.972371 0.534974 0.273929 0.124213
C9    C     C_R   0.993543 0.823023 0.987555 0.090427
C10   C     C_R   0.366449 0.414224 0.850012 0.093881
C11   C     C_R   0.330281 0.390544 0.911761 -0.020731
C12   C     C_R   0.027197 0.581753 0.747280 0.092649
C13   C     C_R   0.376699 0.336308 0.952048 0.451838
C14   C     C_R   0.477394 0.350435 0.961351 -0.232722
C15   C     C_R   0.528733 0.409715 0.923654 -0.023190
C16   C     C_R   0.776387 0.200660 0.812791 -0.118905
C17   C     C_R   0.466288 0.432114 0.861666 0.036729
C18   C     C_3   0.466493 0.481187 0.797924 0.344610
C19   C     C_3   0.351985 0.455214 0.779683 -0.500474
C20   C     C_R   0.969843 0.576148 0.363366 -0.013569
C21   C     C_R   0.041003 0.615097 0.678326 -0.004491
C22   C     C_R   0.141801 0.629249 0.591026 -0.171593
C23   C     C_R   0.759840 0.194576 0.726505 0.063526
C24   C     C_R   0.133320 0.625069 0.667786 -0.206658
C25   C     C_R   0.961797 0.624528 0.616845 0.415770
C26   C     C_R   0.967172 0.621072 0.535071 -0.029870
C27   C     C_R   0.056476 0.619141 0.522166 0.139991
C28   C     C_R   0.259581 0.532680 0.949354 0.448746
C29   C     C_R   0.057115 0.597629 0.437943 -0.287130
C30   C     C_R   0.884314 0.588954 0.377049 0.446644
C31   C     C_R   0.883619 0.611758 0.463122 -0.203506
C32   C     C_R   0.719408 0.098209 0.640251 0.113708
C33   C     C_R   0.445236 0.859626 0.323402 0.159636
C34   C     C_R   0.275954 0.445534 0.954451 -0.027212
C35   C     C_R   0.587258 0.039003 0.401240 -0.225647
C36   C     C_R   0.493800 0.960583 0.327540 -0.100549
C37   C     C_R   0.495005 0.837653 0.393506 -0.236084
C38   C     C_R   0.582334 0.919867 0.472383 0.160045
C39   C     C_R   0.627674 0.021501 0.476302 0.178524
C40   C     C_R   0.782196 0.297270 0.735664 -0.129730
C41   C     C_R   0.701879 0.108220 0.559122 -0.250030
C42   C     C_R   0.683014 0.995667 0.635634 -0.145978
C43   C     C_R   0.616788 0.906060 0.551176 -0.176237
C44   C     C_R   0.082424 0.122862 0.152228 0.183841
C45   C     C_R   0.274323 0.690532 0.252924 -0.203983
C46   C     C_R   0.995388 0.108750 0.080837 0.022480
C47   C     C_R   0.900658 0.016524 0.046518 -0.186969
C48   C     C_R   0.890825 0.951875 0.091904 -0.168973
C49   C     C_R   0.975487 0.977013 0.171088 0.053225
C50   C     C_R   0.072486 0.057669 0.195618 0.135106
C51   C     C_3   0.149715 0.147249 0.287386 -0.463289
C52   C     C_R   0.243741 0.429152 0.019813 -0.139058
C53   C     C_3   0.160605 0.219393 0.240715 -0.513397
C54   C     C_R   0.108154 0.606083 0.826019 -0.116749
C55   C     C_R   0.914541 0.200523 0.998368 -0.139004
C56   C     C_R   0.704311 0.504275 0.922459 -0.095259
C57   C     C_R   0.000012 0.190124 0.046764 0.089262
C58   C     C_R   0.889887 0.462451 0.188180 -0.077533
C59   C     C_R   0.081575 0.807817 0.022420 -0.106762
C60   C     C_R   0.908969 0.722466 0.945199 -0.081614
Cl1   Cl    Cl    0.336478 0.842874 0.113873 -0.635304
Cl2   Cl    Cl    0.309715 0.239746 0.980651 -0.659901
Cl3   Cl    Cl    0.548178 0.622354 0.856494 -0.592273
Cl4   Cl    Cl    0.778267 0.579667 0.290355 -0.647490
Cl5   Cl    Cl    0.858799 0.641666 0.642182 -0.681987
Cl6   Cl    Cl    0.349218 0.639458 0.945629 -0.577601
H1    H     H_    0.679621 0.528664 0.870298 0.139891
H2    H     H_    0.335235 0.524994 0.793685 0.266156
H3    H     H_    0.296586 0.388684 0.710229 0.150923
H4    H     H_    0.123709 0.587991 0.429736 0.134142
H5    H     H_    0.211484 0.630407 0.581944 0.140821
H6    H     H_    0.815541 0.616945 0.471476 0.222022
H7    H     H_    0.734290 0.185503 0.560488 0.121458
H8    H     H_    0.766515 0.136031 0.831197 0.102783
H9    H     H_    0.699123 0.984831 0.696966 0.131159
H10   H     H_    0.620536 0.117343 0.404174 0.144668
H11   H     H_    0.583912 0.828222 0.549156 0.144356
H12   H     H_    0.807322 0.428804 0.171199 0.155088
H13   H     H_    0.460554 0.760595 0.392024 0.125333
H14   H     H_    0.832218 0.997660 0.988299 0.152921
H15   H     H_    0.815934 0.885813 0.068518 0.182604
H16   H     H_    0.113876 0.165658 0.335919 0.201284
H17   H     H_    0.221793 0.137467 0.314255 0.200844
H18   H     H_    0.130912 0.279592 0.262154 0.196273
H19   H     H_    0.239408 0.251735 0.241696 0.214037
H20   H     H_    0.777295 0.323668 0.683447 0.098253
H21   H     H_    0.250174 0.375053 0.047706 0.191221
H22   H     H_    0.187315 0.667037 0.854696 0.188170
H23   H     H_    0.161376 0.868399 0.054862 0.174340
H24   H     H_    0.833565 0.151551 0.980062 0.101995
H25   H     H_    0.297411 0.655203 0.296704 0.120664
H26   H     H_    0.164597 0.311565 0.126500 0.111288
H27   H     H_    0.196398 0.620787 0.715065 0.162369
H28   H     H_    0.456997 0.983870 0.278623 0.182623
H29   H     H_    0.828344 0.702370 0.905615 0.144951
H30   H     H_    0.143234 0.605237 0.314570 0.110067
H31   H     H_    0.673651 0.349046 0.021673 0.096848
H32   H     H_    0.514435 0.316383 0.999791 0.176647
H33   H     H_    0.856410 0.493343 0.699453 0.155868
H34   H     H_    0.477254 0.436070 0.737860 0.052667
N1    N     N_R   0.055640 0.348550 0.045600 -0.048815
N2    N     N_R   0.811290 0.303400 0.871650 -0.046315
N3    N     N_R   0.205180 0.552990 0.997660 -0.068442
N4    N     N_R   0.814810 0.361830 0.823710 -0.047892
N5    N     N_R   0.201660 0.494570 0.045600 -0.072623
N6    N     N_R   0.068420 0.560530 0.871650 -0.055079
N7    N     N_R   0.948050 0.295860 0.997660 -0.043480
N8    N     N_R   0.185190 0.638170 0.176290 -0.059710
N9    N     N_R   0.798340 0.505430 0.954400 -0.053941
N10   N     N_R   0.931580 0.439470 0.128350 -0.056093
N11   N     N_R   0.051950 0.704140 0.002340 -0.044605
N12   N     N_R   0.944360 0.651450 0.954400 -0.053663
N13   N     N_R   0.039170 0.492150 0.176290 -0.046181
N14   N     N_R   0.188710 0.696600 0.128350 -0.077124
N15   N     N_R   0.794820 0.447010 0.002340 -0.049634
N16   N     N_R   0.960830 0.507850 0.823710 -0.057856
Ni1   Ni    Ni4+2 0.119330 0.493420 0.109950 0.213364
Ni2   Ni    Ni4+2 0.880670 0.506580 0.890050 0.228293
Ni3   Ni    Ni4+2 0.872590 0.372590 0.000000 0.215222
Ni4   Ni    Ni4+2 0.127410 0.627410 0.000000 0.308507

loop_
_geom_bond_atom_site_label_1
_geom_bond_atom_site_label_2
_ccdc_geom_bond_type
N1    N7    A    
C54   H22   S    
C6    C45   A    
C30   Cl4   S    
C27   C29   A    
C56   N9    A    
C28   Cl6   S    
N11   N12   A    
C3    C6    A    
C4    H33   S    
C39   C41   A    
C20   C30   A    
C37   H13   S    
C26   C27   A    
C8    C20   S    
C53   H18   S    
C16   H8    S    
C7    C56   A    
C55   H24   S    
C30   C31   A    
C2    N13   A    
C18   Cl3   S    
C10   C17   A    
C40   H20   S    
C23   C40   A    
C52   H21   S    
C33   C36   A    
C48   H15   S    
C18   C19   S    
C59   H23   S    
N8    N14   A    
C8    C58   A    
C44   C53   S    
C13   Cl2   S    
N3    Ni4   S    
C59   N11   A    
C32   C41   A    
C4    C12   A    
C45   N8    A    
C16   C23   A    
C7    C15   S    
C28   C34   A    
C26   C31   A    
C13   C14   A    
C5    N15   A    
N5    Ni1   S    
C18   H34   S    
C47   H14   S    
N7    Ni3   S    
C44   C46   A    
N9    Ni2   S    
C14   H32   S    
N4    Ni2   S    
C20   C29   A    
C3    Cl1   S    
C35   H10   S    
C54   N6    A    
C25   Cl5   S    
C5    C7    A    
C58   H12   S    
C50   C51   S    
C25   C26   A    
C12   C21   S    
C33   C37   A    
C55   N7    A    
N11   Ni4   S    
C9    C59   A    
C35   C36   A    
C35   C39   A    
C37   C38   A    
C60   N12   A    
C1    C57   A    
C40   N4    A    
C47   C48   A    
C51   H16   S    
C10   C19   S    
C17   C18   S    
C42   H9    S    
C19   H2    S    
N3    N5    A    
N2    N4    A    
N10   N13   A    
N13   Ni1   S    
C16   N2    A    
C48   C49   A    
C5    H31   S    
C52   N5    A    
C1    H26   S    
N15   Ni3   S    
C22   C27   A    
C55   C57   A    
C46   C57   S    
C22   C24   A    
C19   H3    S    
C42   C43   A    
C51   H17   S    
C22   H5    S    
C29   H4    S    
C44   C50   A    
C15   C17   A    
C21   C25   A    
C46   C47   A    
C31   H6    S    
N6    Ni4   S    
C58   N10   A    
N8    Ni1   S    
C4    N16   A    
C11   C34   S    
C2    C8    A    
C3    N14   A    
N10   Ni3   S    
C43   H11   S    
C56   H1    S    
C34   C52   A    
C6    C33   S    
C9    C60   A    
N1    Ni1   S    
C23   C32   S    
C2    H30   S    
C38   C43   A    
C24   H27   S    
N12   Ni2   S    
C11   C13   A    
C28   N3    A    
C38   C39   A    
C1    N1    A    
N16   Ni2   S    
C45   H25   S    
C12   C54   A    
C10   C11   A    
N9    N15   A    
C41   H7    S    
C60   H29   S    
C36   H28   S    
C49   C50   A    
C21   C24   A    
N6    N16   A    
C32   C42   A    
C14   C15   A    
C53   H19   S    
C51   C53   S    
N14   Ni4   S    
N2    Ni3   S    
