data_mof_unit_24213.cif
_audit_creation_date              2013-03-05T16:34:21-0500
_audit_creation_method            fapswitch 2.2
_symmetry_space_group_name_H-M    P1
_symmetry_Int_Tables_number       1
_space_group_crystal_system       triclinic
_cell_length_a                    18.757457
_cell_length_b                    18.728451
_cell_length_c                    18.931423
_cell_angle_alpha                 109.570973
_cell_angle_beta                  109.658468
_cell_angle_gamma                 109.20088
_cell_volume                      5118.49187258

loop_
_atom_site_label
_atom_site_type_symbol
_atom_site_description
_atom_site_fract_x
_atom_site_fract_y
_atom_site_fract_z
_atom_type_partial_charge
O1    O     O_R   0.409800 0.552180 0.462000 -0.570634
O2    O     O_R   0.409830 0.447810 0.357640 -0.589245
C1    C     C_R   0.382625 0.501700 0.381396 0.782619
O3    O     O_R   0.590160 0.642370 0.552180 -0.572725
O4    O     O_R   0.590190 0.537990 0.447820 -0.599470
C2    C     C_R   0.620459 0.619188 0.501891 0.756050
Cu1   Cu    Cu3+1 0.499980 0.561800 0.561790 0.974737
Cu2   Cu    Cu3+1 0.500020 0.438200 0.438210 1.025159
O5    O     O_R   0.590170 0.552190 0.642360 -0.601065
O6    O     O_R   0.590200 0.447820 0.538000 -0.552481
O7    O     O_R   0.409810 0.462010 0.552180 -0.588194
O8    O     O_R   0.409840 0.357630 0.447820 -0.534805
C3    C     C_R   0.620787 0.501612 0.618329 0.818750
C4    C     C_R   0.381015 0.381029 0.499637 0.863484
H1    H     H_    0.771269 0.846770 0.887438 0.122055
C5    C     C_R   0.769246 0.886667 0.792818 -0.137419
H2    H     H_    0.770534 0.946482 0.828185 0.118449
C6    C     C_R   0.765920 0.864996 0.713129 -0.149825
H3    H     H_    0.763908 0.908301 0.687202 0.111336
C7    C     C_R   0.763802 0.787169 0.666551 0.128731
C8    C     C_R   0.766541 0.732392 0.701709 -0.086728
H4    H     H_    0.766111 0.673013 0.667473 0.086868
C9    C     C_R   0.767906 0.753337 0.780437 -0.113105
H5    H     H_    0.766544 0.709206 0.805405 0.119237
C10   C     C_R   0.769775 0.830588 0.826258 -0.101906
C11   C     C_R   0.821889 0.823894 0.576940 -0.234678
H6    H     H_    0.876839 0.882222 0.636415 0.153640
C12   C     C_R   0.813555 0.812177 0.497148 -0.063102
C13   C     C_R   0.739327 0.739419 0.418993 -0.000871
C14   C     C_R   0.679734 0.675480 0.423433 -0.250472
H7    H     H_    0.623793 0.618172 0.363834 0.152352
C15   C     C_R   0.688372 0.686747 0.503298 -0.074691
C16   C     C_R   0.757961 0.764022 0.581064 -0.008742
C17   C     C_R   0.639051 0.719894 0.278821 -0.144586
H8    H     H_    0.591643 0.717674 0.299769 0.124830
C18   C     C_R   0.620547 0.714561 0.198673 -0.125142
H9    H     H_    0.559193 0.707643 0.158122 0.134488
C19   C     C_R   0.681621 0.719231 0.171359 -0.128450
H10   H     H_    0.667776 0.716515 0.109947 0.121559
C20   C     C_R   0.760707 0.727925 0.223572 -0.118776
H11   H     H_    0.808086 0.731723 0.202528 0.142357
C21   C     C_R   0.779234 0.732939 0.303575 -0.098069
H12   H     H_    0.841116 0.741215 0.343969 0.102897
C22   C     C_R   0.719153 0.730163 0.332491 0.112192
H13   H     H_    0.584524 0.898754 0.586438 0.117181
C23   C     C_R   0.446392 0.808654 0.518197 -0.129847
H14   H     H_    0.433560 0.852439 0.559635 0.118846
C24   C     C_R   0.377763 0.726136 0.449406 -0.135333
H15   H     H_    0.312074 0.706676 0.438254 0.116052
C25   C     C_R   0.394071 0.668849 0.395667 0.127204
C26   C     C_R   0.479707 0.695735 0.410973 -0.121885
H16   H     H_    0.493279 0.652899 0.369448 0.097766
C27   C     C_R   0.548052 0.778544 0.479524 -0.113523
H17   H     H_    0.613823 0.799373 0.490798 0.136636
C28   C     C_R   0.531488 0.834786 0.533316 -0.098729
C29   C     C_R   0.255289 0.578660 0.255881 -0.238903
H18   H     H_    0.257808 0.638958 0.260842 0.158732
C30   C     C_R   0.186219 0.498376 0.183657 -0.072082
C31   C     C_R   0.182223 0.419514 0.176282 -0.006870
C32   C     C_R   0.248352 0.422952 0.241760 -0.245708
H19   H     H_    0.245665 0.362523 0.236522 0.163064
C33   C     C_R   0.317105 0.503155 0.314421 -0.073913
C34   C     C_R   0.321061 0.582108 0.321898 -0.001885
C35   C     C_R   0.055376 0.272036 0.111785 -0.133675
H20   H     H_    0.062405 0.288767 0.175267 0.121456
C36   C     C_R   0.989703 0.189394 0.040881 -0.114315
H21   H     H_    0.946366 0.142838 0.049697 0.129660
C37   C     C_R   0.980306 0.166625 0.958735 -0.091913
H22   H     H_    0.929759 0.102475 0.903982 0.120881
C38   C     C_R   0.036601 0.226445 0.947387 -0.117338
H23   H     H_    0.029939 0.208032 0.883967 0.140088
C39   C     C_R   0.101750 0.309588 0.017908 -0.125438
H24   H     H_    0.145194 0.355282 0.008359 0.105124
C40   C     C_R   0.111449 0.332916 0.100624 0.123102
H25   H     H_    0.174702 0.568535 0.468624 0.122203
C41   C     C_R   0.207392 0.512975 0.549202 -0.138216
H26   H     H_    0.209079 0.559955 0.602975 0.126501
C42   C     C_R   0.224010 0.447130 0.555326 -0.134271
H27   H     H_    0.238352 0.443551 0.614062 0.120003
C43   C     C_R   0.222449 0.386388 0.485953 0.144233
C44   C     C_R   0.202944 0.391529 0.410022 -0.143424
H28   H     H_    0.200537 0.344539 0.355603 0.115816
C45   C     C_R   0.185243 0.456853 0.403803 -0.131769
H29   H     H_    0.168925 0.460108 0.344893 0.140812
C46   C     C_R   0.188033 0.517837 0.473492 -0.102505
C47   C     C_R   0.174509 0.249327 0.489667 -0.236068
H30   H     H_    0.116028 0.251630 0.484596 0.160872
C48   C     C_R   0.186107 0.181379 0.496042 -0.120127
C49   C     C_R   0.262342 0.178060 0.503626 -0.109894
C50   C     C_R   0.326966 0.244578 0.505341 0.306243
C51   C     C_R   0.314696 0.313343 0.499630 -0.189581
C52   C     C_R   0.238287 0.315818 0.492164 -0.054612
C53   C     C_R   0.342690 0.123473 0.586525 -0.065577
H31   H     H_    0.384607 0.189283 0.641531 0.123428
C54   C     C_R   0.356083 0.055912 0.592054 -0.137390
H32   H     H_    0.408104 0.069647 0.650922 0.120175
C55   C     C_R   0.302488 0.970694 0.521577 -0.140835
H33   H     H_    0.312978 0.918460 0.525898 0.117328
C56   C     C_R   0.235246 0.952850 0.445551 -0.075159
H34   H     H_    0.193751 0.886783 0.391170 0.161129
C57   C     C_R   0.221531 0.020184 0.439750 -0.032669
H35   H     H_    0.169251 0.005625 0.380542 0.148947
C58   C     C_R   0.275438 0.106047 0.510160 0.146244
H36   H     H_    0.618728 0.482382 0.749914 0.166178
C59   C     C_R   0.781424 0.523264 0.614843 -0.176491
H37   H     H_    0.738133 0.532965 0.569280 0.135273
C60   C     C_R   0.854520 0.526460 0.609356 -0.126781
H38   H     H_    0.865447 0.537383 0.560345 0.126650
C61   C     C_R   0.912769 0.514342 0.665891 -0.128474
H39   H     H_    0.968379 0.514776 0.660107 0.133137
C62   C     C_R   0.899621 0.501432 0.729826 -0.170450
H40   H     H_    0.945262 0.489409 0.770018 0.146660
C63   C     C_R   0.827758 0.501371 0.739045 0.087127
C64   C     C_R   0.765788 0.508840 0.678300 0.085056
C65   C     C_R   0.690381 0.502408 0.683283 -0.096504
C66   C     C_R   0.677212 0.489109 0.747101 -0.192502
H41   H     H_    0.726437 0.472589 0.855748 0.187168
C67   C     C_R   0.738043 0.482557 0.806769 -0.201740
C68   C     C_R   0.814560 0.491725 0.805616 -0.128022
O9    O     O_R   0.052200 0.909800 0.461980 -0.585039
O10   O     O_R   0.947810 0.909820 0.357620 -0.586575
C69   C     C_R   0.999107 0.879679 0.381550 0.779170
O11   O     O_R   0.962020 0.909790 0.552160 -0.576609
O12   O     O_R   0.857630 0.909810 0.447800 -0.576811
C70   C     C_R   0.880937 0.879916 0.498486 0.783888
Cu3   Cu    Cu3+1 0.061810 0.999960 0.561770 0.970776
Cu4   Cu    Cu3+1 0.938190 0.999990 0.438190 0.963756
O13   O     O_R   0.052190 0.090140 0.642340 -0.574859
O14   O     O_R   0.947800 0.090160 0.537980 -0.585763
O15   O     O_R   0.142370 0.090150 0.552150 -0.578088
O16   O     O_R   0.037980 0.090170 0.447800 -0.585621
C71   C     C_R   0.000926 0.119890 0.618564 0.790989
C72   C     C_R   0.118948 0.116873 0.498232 0.807319
O17   O     O_R   0.052180 0.461950 0.909820 -0.600072
O18   O     O_R   0.947800 0.357590 0.909850 -0.572062
C73   C     C_R   0.998139 0.380867 0.879495 0.768082
O19   O     O_R   0.142360 0.552150 0.090150 -0.582223
O20   O     O_R   0.037980 0.447790 0.090180 -0.583889
C74   C     C_R   0.118901 0.499021 0.117783 0.782100
Cu5   Cu    Cu3+1 0.061790 0.561750 0.999970 0.989100
Cu6   Cu    Cu3+1 0.938180 0.438170 0.000010 0.976519
O21   O     O_R   0.052170 0.642340 0.090130 -0.568655
O22   O     O_R   0.947790 0.537980 0.090160 -0.579076
O23   O     O_R   0.962000 0.552140 0.909800 -0.587054
O24   O     O_R   0.857610 0.447780 0.909830 -0.574232
C75   C     C_R   0.999822 0.618964 0.118420 0.847268
C76   C     C_R   0.881214 0.496229 0.877535 0.827030
H42   H     H_    0.011053 0.687043 0.585792 0.126598
C77   C     C_R   0.085339 0.760546 0.544477 -0.138449
H43   H     H_    0.145059 0.798155 0.606487 0.124381
C78   C     C_R   0.083841 0.774636 0.476089 -0.093279
H44   H     H_    0.142861 0.822845 0.485722 0.121745
C79   C     C_R   0.006236 0.726994 0.395877 0.110022
C80   C     C_R   0.931555 0.661922 0.383718 -0.182834
H45   H     H_    0.872030 0.622267 0.321312 0.133507
C81   C     C_R   0.933123 0.648246 0.452318 -0.128147
H46   H     H_    0.874959 0.598999 0.442997 0.130724
C82   C     C_R   0.009871 0.697802 0.532779 -0.104167
C83   C     C_R   0.002786 0.677699 0.256324 -0.268061
H47   H     H_    0.005370 0.622271 0.260878 0.149765
C84   C     C_R   0.999564 0.686012 0.184848 -0.021279
C85   C     C_R   0.996107 0.757582 0.178009 0.140725
C86   C     C_R   0.995627 0.819763 0.243440 -0.235626
H48   H     H_    0.991715 0.874325 0.237883 0.157498
C87   C     C_R   0.000057 0.812334 0.315735 -0.112956
C88   C     C_R   0.004301 0.740748 0.322809 -0.007667
C89   C     C_R   0.053049 0.836439 0.107116 0.219800
C90   C     C_R   0.041242 0.843985 0.032500 0.304315
C91   C     C_R   0.963698 0.781829 0.953375 -0.295569
H49   H     H_    0.954094 0.785543 0.895294 0.208644
C92   C     C_R   0.899015 0.712804 0.947451 -0.295742
H50   H     H_    0.841045 0.664432 0.885419 0.172123
C93   C     C_R   0.909083 0.705097 0.020712 0.429965
C94   C     C_R   0.986954 0.765865 0.100574 -0.151112
H51   H     H_    0.394852 0.327025 0.792266 0.121852
C95   C     C_R   0.308436 0.296614 0.842355 -0.130867
H52   H     H_    0.354589 0.296474 0.895228 0.132361
C96   C     C_R   0.226369 0.280141 0.832502 -0.129839
H53   H     H_    0.209617 0.267416 0.878158 0.127225
C97   C     C_R   0.166019 0.279577 0.763623 0.120371
C98   C     C_R   0.189144 0.296855 0.705469 -0.139647
H54   H     H_    0.143670 0.297594 0.652555 0.107952
C99   C     C_R   0.271818 0.314549 0.716369 -0.128259
H55   H     H_    0.290254 0.329279 0.672507 0.138211
C100  C     C_R   0.331137 0.313799 0.784317 -0.112862
C101  C     C_R   0.076514 0.326284 0.816408 -0.250013
H56   H     H_    0.136817 0.384739 0.870048 0.155722
C102  C     C_R   0.996612 0.313760 0.810980 -0.078133
C103  C     C_R   0.918063 0.237024 0.741961 -0.000495
C104  C     C_R   0.921474 0.175069 0.679058 -0.239309
H57   H     H_    0.861479 0.116176 0.625510 0.150218
C105  C     C_R   0.001373 0.187732 0.684841 -0.068738
C106  C     C_R   0.079881 0.263512 0.754394 -0.005314
C107  C     C_R   0.779947 0.147809 0.734005 -0.141135
H58   H     H_    0.804051 0.105069 0.744934 0.111874
C108  C     C_R   0.697051 0.130383 0.722080 -0.152053
H59   H     H_    0.657597 0.074566 0.723801 0.120038
C109  C     C_R   0.664920 0.184723 0.707516 -0.092115
H60   H     H_    0.600602 0.170966 0.697947 0.133040
C110  C     C_R   0.715606 0.256505 0.704757 -0.091133
H61   H     H_    0.690274 0.297976 0.692607 0.163229
C111  C     C_R   0.798664 0.274323 0.716964 -0.129883
H62   H     H_    0.836967 0.329424 0.713700 0.102957
C112  C     C_R   0.831504 0.220274 0.732023 0.131574
N1    N     N_R   0.405665 0.243139 0.514407 0.119693
O25   O     O_R   0.401795 0.175524 0.459644 -0.300679
O26   O     O_R   0.481263 0.308389 0.579043 -0.408207
N2    N     N_R   0.130856 0.900633 0.189277 0.146813
O27   O     O_R   0.154903 0.983157 0.220003 -0.322593
O28   O     O_R   0.176912 0.876703 0.234434 -0.353449
N3    N     N_R   0.108382 0.912042 0.035202 0.153698
O29   O     O_R   0.190323 0.938843 0.083892 -0.275251
O30   O     O_R   0.087755 0.939759 0.980995 -0.358273
O31   O     O_3   0.845411 0.634987 0.013802 -0.585884
C113  C     C_3   0.772800 0.646848 0.003516 0.041613
H63   H     H_    0.738227 0.639484 0.938670 0.145366
H64   H     H_    0.792834 0.712346 0.054935 0.135226
C114  C     C_3   0.709457 0.577663 0.010544 -0.787309
H65   H     H_    0.741861 0.583904 0.075050 0.253433
H66   H     H_    0.651593 0.585670 0.001867 0.196091
H67   H     H_    0.686951 0.511259 0.959842 0.239424

loop_
_geom_bond_atom_site_label_1
_geom_bond_atom_site_label_2
_geom_bond_distance
_ccdc_geom_bond_type
C30   C74   1.452731 S    
O22   C75   1.292498 A    
C107  C108  1.398540 A    
C92   H50   1.078118 S    
C53   H31   1.083293 S    
C79   C88   1.480620 S    
C54   H32   1.082356 S    
C91   C92   1.391217 A    
C91   H49   1.082827 S    
O21   C75   1.292591 A    
C101  C106  1.392280 A    
C36   C37   1.397581 A    
C86   H48   1.084817 S    
C99   H55   1.081276 S    
C53   C58   1.404966 A    
C96   H53   1.083535 S    
C50   C51   1.412363 A    
Cu1   Cu2   2.684405 S    
C27   H17   1.081789 S    
C12   C70   1.452519 S    
Cu1   O7    1.967896 S    
C92   C93   1.398535 A    
C12   C13   1.414156 A    
C11   H6    1.085359 S    
C87   C88   1.415997 A    
C111  C112  1.403826 A    
C45   H29   1.081349 S    
C18   H9    1.082320 S    
C86   C87   1.399322 A    
C41   C42   1.398420 A    
C48   C72   1.454581 S    
C6    H3    1.083736 S    
C61   C62   1.393556 A    
O17   Cu5   1.968004 S    
O4    C2    1.296506 A    
C43   C44   1.404100 A    
O7    C4    1.292447 A    
C42   C43   1.403965 A    
O11   C70   1.295499 A    
C5    H2    1.082880 S    
Cu3   O15   1.970299 S    
C68   C76   1.460277 S    
C65   C66   1.394507 A    
C98   H54   1.083243 S    
C108  H59   1.082440 S    
C29   H18   1.085008 S    
C32   C33   1.399841 A    
C17   H8    1.083411 S    
O5    C3    1.295750 A    
C67   C68   1.396938 A    
O24   C76   1.297190 A    
H36   C66   1.083981 S    
H25   C46   1.082512 S    
C83   H47   1.085179 S    
C66   C67   1.382297 A    
C37   H22   1.082598 S    
C23   C28   1.397920 A    
C104  C105  1.397415 A    
C78   H44   1.081852 S    
C83   C84   1.396851 A    
C109  H60   1.082550 S    
C105  C106  1.409008 A    
Cu2   O8    1.970641 S    
C14   C15   1.398467 A    
O18   C73   1.293842 A    
C77   C82   1.397993 A    
C71   C105  1.451430 S    
C80   C81   1.398266 A    
Cu6   O24   1.969728 S    
O14   C71   1.293640 A    
C95   C96   1.398397 A    
C107  H58   1.083525 S    
C31   C32   1.392411 A    
C57   C58   1.404537 A    
C69   C87   1.456181 S    
C63   C68   1.419596 A    
C8    H4    1.079150 S    
C73   C102  1.456705 S    
C20   C21   1.397352 A    
C25   C34   1.481489 S    
C60   C61   1.389194 A    
C90   N3    1.438892 S    
C21   C22   1.402863 A    
O23   C76   1.292614 A    
O13   C71   1.291086 A    
C55   C56   1.397555 A    
O9    C69   1.289672 A    
C55   H33   1.082495 S    
C109  C110  1.397757 A    
C98   C99   1.399314 A    
C103  C112  1.479831 S    
C53   C54   1.398288 A    
O19   Cu5   1.969609 S    
C23   C24   1.398785 A    
C111  H62   1.081589 S    
C47   C48   1.395922 A    
C26   H16   1.082980 S    
C57   H35   1.082678 S    
C90   C91   1.402387 A    
C59   C64   1.415826 A    
C95   C100  1.397736 A    
C17   C22   1.406687 A    
Cu5   Cu6   2.684264 S    
C39   C40   1.404913 A    
C113  C114  1.522354 S    
N2    O27   1.301203 A    
C89   C90   1.417139 A    
O31   C113  1.411331 S    
C110  H61   1.082046 S    
O11   Cu3   1.968369 S    
O17   C73   1.294229 A    
C77   C78   1.398552 A    
O3    Cu1   1.970640 S    
C30   C31   1.410161 A    
C93   C94   1.408034 A    
O20   Cu6   1.967961 S    
C85   C86   1.392337 A    
C44   H28   1.083090 S    
C32   H19   1.084964 S    
C26   C27   1.399058 A    
C35   C36   1.398681 A    
C43   C52   1.479110 S    
C113  H63   1.112973 S    
Cu4   O14   1.971446 S    
N3    O29   1.301281 A    
C13   C14   1.393109 A    
H51   C100  1.082438 S    
C50   N1    1.438097 S    
C59   C60   1.392925 A    
C11   C16   1.392332 A    
C114  H66   1.109558 S    
C56   H34   1.081984 S    
C14   H7    1.085072 S    
C60   H38   1.082724 S    
C107  C112  1.404908 A    
C7    C8    1.402565 A    
C33   C34   1.411570 A    
C25   C26   1.405285 A    
O10   C69   1.298082 A    
C29   C34   1.394385 A    
C62   C63   1.415938 A    
H42   C82   1.082468 S    
C41   H26   1.082325 S    
C24   C25   1.404893 A    
O19   C74   1.293443 A    
C31   C40   1.480687 S    
C80   H45   1.083154 S    
C38   H23   1.081372 S    
O9    Cu3   1.971352 S    
O12   Cu4   1.970060 S    
C75   C84   1.452063 S    
C108  C109  1.398070 A    
C95   H52   1.082409 S    
C45   C46   1.397331 A    
O8    C4    1.292814 A    
C8    C9    1.397114 A    
C13   C22   1.484832 S    
N3    O30   1.301575 A    
O3    C2    1.291242 A    
C104  H57   1.085139 S    
C21   H12   1.077583 S    
C7    C16   1.482759 S    
C27   C28   1.397347 A    
C101  C102  1.400305 A    
C18   C19   1.396574 A    
C51   C52   1.409998 A    
C97   C98   1.404472 A    
C114  H67   1.108383 S    
C63   C64   1.417235 A    
C1    C33   1.454495 S    
C89   C94   1.417234 A    
C5    C10   1.397139 A    
Cu1   O5    1.966962 S    
N1    O25   1.301172 A    
C23   H14   1.082452 S    
C20   H11   1.081293 S    
Cu3   O13   1.967581 S    
C62   H40   1.079758 S    
C56   C57   1.398451 A    
C47   H30   1.085103 S    
Cu2   O6    1.970829 S    
O2    Cu2   1.966961 S    
Cu5   O23   1.967938 S    
Cu5   O21   1.970898 S    
C39   H24   1.083123 S    
O16   C72   1.293521 A    
O6    C3    1.289628 A    
C44   C45   1.399365 A    
O4    Cu2   1.967898 S    
C96   C97   1.404167 A    
C54   C55   1.397699 A    
O10   Cu4   1.967463 S    
C64   C65   1.417531 A    
C85   C94   1.484285 S    
C3    C65   1.453021 S    
C59   H37   1.080375 S    
C11   C12   1.396748 A    
C83   C88   1.391940 A    
C15   C16   1.415200 A    
Cu6   O22   1.968121 S    
C93   O31   1.384166 S    
C49   C50   1.405528 A    
N2    O28   1.300940 A    
C47   C52   1.388071 A    
H41   C67   1.080323 S    
C35   H20   1.083436 S    
C89   N2    1.435431 S    
C19   C20   1.396759 A    
C42   H27   1.083437 S    
C114  H65   1.110234 S    
C19   H10   1.081782 S    
C84   C85   1.409060 A    
Cu3   Cu4   2.683652 S    
C24   H15   1.083365 S    
C81   C82   1.397397 A    
C17   C18   1.397845 A    
C29   C30   1.399387 A    
O2    C1    1.292428 A    
C6    C7    1.407459 A    
C78   C79   1.404177 A    
C103  C104  1.393888 A    
Cu4   O16   1.968464 S    
C4    C51   1.454975 S    
C113  H64   1.115433 S    
H1    C10   1.082379 S    
O20   C74   1.292312 A    
C9    H5    1.078512 S    
O15   C72   1.292498 A    
O18   Cu6   1.970803 S    
C9    C10   1.397248 A    
C81   H46   1.082435 S    
C48   C49   1.412679 A    
H13   C28   1.082608 S    
C99   C100  1.397247 A    
C5    C6    1.397982 A    
C2    C15   1.455612 S    
C61   H39   1.082574 S    
C36   H21   1.082337 S    
C37   C38   1.397161 A    
C35   C40   1.404647 A    
C102  C103  1.413291 A    
O1    Cu1   1.970828 S    
C38   C39   1.399410 A    
O1    C1    1.294351 A    
C101  H56   1.084904 S    
C77   H43   1.082278 S    
N1    O26   1.300927 A    
C41   C46   1.397699 A    
C110  C111  1.398612 A    
C49   C58   1.484528 S    
C97   C106  1.478761 S    
O12   C70   1.289950 A    
C79   C80   1.404529 A    
