data_mof_unit_35924.cif
_audit_creation_date              2012-12-10T17:27:53-0500
_audit_creation_method            fapswitch 2.2
_symmetry_space_group_name_H-M    P1
_symmetry_Int_Tables_number       1
_space_group_crystal_system       triclinic
_cell_length_a                    10.620128
_cell_length_b                    11.991238
_cell_length_c                    12.847371
_cell_angle_alpha                 93.773771
_cell_angle_beta                  90.198723
_cell_angle_gamma                 86.614882
_cell_volume                      1629.6970522

loop_
_atom_site_label
_atom_site_type_symbol
_atom_type_description
_atom_site_fract_x
_atom_site_fract_y
_atom_site_fract_z
_atom_type_partial_charge
C1    C     C_R   0.499840 0.522454 0.700437 0.851334
C2    C     C_R   0.936717 0.466299 0.598507 0.098780
C3    C     C_R   0.871507 0.502923 0.510006 -0.085006
C4    C     C_R   0.932541 0.541444 0.425067 -0.200114
C5    C     C_R   0.061248 0.540027 0.424478 -0.205109
C6    C     C_R   0.128251 0.500402 0.508961 -0.079294
C7    C     C_R   0.501878 0.463001 0.187954 -0.122768
C8    C     C_R   0.498930 0.536433 0.811885 -0.055253
C9    C     C_R   0.433200 0.640394 0.970283 -0.166275
C10   C     C_R   0.446167 0.634596 0.862981 -0.186040
C11   C     C_R   0.543479 0.445970 0.867123 -0.245902
C12   C     C_R   0.739430 0.500891 0.502964 0.870640
C13   C     C_R   0.528060 0.449327 0.973772 0.081648
C14   C     C_R   0.472382 0.547795 0.025488 0.142783
C15   C     C_R   0.458304 0.553107 0.132005 -0.267085
C16   C     C_R   0.553516 0.363956 0.137506 -0.280959
C17   C     C_R   0.565420 0.355835 0.029670 0.461086
C18   C     C_R   0.381177 0.953620 0.403416 -0.325513
C19   C     C_R   0.392917 0.837492 0.412500 0.033577
C20   C     C_R   0.551433 0.858802 0.541629 -0.045350
C21   C     C_R   0.543196 0.976059 0.535054 0.093171
C22   C     C_R   0.456673 0.023943 0.465030 0.090096
C23   C     C_R   0.500483 0.477504 0.299504 0.915719
C24   C     C_R   0.448371 0.141216 0.458539 -0.041130
C25   C     C_R   0.607241 0.162461 0.587382 0.036442
C26   C     C_R   0.619101 0.046308 0.596289 -0.325627
C27   C     C_R   0.260492 0.499905 0.502360 0.869628
C28   C     C_R   0.874032 0.433865 0.687711 -0.238631
C29   C     C_R   0.942352 0.401263 0.774665 -0.155651
C30   C     C_R   0.073548 0.401203 0.774635 0.221001
C31   C     C_R   0.136650 0.433069 0.687244 -0.212341
C32   C     C_R   0.068702 0.465392 0.598112 0.057770
H1    H     H_    0.880331 0.570173 0.358213 0.155881
H2    H     H_    0.411824 0.704959 0.819972 0.162343
H3    H     H_    0.587163 0.371647 0.826298 0.182671
H4    H     H_    0.382570 0.179610 0.405077 0.130327
H5    H     H_    0.665637 0.216625 0.634824 0.130696
H6    H     H_    0.313845 0.987969 0.348780 0.148828
H7    H     H_    0.686990 0.011769 0.650350 0.150450
H8    H     H_    0.334672 0.783286 0.364981 0.127950
H9    H     H_    0.617110 0.820451 0.595220 0.127749
H10   H     H_    0.772316 0.435170 0.691870 0.147573
H11   H     H_    0.892988 0.377270 0.842547 0.177140
H12   H     H_    0.238281 0.433945 0.690793 0.166451
H13   H     H_    0.109077 0.568138 0.357342 0.149092
H14   H     H_    0.416127 0.628864 0.171693 0.160640
H15   H     H_    0.587990 0.294399 0.181536 0.179727
H16   H     H_    0.391124 0.716133 0.009797 0.135046
N1    N     N_R   0.523130 0.207800 0.519340 -0.101290
N2    N     N_R   0.476870 0.792180 0.480660 -0.101308
O1    O     O_R   0.506170 0.421690 0.658830 -0.635239
O2    O     O_R   0.491330 0.609320 0.646410 -0.622761
O3    O     O_R   0.690660 0.406170 0.506210 -0.620722
O4    O     O_R   0.675810 0.593790 0.493790 -0.616594
O5    O     O_R   0.508670 0.390680 0.353590 -0.622311
O6    O     O_R   0.493830 0.578310 0.341170 -0.627186
O7    O     O_R   0.324190 0.406210 0.506210 -0.618406
O8    O     O_R   0.309340 0.593830 0.493790 -0.619271
Zn1   Zn    Zn3+2 0.509910 0.374720 0.508290 0.945645
Zn2   Zn    Zn3+2 0.490090 0.625280 0.491710 0.945094
O9    O     O_3   0.623338 0.260240 0.980757 -0.656416
C33   C     C_3   0.530066 0.184498 0.953119 0.069873
H17   H     H_    0.457916 0.223066 0.901096 0.172779
H18   H     H_    0.482923 0.158210 0.024164 0.152349
C34   C     C_3   0.592785 0.080951 0.894571 -0.320103
H19   H     H_    0.646321 0.107263 0.827132 0.222692
H20   H     H_    0.660274 0.038066 0.947273 0.230998
C35   C     C_3   0.495769 0.999176 0.855058 -0.949492
H21   H     H_    0.441628 0.971043 0.921356 0.264634
H22   H     H_    0.544710 0.924746 0.813721 0.259888
H23   H     H_    0.429632 0.039486 0.799701 0.279724
I1    I     I_    0.176871 0.355668 0.907454 -0.450764

loop_
_geom_bond_atom_site_label_1
_geom_bond_atom_site_label_2
_ccdc_geom_bond_type
C2    C28   A    
C9    C14   A    
C23   O5    A    
C33   H17   S    
C3    C12   S    
O5    Zn1   S    
C1    C8    S    
C11   C13   A    
C9    C10   A    
C6    C32   A    
C12   O3    A    
N1    Zn1   S    
C13   C17   A    
C24   H4    S    
C21   C26   A    
C34   C35   S    
N2    Zn2   S    
C21   C22   A    
C7    C15   A    
C2    C3    A    
O3    Zn1   S    
C23   O6    A    
C10   H2    S    
O4    Zn2   S    
C13   C14   A    
C29   H11   S    
C27   O7    A    
C1    O1    A    
C19   N2    A    
C33   H18   S    
C29   C30   A    
C35   H23   S    
C7    C23   S    
C5    C6    A    
C16   H15   S    
C28   H10   S    
C28   C29   A    
C20   H9    S    
C25   N1    A    
C8    C11   A    
C18   H6    S    
O9    C33   S    
C1    O2    A    
C22   C24   A    
C26   H7    S    
O7    Zn1   S    
O1    Zn1   S    
C19   H8    S    
C4    H1    S    
O8    Zn2   S    
C3    C4    A    
C31   C32   A    
O6    Zn2   S    
C18   C19   A    
C20   C21   A    
C9    H16   S    
C2    C32   A    
C34   H19   S    
C31   H12   S    
C24   N1    A    
C35   H22   S    
C30   C31   A    
C7    C16   A    
C20   N2    A    
C14   C15   A    
O2    Zn2   S    
C33   C34   S    
C17   O9    S    
C25   C26   A    
C18   C22   A    
C15   H14   S    
C5    H13   S    
C11   H3    S    
C35   H21   S    
C8    C10   A    
C12   O4    A    
C30   I1    S    
C6    C27   S    
C16   C17   A    
C25   H5    S    
C4    C5    A    
C34   H20   S    
C27   O8    A    
