data_mof_unit_31984.cif
_audit_creation_date              2012-12-10T20:43:19-0500
_audit_creation_method            fapswitch 2.2
_symmetry_space_group_name_H-M    P1
_symmetry_Int_Tables_number       1
_space_group_crystal_system       triclinic
_cell_length_a                    15.809978
_cell_length_b                    10.689461
_cell_length_c                    9.907311
_cell_angle_alpha                 90.071768
_cell_angle_beta                  91.412021
_cell_angle_gamma                 90.597028
_cell_volume                      1673.73577391

loop_
_atom_site_label
_atom_site_type_symbol
_atom_type_description
_atom_site_fract_x
_atom_site_fract_y
_atom_site_fract_z
_atom_type_partial_charge
C1    C     C_R   0.498680 0.260279 0.499871 0.904459
C2    C     C_R   0.046890 0.479247 0.620823 -0.184900
C3    C     C_1   0.824105 0.496464 0.504956 -0.079538
C4    C     C_1   0.175869 0.495719 0.495690 -0.080355
C5    C     C_1   0.250855 0.497662 0.495758 -0.176429
C6    C     C_1   0.749132 0.498252 0.504586 -0.196469
C7    C     C_R   0.507001 0.063449 0.617691 0.083729
C8    C     C_R   0.488020 0.128789 0.500558 -0.134326
C9    C     C_R   0.450361 0.066894 0.389640 -0.229305
C10   C     C_R   0.446154 0.936581 0.388114 0.180460
C11   C     C_R   0.480318 0.871292 0.501519 -0.149896
C12   C     C_R   0.339413 0.499614 0.498541 0.903845
C13   C     C_R   0.499474 0.936578 0.620825 0.051596
C14   C     C_3   0.571719 0.924619 0.721274 -0.024374
C15   C     C_3   0.583068 0.066397 0.711263 -0.025422
C16   C     C_R   0.427671 0.473376 0.068368 0.139853
C17   C     C_R   0.568004 0.541572 0.076405 -0.130458
C18   C     C_R   0.568644 0.542786 0.933112 0.185698
C19   C     C_R   0.427701 0.472841 0.926172 0.153074
C20   C     C_3   0.375376 0.354810 0.922099 0.198704
C21   C     C_3   0.374350 0.357974 0.076626 -0.597350
C22   C     C_R   0.495036 0.739707 0.499845 0.878585
C23   C     C_R   0.660585 0.499971 0.501510 0.899125
C24   C     C_R   0.959233 0.479635 0.623380 -0.191265
C25   C     C_R   0.912999 0.494578 0.502760 0.177630
C26   C     C_R   0.953083 0.508485 0.379587 -0.186385
C27   C     C_R   0.040708 0.508119 0.377029 -0.192306
C28   C     C_R   0.086957 0.493812 0.497700 0.176638
H1    H     H_    0.083308 0.468258 0.714121 0.137483
H2    H     H_    0.623031 0.572736 0.134714 0.161443
H3    H     H_    0.311339 0.377875 0.118664 0.195995
H4    H     H_    0.408410 0.279719 0.126850 0.200640
H5    H     H_    0.927638 0.468869 0.718589 0.137408
H6    H     H_    0.916709 0.520012 0.286340 0.137967
H7    H     H_    0.072288 0.519459 0.281879 0.135786
H8    H     H_    0.428009 0.119283 0.302541 0.159888
H9    H     H_    0.625036 0.868752 0.682706 0.167056
H10   H     H_    0.572381 0.117972 0.806437 0.181400
N1    N     N_R   0.499440 0.499140 0.142800 -0.114563
N2    N     N_R   0.499440 0.499180 0.857150 -0.117878
O1    O     O_R   0.500010 0.316790 0.614690 -0.592761
O2    O     O_R   0.500000 0.316760 0.385350 -0.623709
O3    O     O_R   0.378030 0.499990 0.614640 -0.590934
O4    O     O_R   0.378020 0.499950 0.385300 -0.617660
O5    O     O_R   0.500000 0.683240 0.614650 -0.627073
O6    O     O_R   0.499990 0.683210 0.385310 -0.611778
O7    O     O_R   0.621980 0.500050 0.614700 -0.624292
O8    O     O_R   0.621970 0.500010 0.385360 -0.616440
Zn1   Zn    Zn3+2 0.500010 0.500020 0.653130 0.954541
Zn2   Zn    Zn3+2 0.499990 0.499980 0.346870 0.940166
C29   C     C_3   0.665142 0.106068 0.643181 -0.926962
H11   H     H_    0.672038 0.057665 0.544726 0.246248
H12   H     H_    0.665392 0.208669 0.625997 0.253084
H13   H     H_    0.720075 0.082823 0.710111 0.249494
C30   C     C_3   0.647372 0.592024 0.869737 -0.832351
H14   H     H_    0.631319 0.657252 0.786683 0.269582
H15   H     H_    0.687316 0.646277 0.943275 0.194272
H16   H     H_    0.686117 0.512799 0.835251 0.251289
N3    N     N_3   0.292365 0.372075 0.856030 -0.412282
H17   H     H_    0.263651 0.451837 0.894712 0.166483
H18   H     H_    0.253830 0.295698 0.880427 0.175533
N4    N     N_3   0.420068 0.247588 0.867125 -0.393274
H19   H     H_    0.384846 0.166667 0.887109 0.170176
H20   H     H_    0.478131 0.238156 0.918798 0.161075
C31   C     C_3   0.408140 0.872303 0.264754 -0.855951
H21   H     H_    0.458697 0.830420 0.203990 0.257271
H22   H     H_    0.362322 0.798850 0.295482 0.242416
H23   H     H_    0.373343 0.939139 0.198575 0.215791
C32   C     C_3   0.541437 0.882583 0.860209 -0.914501
H24   H     H_    0.514059 0.786893 0.853966 0.273490
H25   H     H_    0.595758 0.882678 0.933360 0.244920
H26   H     H_    0.491859 0.945569 0.898514 0.236893

loop_
_geom_bond_atom_site_label_1
_geom_bond_atom_site_label_2
_ccdc_geom_bond_type
C8    C9    A    
C9    H8    S    
N4    H20   S    
C30   H14   S    
C15   H10   S    
N4    H19   S    
C23   O8    A    
C15   C29   S    
C32   H26   S    
C1    C8    S    
C11   C13   A    
C9    C10   A    
O6    Zn2   S    
C11   C22   S    
C24   H5    S    
O5    Zn1   S    
C31   H21   S    
C29   H13   S    
C3    C6    T    
C19   C20   S    
C7    C15   S    
C17   C18   A    
C29   H12   S    
N3    H17   S    
C12   O4    A    
C13   C14   S    
C20   C21   S    
C20   N3    S    
C2    C24   A    
C17   H2    S    
C21   H3    S    
C26   C27   A    
C16   C21   S    
C18   C30   S    
O2    Zn2   S    
C2    H1    S    
C6    C23   S    
C1    O1    A    
O1    Zn1   S    
C22   O6    A    
O8    Zn2   S    
C12   O3    A    
C10   C11   A    
C30   H15   S    
C20   N4    S    
C32   H24   S    
C14   C32   S    
N3    H18   S    
C23   O7    A    
C19   N2    A    
C31   H23   S    
C16   N1    A    
C29   H11   S    
C21   H4    S    
C1    O2    A    
C3    C25   S    
N1    Zn2   S    
C24   C25   A    
C5    C12   S    
O7    Zn1   S    
C22   O5    A    
C17   N1    A    
C30   H16   S    
O4    Zn2   S    
C27   C28   A    
C32   H25   S    
C7    C8    A    
C18   N2    A    
C14   C15   S    
O3    Zn1   S    
C2    C28   A    
C7    C13   A    
C27   H7    S    
C25   C26   A    
C4    C28   S    
C26   H6    S    
N2    Zn1   S    
C14   H9    S    
C10   C31   S    
C4    C5    T    
C31   H22   S    
C16   C19   A    
