data_mof_unit_42562.cif
_audit_creation_date              2012-12-11T15:17:39-0500
_audit_creation_method            fapswitch 2.2
_symmetry_space_group_name_H-M    P1
_symmetry_Int_Tables_number       1
_space_group_crystal_system       triclinic
_cell_length_a                    6.937552
_cell_length_b                    20.114686
_cell_length_c                    22.41551
_cell_angle_alpha                 90.0
_cell_angle_beta                  90.000029
_cell_angle_gamma                 89.942889
_cell_volume                      3128.00844906

loop_
_atom_site_label
_atom_site_type_symbol
_atom_type_description
_atom_site_fract_x
_atom_site_fract_y
_atom_site_fract_z
_atom_type_partial_charge
O1    O     O_R   0.620180 0.810610 0.187990 -0.546297
O2    O     O_R   0.379820 0.189390 0.812010 -0.546297
O3    O     O_R   0.379820 0.189390 0.687990 -0.546297
O4    O     O_R   0.620180 0.810610 0.312010 -0.546297
O5    O     O_R   0.120180 0.689390 0.312010 -0.545032
O6    O     O_R   0.879820 0.310610 0.687990 -0.545032
O7    O     O_R   0.879820 0.310610 0.812010 -0.545032
O8    O     O_R   0.120180 0.689390 0.187990 -0.545032
O9    O     O_R   0.290420 0.818570 0.311590 -0.517895
O10   O     O_R   0.709580 0.181430 0.688410 -0.517895
O11   O     O_R   0.709580 0.181430 0.811590 -0.517895
O12   O     O_R   0.290420 0.818570 0.188410 -0.517895
O13   O     O_R   0.790420 0.681430 0.188410 -0.517512
O14   O     O_R   0.209580 0.318570 0.811590 -0.517512
O15   O     O_R   0.209580 0.318570 0.688410 -0.517512
O16   O     O_R   0.790420 0.681430 0.311590 -0.517512
H1    H     H_    0.572963 0.506110 0.590486 0.137219
H2    H     H_    0.427037 0.493890 0.409514 0.137219
H3    H     H_    0.427037 0.493890 0.090486 0.137219
H4    H     H_    0.572962 0.506109 0.909514 0.137219
H5    H     H_    0.073145 0.994725 0.909417 0.136310
H6    H     H_    0.926855 0.005274 0.090582 0.136310
H7    H     H_    0.926855 0.005275 0.409417 0.136310
H8    H     H_    0.073145 0.994725 0.590583 0.136309
C1    C     C_R   0.458770 0.833760 0.332961 0.744222
C2    C     C_R   0.541230 0.166240 0.667039 0.744222
C3    C     C_R   0.541230 0.166240 0.832961 0.744222
C4    C     C_R   0.458769 0.833760 0.167039 0.744221
C5    C     C_R   0.959080 0.665732 0.167458 0.734228
C6    C     C_R   0.040920 0.334268 0.832542 0.734227
C7    C     C_R   0.040920 0.334268 0.667458 0.734229
C8    C     C_R   0.959080 0.665732 0.332542 0.734228
H9    H     H_    0.748664 0.417992 0.641930 0.165917
H10   H     H_    0.251336 0.582008 0.358069 0.165918
H11   H     H_    0.251336 0.582008 0.141930 0.165918
H12   H     H_    0.748664 0.417992 0.858069 0.165918
H13   H     H_    0.249752 0.082332 0.857983 0.165402
H14   H     H_    0.750248 0.917668 0.142016 0.165402
H15   H     H_    0.750247 0.917668 0.357983 0.165401
H16   H     H_    0.249753 0.082332 0.642016 0.165401
H17   H     H_    0.549633 0.587675 0.510583 0.171090
H18   H     H_    0.450367 0.412325 0.489417 0.171090
H19   H     H_    0.450367 0.412325 0.010583 0.171090
H20   H     H_    0.549632 0.587675 0.989417 0.171091
H21   H     H_    0.048479 0.913473 0.989318 0.169345
H22   H     H_    0.951521 0.086527 0.010682 0.169344
H23   H     H_    0.951520 0.086528 0.489318 0.169345
H24   H     H_    0.048479 0.913472 0.510682 0.169344
O17   O     O_3   0.453640 0.707610 0.250000 -0.369623
O18   O     O_3   0.546360 0.292390 0.750000 -0.369623
O19   O     O_3   0.953640 0.792390 0.250000 -0.370830
O20   O     O_3   0.046360 0.207610 0.750000 -0.370830
V1    V     V_3+5 0.178800 0.757860 0.250000 1.490779
V2    V     V_3+5 0.821200 0.242140 0.750000 1.490779
V3    V     V_3+5 0.678800 0.742140 0.250000 1.488966
V4    V     V_3+5 0.321200 0.257860 0.750000 1.488966
C9    C     C_R   0.184679 0.388709 0.575525 0.403844
C10   C     C_R   0.815321 0.611291 0.424474 0.403845
C11   C     C_R   0.815321 0.611291 0.075525 0.403846
C12   C     C_R   0.184679 0.388709 0.924475 0.403844
C13   C     C_R   0.684659 0.111518 0.924854 0.410981
C14   C     C_R   0.315341 0.888482 0.075146 0.410981
C15   C     C_R   0.315341 0.888482 0.424855 0.410981
C16   C     C_R   0.684659 0.111518 0.575145 0.410981
C17   C     C_R   0.031593 0.382601 0.617224 -0.193242
C18   C     C_R   0.968407 0.617399 0.382776 -0.193243
C19   C     C_R   0.968406 0.617399 0.117224 -0.193242
C20   C     C_R   0.031593 0.382601 0.882776 -0.193243
C21   C     C_R   0.532225 0.117667 0.883011 -0.191916
C22   C     C_R   0.467775 0.882333 0.116989 -0.191916
C23   C     C_R   0.467775 0.882333 0.383011 -0.191916
C24   C     C_R   0.532225 0.117667 0.616989 -0.191916
C25   C     C_R   0.866609 0.422570 0.610449 -0.272885
C26   C     C_R   0.133391 0.577430 0.389551 -0.272885
C27   C     C_R   0.133391 0.577430 0.110449 -0.272885
C28   C     C_R   0.866609 0.422570 0.889551 -0.272884
C29   C     C_R   0.367490 0.077664 0.889539 -0.277502
C30   C     C_R   0.632510 0.922335 0.110461 -0.277502
C31   C     C_R   0.632510 0.922336 0.389539 -0.277502
C32   C     C_R   0.367490 0.077664 0.610461 -0.277502
C33   C     C_R   0.853999 0.469586 0.564420 0.099699
C34   C     C_R   0.146001 0.530414 0.435580 0.099699
C35   C     C_R   0.146001 0.530414 0.064420 0.099699
C36   C     C_R   0.853999 0.469585 0.935580 0.099699
C37   C     C_R   0.354492 0.030662 0.935533 0.099464
C38   C     C_R   0.645508 0.969338 0.064467 0.099465
C39   C     C_R   0.645508 0.969338 0.435533 0.099464
C40   C     C_R   0.354492 0.030662 0.564467 0.099464
C41   C     C_R   0.006543 0.476271 0.523301 0.012601
C42   C     C_R   0.993456 0.523729 0.476699 0.012601
C43   C     C_R   0.993456 0.523729 0.023301 0.012601
C44   C     C_R   0.006544 0.476271 0.976699 0.012601
C45   C     C_R   0.506737 0.023758 0.976736 0.012584
C46   C     C_R   0.493264 0.976242 0.023264 0.012584
C47   C     C_R   0.493264 0.976242 0.476736 0.012584
C48   C     C_R   0.506736 0.023758 0.523264 0.012584
C49   C     C_R   0.172151 0.435724 0.528695 -0.001864
C50   C     C_R   0.827849 0.564276 0.471304 -0.001864
C51   C     C_R   0.827849 0.564275 0.028695 -0.001864
C52   C     C_R   0.172151 0.435724 0.971305 -0.001864
C53   C     C_R   0.672355 0.064174 0.971520 -0.005800
C54   C     C_R   0.327645 0.935827 0.028480 -0.005800
C55   C     C_R   0.327645 0.935826 0.471520 -0.005800
C56   C     C_R   0.672355 0.064173 0.528480 -0.005800
C57   C     C_R   0.691261 0.510492 0.559155 -0.175957
C58   C     C_R   0.308739 0.489508 0.440845 -0.175957
C59   C     C_R   0.308739 0.489508 0.059155 -0.175957
C60   C     C_R   0.691261 0.510492 0.940845 -0.175957
C61   C     C_R   0.191449 0.990060 0.940725 -0.176624
C62   C     C_R   0.808551 0.009940 0.059275 -0.176624
C63   C     C_R   0.808551 0.009940 0.440725 -0.176624
C64   C     C_R   0.191449 0.990060 0.559275 -0.176623
C65   C     C_R   0.678223 0.557251 0.513220 -0.171983
C66   C     C_R   0.321777 0.442749 0.486779 -0.171984
C67   C     C_R   0.321777 0.442749 0.013221 -0.171983
C68   C     C_R   0.678222 0.557251 0.986779 -0.171983
C69   C     C_R   0.177873 0.943347 0.986637 -0.171044
C70   C     C_R   0.822128 0.056653 0.013363 -0.171044
C71   C     C_R   0.822127 0.056653 0.486637 -0.171043
C72   C     C_R   0.177873 0.943347 0.513363 -0.171043
O21   O     O_3   0.350373 0.350923 0.581662 -0.552545
C73   C     C_3   0.320176 0.288871 0.553999 -0.257578
H25   H     H_    0.214680 0.258582 0.579383 0.150064
H26   H     H_    0.457550 0.261090 0.554235 0.148524
H27   H     H_    0.274191 0.294339 0.506642 0.116237
O22   O     O_3   0.649626 0.649077 0.418337 -0.552545
C74   C     C_3   0.679822 0.711129 0.446001 -0.257581
H28   H     H_    0.542447 0.738909 0.445765 0.148525
H29   H     H_    0.785318 0.741418 0.420617 0.150063
H30   H     H_    0.725806 0.705660 0.493358 0.116237
O23   O     O_3   0.649626 0.649076 0.081662 -0.552545
C75   C     C_3   0.679821 0.711129 0.053999 -0.257585
H31   H     H_    0.785307 0.741419 0.079385 0.150067
H32   H     H_    0.542443 0.738907 0.054231 0.148524
H33   H     H_    0.725817 0.705660 0.006642 0.116236
O24   O     O_3   0.350374 0.350923 0.918338 -0.552545
C76   C     C_3   0.320177 0.288871 0.946001 -0.257579
H34   H     H_    0.457555 0.261092 0.945767 0.148524
H35   H     H_    0.214687 0.258581 0.920615 0.150066
H36   H     H_    0.274185 0.294339 0.993358 0.116236
O25   O     O_3   0.847742 0.150676 0.919435 -0.550662
C77   C     C_3   0.831971 0.206540 0.957471 -0.295682
H37   H     H_    0.719923 0.202353 0.993028 0.115352
H38   H     H_    0.803217 0.251531 0.930229 0.164468
H39   H     H_    0.971281 0.213559 0.980748 0.144825
O26   O     O_3   0.152257 0.849324 0.080565 -0.550663
C78   C     C_3   0.168030 0.793460 0.042530 -0.295681
H40   H     H_    0.196791 0.748469 0.069773 0.164468
H41   H     H_    0.280074 0.797647 0.006972 0.115352
H42   H     H_    0.028718 0.786438 0.019255 0.144825
O27   O     O_3   0.152259 0.849323 0.419436 -0.550662
C79   C     C_3   0.168032 0.793460 0.457472 -0.295682
H43   H     H_    0.280081 0.797647 0.493028 0.115352
H44   H     H_    0.196785 0.748468 0.430229 0.164468
H45   H     H_    0.028723 0.786440 0.480749 0.144825
O28   O     O_3   0.847741 0.150677 0.580564 -0.550663
C80   C     C_3   0.831966 0.206540 0.542528 -0.295680
H46   H     H_    0.803210 0.251532 0.569771 0.164468
H47   H     H_    0.719917 0.202353 0.506971 0.115352
H48   H     H_    0.971275 0.213561 0.519251 0.144824

loop_
_geom_bond_atom_site_label_1
_geom_bond_atom_site_label_2
_ccdc_geom_bond_type
O14   V4    S    
C40   C48   A    
C45   C46   A    
C14   C54   A    
C22   C30   A    
C11   C51   A    
C21   C29   A    
C47   C48   A    
C10   C50   A    
C60   C68   A    
C27   C35   A    
C62   C70   A    
C31   C39   A    
O4    C1    A    
O9    C1    A    
H24   C72   S    
C76   H35   S    
H11   C27   S    
C80   H46   S    
C58   C66   A    
C53   C70   A    
H20   C68   S    
C57   C65   A    
O28   C80   S    
C38   C62   A    
C26   C34   A    
C37   C61   A    
C75   H33   S    
O8    C5    A    
C39   C63   A    
H21   C69   S    
C18   C26   A    
C17   C25   A    
C14   C22   A    
C63   C71   A    
C38   C46   A    
C78   H40   S    
H19   C67   S    
C5    C19   S    
C37   C45   A    
C10   C18   A    
C55   C72   A    
C34   C58   A    
O20   V2    S    
C75   H31   S    
H6    C62   S    
H8    C64   S    
O1    C4    A    
O27   C79   S    
H16   C32   S    
O2    C3    A    
C1    C23   S    
H12   C28   S    
C12   O24   S    
C4    C22   S    
O12   V1    S    
C3    C21   S    
C56   C71   A    
C33   C41   A    
C30   C38   A    
H23   C71   S    
O6    C7    A    
C29   C37   A    
C80   H47   S    
O7    C6    A    
C77   H39   S    
C28   C36   A    
C52   C67   A    
C74   H29   S    
O6    V2    S    
C25   C33   A    
C47   C55   A    
C76   H36   S    
C33   C57   A    
H18   C66   S    
C61   C69   A    
C11   O23   S    
C78   H42   S    
C15   C55   A    
C45   C53   A    
C51   C68   A    
C64   C72   A    
C50   C65   A    
H14   C30   S    
O17   V3    S    
H13   C29   S    
O18   V4    S    
C23   C31   A    
C24   C32   A    
C41   C49   A    
O19   V1    S    
H15   C31   S    
C13   C53   A    
H2    C58   S    
H1    C57   S    
O3    V4    S    
C11   C19   A    
C79   H45   S    
O11   C3    A    
C9    C49   A    
O18   V2    S    
C2    C24   S    
O11   V2    S    
C15   O27   S    
O21   C73   S    
C15   C23   A    
C54   C69   A    
H10   C26   S    
H9    C25   S    
O12   C4    A    
C10   O22   S    
C80   H48   S    
C48   C56   A    
O4    V3    S    
C77   H38   S    
H22   C70   S    
C19   C27   A    
O13   C5    A    
C73   H26   S    
O23   C75   S    
C41   C42   A    
C43   C44   A    
H7    C63   S    
C44   C52   A    
C8    C18   S    
O26   C78   S    
C79   H44   S    
C13   C21   A    
C7    C17   S    
C39   C47   A    
C78   H41   S    
O3    C2    A    
C16   C56   A    
C13   O25   S    
H17   C65   S    
O24   C76   S    
C12   C52   A    
O8    V1    S    
H5    C61   S    
O15   C7    A    
O16   C8    A    
C35   C43   A    
C76   H34   S    
C16   O28   S    
C34   C42   A    
O15   V4    S    
O5    C8    A    
C73   H27   S    
O5    V1    S    
C74   H30   S    
O14   C6    A    
C32   C40   A    
O2    V4    S    
O25   C77   S    
C20   C28   A    
O10   C2    A    
O22   C74   S    
O17   V1    S    
C9    C17   A    
C36   C60   A    
C35   C59   A    
C59   C67   A    
O19   V3    S    
C16   C24   A    
O1    V3    S    
O10   V2    S    
O16   V3    S    
C9    O21   S    
C40   C64   A    
O20   V4    S    
O9    V1    S    
C79   H43   S    
C12   C20   A    
C75   H32   S    
C14   O26   S    
C73   H25   S    
C77   H37   S    
C36   C44   A    
O7    V2    S    
C43   C51   A    
C49   C66   A    
C42   C50   A    
C6    C20   S    
C74   H28   S    
C46   C54   A    
H4    C60   S    
O13   V3    S    
H3    C59   S    
