data_mof_unit_59132.cif
_audit_creation_date              2012-12-10T18:06:39-0500
_audit_creation_method            fapswitch 2.2
_symmetry_space_group_name_H-M    P1
_symmetry_Int_Tables_number       1
_space_group_crystal_system       triclinic
_cell_length_a                    12.664011
_cell_length_b                    13.407838
_cell_length_c                    15.609644
_cell_angle_alpha                 85.671522
_cell_angle_beta                  98.455126
_cell_angle_gamma                 94.931777
_cell_volume                      2606.6430276

loop_
_atom_site_label
_atom_site_type_symbol
_atom_type_description
_atom_site_fract_x
_atom_site_fract_y
_atom_site_fract_z
_atom_type_partial_charge
C1    C     C_R   0.447483 0.309246 0.513760 0.900595
C2    C     C_R   0.438871 0.548325 0.095312 0.023045
C3    C     C_R   0.328036 0.533455 0.065183 0.073164
C4    C     C_R   0.512826 0.563175 0.035062 -0.155532
C5    C     C_R   0.479733 0.533433 0.949780 0.022084
C6    C     C_R   0.368626 0.513109 0.922146 -0.131014
C7    C     C_R   0.293855 0.519325 0.977890 -0.147364
C8    C     C_R   0.617328 0.608989 0.056611 0.592291
C9    C     C_R   0.693325 0.608367 0.001002 0.570549
C10   C     C_R   0.666187 0.565629 0.920909 -0.250949
C11   C     C_R   0.558512 0.528341 0.894708 -0.060376
C12   C     C_R   0.435976 0.513359 0.336402 0.909504
C13   C     C_R   0.743164 0.563452 0.864433 0.751085
C14   C     C_R   0.712367 0.530910 0.781203 -0.298285
C15   C     C_R   0.532627 0.488532 0.813404 -0.177713
C16   C     C_R   0.727415 0.935874 0.485343 -0.145272
C17   C     C_R   0.591594 0.797993 0.496362 -0.070210
C18   C     C_R   0.311073 0.167803 0.505530 -0.191469
C19   C     C_R   0.281332 0.068901 0.487545 -0.134741
C20   C     C_R   0.359569 0.003271 0.485293 -0.117295
C21   C     C_R   0.469249 0.033805 0.507960 0.004861
C22   C     C_R   0.500517 0.132896 0.528430 -0.097626
C23   C     C_R   0.556478 0.690858 0.493699 0.864537
C24   C     C_R   0.548832 0.966882 0.509147 0.025519
C25   C     C_R   0.656185 0.002645 0.505929 0.030124
C26   C     C_R   0.689122 0.100179 0.531757 0.027483
C27   C     C_R   0.611575 0.159291 0.553432 0.620611
C28   C     C_R   0.526192 0.864563 0.524440 0.155844
C29   C     C_R   0.692332 0.835148 0.474720 -0.211119
C30   C     C_R   0.419895 0.201642 0.521538 -0.068352
C31   C     C_R   0.130246 0.632693 0.628483 0.548927
C32   C     C_R   0.764627 0.378291 0.395386 0.340753
C33   C     C_R   0.863879 0.356188 0.373623 0.148407
C34   C     C_R   0.564557 0.488306 0.663361 0.913053
C35   C     C_R   0.956448 0.405915 0.412328 -0.232302
C36   C     C_R   0.953033 0.477612 0.472252 0.023495
C37   C     C_R   0.851759 0.497372 0.493931 0.194860
C38   C     C_R   0.047644 0.527185 0.513990 -0.054322
C39   C     C_R   0.038893 0.592059 0.579525 0.002833
C40   C     C_R   0.938974 0.612535 0.598341 -0.193355
C41   C     C_R   0.846904 0.566142 0.555692 -0.208145
C42   C     C_R   0.151322 0.512614 0.495317 -0.113642
C43   C     C_R   0.230178 0.609066 0.612677 0.156247
C44   C     C_R   0.398584 0.525203 0.243294 -0.215777
C45   C     C_R   0.605890 0.497092 0.754796 -0.127616
C46   C     C_R   0.253496 0.526315 0.123670 -0.170462
C47   C     C_R   0.288731 0.524603 0.212418 -0.270598
C48   C     C_R   0.473153 0.535814 0.184635 0.633828
H1    H     H_    0.209412 0.505971 0.953858 0.171014
H2    H     H_    0.746565 0.785420 0.455705 0.185971
H3    H     H_    0.809271 0.960408 0.477514 0.159385
H4    H     H_    0.248776 0.219331 0.500714 0.159378
H5    H     H_    0.333865 0.928803 0.464480 0.152969
H6    H     H_    0.197574 0.044237 0.471277 0.148021
H7    H     H_    0.454382 0.453356 0.792290 0.157131
H8    H     H_    0.931449 0.663177 0.647685 0.220624
H9    H     H_    0.165413 0.469519 0.443335 0.147750
H10   H     H_    0.030461 0.385418 0.395126 0.147376
H11   H     H_    0.773068 0.583377 0.574204 0.199902
H12   H     H_    0.770450 0.537064 0.736281 0.178450
H13   H     H_    0.168290 0.518313 0.100980 0.184516
H14   H     H_    0.229880 0.516968 0.256781 0.193159
H15   H     H_    0.335951 0.494795 0.857351 0.134013
N1    N     N_R   0.239390 0.551900 0.544730 -0.127487
N2    N     N_R   0.759950 0.448600 0.455730 -0.135938
O1    O     O_R   0.374950 0.371210 0.521360 -0.628003
O2    O     O_R   0.542050 0.338030 0.492790 -0.591971
O3    O     O_R   0.368720 0.526070 0.390200 -0.626994
O4    O     O_R   0.535820 0.492890 0.361630 -0.554214
O5    O     O_R   0.457950 0.661970 0.507210 -0.615177
O6    O     O_R   0.625050 0.628790 0.478640 -0.634009
O7    O     O_R   0.464180 0.507110 0.638370 -0.637464
O8    O     O_R   0.631280 0.473930 0.609800 -0.599136
Zn1   Zn    Zn3+2 0.388420 0.522150 0.519080 0.939178
Zn2   Zn    Zn3+2 0.611580 0.477850 0.480920 1.008583
F1    F     F_    0.846791 0.597616 0.887429 -0.593915
C49   C     C_3   0.805697 0.138230 0.543754 -0.812748
H16   H     H_    0.817841 0.216317 0.564404 0.283105
H17   H     H_    0.851846 0.089393 0.593686 0.249002
H18   H     H_    0.838073 0.137986 0.481508 0.213697
C50   C     C_3   0.458538 0.832075 0.594912 -0.887124
H19   H     H_    0.504424 0.781933 0.643707 0.233358
H20   H     H_    0.442966 0.895473 0.632041 0.255092
H21   H     H_    0.379910 0.797468 0.566364 0.259920
F2    F     F_    0.644709 0.237351 0.604146 -0.647720
C51   C     C_3   0.323615 0.640343 0.677400 -0.759364
H22   H     H_    0.395610 0.652450 0.647211 0.267313
H23   H     H_    0.313251 0.712034 0.705355 0.262792
H24   H     H_    0.334209 0.581323 0.730333 0.224200
F3    F     F_    0.122027 0.690264 0.695122 -0.659545
C52   C     C_3   0.667170 0.320719 0.349446 -0.735729
H25   H     H_    0.664920 0.333521 0.278152 0.242349
H26   H     H_    0.671093 0.239326 0.367536 0.191302
H27   H     H_    0.589823 0.339405 0.361585 0.269770
C53   C     C_3   0.873120 0.280052 0.308554 -0.880552
H28   H     H_    0.837310 0.205393 0.329454 0.237418
H29   H     H_    0.831884 0.304516 0.243618 0.263209
H30   H     H_    0.957683 0.270860 0.301455 0.239180
F4    F     F_    0.792898 0.652232 0.025289 -0.548777
F5    F     F_    0.577564 0.521088 0.213645 -0.623064
F6    F     F_    0.643707 0.663592 0.127566 -0.570356

loop_
_geom_bond_atom_site_label_1
_geom_bond_atom_site_label_2
_ccdc_geom_bond_type
C12   O4    A    
C34   O7    A    
C17   C29   A    
C53   H28   S    
C16   H3    S    
C4    C8    A    
C47   H14   S    
C50   H19   S    
C53   H30   S    
C18   H4    S    
C49   H16   S    
C12   O3    A    
C26   C27   A    
C17   C23   S    
C31   C43   A    
C35   H10   S    
C36   C37   A    
C38   C42   A    
C3    C7    A    
C38   C39   A    
C51   H23   S    
C32   C52   S    
O3    Zn1   S    
O1    Zn1   S    
C18   C19   A    
C27   F2    S    
C1    O2    A    
C11   C15   A    
C35   C36   A    
C8    C9    A    
C40   H8    S    
C37   N2    A    
O5    Zn1   S    
C18   C30   A    
C8    F6    S    
C44   C47   A    
C9    F4    S    
C21   C22   A    
O8    Zn2   S    
C23   O5    A    
C33   C53   S    
C42   H9    S    
C50   H20   S    
C43   N1    A    
C14   C45   A    
C29   H2    S    
C49   H17   S    
C48   F5    S    
C26   C49   S    
C46   H13   S    
C23   O6    A    
C24   C25   A    
C41   H11   S    
O7    Zn1   S    
C39   C40   A    
C51   H22   S    
C20   H5    S    
C2    C48   A    
C16   C29   A    
C10   C13   A    
C15   H7    S    
C6    H15   S    
C2    C4    A    
C52   H26   S    
C13   F1    S    
C31   F3    S    
C17   C28   A    
C1    O1    A    
C34   C45   S    
C7    H1    S    
C19   H6    S    
C40   C41   A    
C22   C27   A    
O2    Zn2   S    
C15   C45   A    
C42   N1    A    
C52   H25   S    
C50   H21   S    
C9    C10   A    
C49   H18   S    
C16   C25   A    
C46   C47   A    
C22   C30   A    
C28   C50   S    
C43   C51   S    
C24   C28   A    
C4    C5    A    
C51   H24   S    
C53   H29   S    
C5    C11   A    
C6    C7    A    
C14   H12   S    
C3    C46   A    
N2    Zn2   S    
C32   C33   A    
C19   C20   A    
C36   C38   A    
C2    C3    A    
C25   C26   A    
C12   C44   S    
C52   H27   S    
O6    Zn2   S    
C5    C6    A    
C1    C30   S    
C33   C35   A    
C31   C39   A    
O4    Zn2   S    
C37   C41   A    
C10   C11   A    
C34   O8    A    
C20   C21   A    
C21   C24   A    
N1    Zn1   S    
C13   C14   A    
C44   C48   A    
C32   N2    A    
