data_mof_unit_62610.cif
_audit_creation_date              2012-12-10T19:06:10-0500
_audit_creation_method            fapswitch 2.2
_symmetry_space_group_name_H-M    P1
_symmetry_Int_Tables_number       1
_space_group_crystal_system       triclinic
_cell_length_a                    25.755869
_cell_length_b                    34.494354
_cell_length_c                    34.517288
_cell_angle_alpha                 90.000035
_cell_angle_beta                  90.000013
_cell_angle_gamma                 90.202503
_cell_volume                      30666.0738473

loop_
_atom_site_label
_atom_site_type_symbol
_atom_type_description
_atom_site_fract_x
_atom_site_fract_y
_atom_site_fract_z
_atom_type_partial_charge
C1    C     C_R   0.391274 0.248964 0.998812 1.006881
C2    C     C_R   0.891285 0.251254 0.998910 0.954133
C3    C     C_3   0.949104 0.747679 0.997296 -0.478086
C4    C     C_3   0.550896 0.252320 0.497296 -0.478086
C5    C     C_3   0.550881 0.747174 0.497579 -0.481809
C6    C     C_3   0.449119 0.252826 0.497579 -0.481810
C7    C     C_3   0.449103 0.747680 0.497296 -0.478086
C8    C     C_3   0.550896 0.752321 0.997296 -0.478085
C9    C     C_3   0.550881 0.247175 0.997580 -0.481822
C10   C     C_3   0.449118 0.752827 0.997579 -0.481822
C11   C     C_3   0.449104 0.247681 0.997296 -0.478088
C12   C     C_3   0.050896 0.752320 0.497296 -0.478085
C13   C     C_R   0.108715 0.748746 0.998910 0.954140
C14   C     C_3   0.050881 0.247174 0.497579 -0.481807
C15   C     C_3   0.949119 0.752826 0.497579 -0.481808
C16   C     C_3   0.949103 0.247680 0.497296 -0.478087
C17   C     C_R   0.261329 0.457717 0.964575 -0.270834
C18   C     C_R   0.288861 0.541403 0.983372 -0.263827
C19   C     C_R   0.711137 0.458597 0.983375 -0.263834
C20   C     C_R   0.738667 0.542283 0.964575 -0.270834
C21   C     C_R   0.761329 0.457717 0.464574 -0.270832
C22   C     C_R   0.788860 0.541402 0.483373 -0.263842
C23   C     C_R   0.211137 0.458597 0.483376 -0.263835
C24   C     C_R   0.108726 0.251036 0.998812 1.006888
C25   C     C_R   0.238665 0.542283 0.464575 -0.270835
C26   C     C_R   0.761339 0.957718 0.964579 -0.270836
C27   C     C_R   0.788868 0.041403 0.983378 -0.263835
C28   C     C_R   0.211158 0.958598 0.983348 -0.263871
C29   C     C_R   0.238719 0.042283 0.964571 -0.270806
C30   C     C_R   0.261335 0.957717 0.464575 -0.270834
C31   C     C_R   0.288863 0.041402 0.483376 -0.263837
C32   C     C_R   0.711137 0.958597 0.483375 -0.263836
C33   C     C_R   0.738666 0.042283 0.464575 -0.270836
C34   C     C_R   0.263441 0.417461 0.965755 -0.281509
C35   C     C_R   0.391274 0.748963 0.498812 1.006881
C36   C     C_R   0.290083 0.581684 0.984236 -0.271962
C37   C     C_R   0.709915 0.418316 0.984240 -0.271950
C38   C     C_R   0.736556 0.582539 0.965756 -0.281506
C39   C     C_R   0.763441 0.417461 0.465755 -0.281508
C40   C     C_R   0.790083 0.581684 0.484237 -0.271948
C41   C     C_R   0.209914 0.418315 0.484240 -0.271946
C42   C     C_R   0.236554 0.582539 0.465756 -0.281505
C43   C     C_R   0.763448 0.917461 0.965758 -0.281506
C44   C     C_R   0.790088 0.081685 0.984242 -0.271943
C45   C     C_R   0.209937 0.918316 0.984208 -0.271963
C46   C     C_R   0.391285 0.251254 0.498910 0.954134
C47   C     C_R   0.236606 0.082539 0.965748 -0.281535
C48   C     C_R   0.263447 0.917461 0.465756 -0.281505
C49   C     C_R   0.290086 0.081684 0.484241 -0.271945
C50   C     C_R   0.709915 0.918315 0.484240 -0.271949
C51   C     C_R   0.736554 0.082539 0.465756 -0.281505
C52   C     C_R   0.249176 0.397547 0.999524 -0.198642
C53   C     C_R   0.247351 0.602435 0.998253 -0.208589
C54   C     C_R   0.752649 0.397565 0.998253 -0.208581
C55   C     C_R   0.750824 0.602453 0.999524 -0.198645
C56   C     C_R   0.749176 0.397547 0.499524 -0.198642
C57   C     C_R   0.608715 0.748746 0.498910 0.954129
C58   C     C_R   0.747350 0.602435 0.498253 -0.208575
C59   C     C_R   0.252649 0.397565 0.498254 -0.208579
C60   C     C_R   0.250824 0.602453 0.499524 -0.198648
C61   C     C_R   0.749178 0.897547 0.999526 -0.198646
C62   C     C_R   0.747353 0.102435 0.998255 -0.208580
C63   C     C_R   0.252652 0.897565 0.998254 -0.208582
C64   C     C_R   0.250821 0.102454 0.999528 -0.198594
C65   C     C_R   0.249176 0.897547 0.499524 -0.198649
C66   C     C_R   0.247351 0.102435 0.498253 -0.208576
C67   C     C_R   0.752649 0.897565 0.498253 -0.208579
C68   C     C_R   0.608726 0.251036 0.498812 1.006884
C69   C     C_R   0.750824 0.102453 0.499524 -0.198647
C70   C     C_R   0.250037 0.144872 0.999995 0.864627
C71   C     C_R   0.250521 0.855144 0.999723 0.843256
C72   C     C_R   0.749480 0.144856 0.999724 0.843287
C73   C     C_R   0.749963 0.855128 0.999994 0.864595
C74   C     C_R   0.750037 0.144872 0.499994 0.864595
C75   C     C_R   0.750520 0.855144 0.499724 0.843283
C76   C     C_R   0.249480 0.144856 0.499724 0.843284
C77   C     C_R   0.249963 0.855128 0.499994 0.864593
C78   C     C_R   0.750037 0.644872 0.999994 0.864596
C79   C     C_R   0.235591 0.216455 0.667559 -0.197940
C80   C     C_R   0.750520 0.355144 0.999724 0.843282
C81   C     C_R   0.249480 0.644856 0.999724 0.843274
C82   C     C_R   0.249963 0.355128 0.999994 0.864599
C83   C     C_R   0.250037 0.644872 0.499994 0.864595
C84   C     C_R   0.250520 0.355144 0.499724 0.843283
C85   C     C_R   0.749480 0.644856 0.499724 0.843281
C86   C     C_R   0.749963 0.355128 0.499994 0.864598
C87   C     C_R   0.233757 0.418416 0.032524 0.509749
C88   C     C_R   0.202446 0.582387 0.010055 0.506466
C89   C     C_R   0.797556 0.417613 0.010051 0.506460
C90   C     C_R   0.207502 0.765072 0.668050 -0.196951
C91   C     C_R   0.766248 0.581584 0.032522 0.509742
C92   C     C_R   0.733754 0.418416 0.532523 0.509743
C93   C     C_R   0.702444 0.582387 0.510053 0.506454
C94   C     C_R   0.297556 0.417613 0.510051 0.506463
C95   C     C_R   0.266249 0.581584 0.532522 0.509748
C96   C     C_R   0.733757 0.918416 0.032525 0.509749
C97   C     C_R   0.702447 0.082386 0.010053 0.506473
C98   C     C_R   0.297542 0.917614 0.010089 0.506407
C99   C     C_R   0.266191 0.081587 0.032541 0.509749
C100  C     C_R   0.233748 0.918416 0.532521 0.509746
C101  C     C_R   0.792479 0.234899 0.668051 -0.196909
C102  C     C_R   0.202443 0.082387 0.510049 0.506460
C103  C     C_R   0.797557 0.917613 0.510050 0.506463
C104  C     C_R   0.766250 0.081584 0.532522 0.509745
C105  C     C_R   0.233515 0.458899 0.031921 0.431987
C106  C     C_R   0.200131 0.542051 0.007530 0.451454
C107  C     C_R   0.799871 0.457949 0.007526 0.451458
C108  C     C_R   0.766491 0.541100 0.031920 0.431985
C109  C     C_R   0.733512 0.458900 0.531921 0.431991
C110  C     C_R   0.700129 0.542051 0.507529 0.451447
C111  C     C_R   0.299870 0.457949 0.507525 0.451462
C112  C     C_R   0.391285 0.751254 0.998910 0.954133
C113  C     C_R   0.764413 0.783545 0.667559 -0.197938
C114  C     C_R   0.266491 0.541100 0.531920 0.431982
C115  C     C_R   0.733517 0.958899 0.031924 0.431981
C116  C     C_R   0.700135 0.042050 0.007530 0.451446
C117  C     C_R   0.299854 0.957951 0.007576 0.451327
C118  C     C_R   0.266431 0.041104 0.031942 0.432053
C119  C     C_R   0.233506 0.958900 0.531918 0.431982
C120  C     C_R   0.200128 0.042051 0.507523 0.451465
C121  C     C_R   0.799872 0.957949 0.507524 0.451462
C122  C     C_R   0.766493 0.041100 0.531919 0.431982
C123  C     C_R   0.245850 0.478681 0.997349 -0.050490
C124  C     C_R   0.735589 0.216455 0.167559 -0.197939
C125  C     C_R   0.244456 0.521257 0.995634 -0.059927
C126  C     C_R   0.755544 0.478743 0.995633 -0.059929
C127  C     C_R   0.754151 0.521319 0.997348 -0.050485
C128  C     C_R   0.745848 0.478681 0.497348 -0.050477
C129  C     C_R   0.744455 0.521257 0.495634 -0.059921
C130  C     C_R   0.255543 0.478743 0.495634 -0.059932
C131  C     C_R   0.254149 0.521319 0.497348 -0.050492
C132  C     C_R   0.745857 0.978681 0.997352 -0.050501
C133  C     C_R   0.744462 0.021257 0.995638 -0.059928
C134  C     C_R   0.255544 0.978744 0.995648 -0.059840
C135  C     C_R   0.707524 0.765106 0.168051 -0.196905
C136  C     C_R   0.254148 0.021320 0.997360 -0.050416
C137  C     C_R   0.245849 0.978681 0.497347 -0.050488
C138  C     C_R   0.244455 0.021257 0.495633 -0.059932
C139  C     C_R   0.755545 0.978743 0.495633 -0.059931
C140  C     C_R   0.754151 0.021319 0.497347 -0.050487
C141  C     C_R   0.250000 0.250000 0.105167 0.824376
C142  C     C_R   0.250000 0.750000 0.105078 0.799191
C143  C     C_R   0.750000 0.250000 0.105078 0.799183
C144  C     C_R   0.750000 0.750000 0.105167 0.824357
C145  C     C_R   0.750000 0.250000 0.605167 0.824357
C146  C     C_R   0.292475 0.234892 0.168051 -0.196892
C147  C     C_R   0.750000 0.750000 0.605078 0.799186
C148  C     C_R   0.250000 0.250000 0.605078 0.799183
C149  C     C_R   0.250000 0.750000 0.605167 0.824361
C150  C     C_R   0.250000 0.250000 0.894747 0.895602
C151  C     C_R   0.250000 0.750000 0.894972 0.858246
C152  C     C_R   0.750000 0.250000 0.894972 0.858219
C153  C     C_R   0.750000 0.750000 0.894747 0.895610
C154  C     C_R   0.750000 0.250000 0.394747 0.895609
C155  C     C_R   0.750000 0.750000 0.394972 0.858212
C156  C     C_R   0.250000 0.250000 0.394972 0.858213
C157  C     C_R   0.264410 0.783546 0.167559 -0.197928
C158  C     C_R   0.250000 0.750000 0.394747 0.895608
C159  C     C_R   0.294269 0.262551 0.790958 0.312179
C160  C     C_R   0.254875 0.714739 0.791605 0.357428
C161  C     C_R   0.745139 0.285261 0.791606 0.357446
C162  C     C_R   0.705725 0.737456 0.790959 0.312172
C163  C     C_R   0.794273 0.262545 0.290958 0.312172
C164  C     C_R   0.754858 0.714739 0.291606 0.357434
C165  C     C_R   0.245146 0.285262 0.291606 0.357435
C166  C     C_R   0.205726 0.737455 0.290958 0.312173
C167  C     C_R   0.794275 0.762543 0.790959 0.312172
C168  C     C_R   0.735588 0.716455 0.667559 -0.197938
C169  C     C_R   0.754858 0.214738 0.791606 0.357423
C170  C     C_R   0.245119 0.785258 0.791605 0.357454
C171  C     C_R   0.205724 0.237456 0.790959 0.312173
C172  C     C_R   0.294273 0.762545 0.290958 0.312173
C173  C     C_R   0.254854 0.214738 0.291606 0.357440
C174  C     C_R   0.745143 0.785262 0.291606 0.357435
C175  C     C_R   0.705726 0.237456 0.290958 0.312173
C176  C     C_R   0.293031 0.265058 0.831463 0.296658
C177  C     C_R   0.254240 0.714628 0.832173 0.338372
C178  C     C_R   0.745769 0.285372 0.832173 0.338395
C179  C     C_R   0.707520 0.265100 0.668051 -0.196913
C180  C     C_R   0.706964 0.734948 0.831463 0.296653
C181  C     C_R   0.793034 0.265053 0.331464 0.296652
C182  C     C_R   0.754229 0.714628 0.332173 0.338414
C183  C     C_R   0.245774 0.285373 0.332174 0.338416
C184  C     C_R   0.206965 0.734947 0.331464 0.296652
C185  C     C_R   0.793036 0.765051 0.831464 0.296651
C186  C     C_R   0.754228 0.214628 0.832173 0.338421
C187  C     C_R   0.245755 0.785370 0.832172 0.338355
C188  C     C_R   0.206965 0.234947 0.831464 0.296655
C189  C     C_R   0.293034 0.765053 0.331464 0.296651
C190  C     C_R   0.292495 0.734925 0.668051 -0.196947
C191  C     C_R   0.254226 0.214628 0.332174 0.338417
C192  C     C_R   0.745771 0.785372 0.332174 0.338414
C193  C     C_R   0.706965 0.234947 0.331464 0.296651
C194  C     C_R   0.249999 0.250001 0.852033 -0.347229
C195  C     C_R   0.249998 0.749999 0.852560 -0.393102
C196  C     C_R   0.749999 0.250000 0.852561 -0.393117
C197  C     C_R   0.750000 0.750000 0.852034 -0.347225
C198  C     C_R   0.750000 0.250000 0.352034 -0.347224
C199  C     C_R   0.750000 0.750000 0.352561 -0.393116
C200  C     C_R   0.250000 0.250000 0.352561 -0.393116
C201  C     C_R   0.264404 0.283548 0.667558 -0.197946
C202  C     C_R   0.250000 0.750000 0.352034 -0.347227
C203  C     C_R   0.249996 0.250004 0.770649 -0.270227
C204  C     C_R   0.249997 0.749998 0.771293 -0.308690
C205  C     C_R   0.749999 0.250000 0.771293 -0.308747
C206  C     C_R   0.750000 0.750000 0.770649 -0.270223
C207  C     C_R   0.750000 0.250000 0.270649 -0.270222
C208  C     C_R   0.750000 0.750000 0.271294 -0.308761
C209  C     C_R   0.250000 0.250000 0.271294 -0.308763
C210  C     C_R   0.250000 0.750000 0.270649 -0.270222
C211  C     C_R   0.236205 0.216322 0.707814 -0.123718
C212  C     C_R   0.235589 0.716454 0.167559 -0.197939
C213  C     C_R   0.207353 0.764791 0.708377 -0.133688
C214  C     C_R   0.792628 0.235180 0.708378 -0.133683
C215  C     C_R   0.763798 0.783679 0.707814 -0.123717
C216  C     C_R   0.736204 0.216321 0.207814 -0.123716
C217  C     C_R   0.707376 0.764825 0.208378 -0.133701
C218  C     C_R   0.292623 0.235173 0.208378 -0.133701
C219  C     C_R   0.263795 0.783680 0.207814 -0.123713
C220  C     C_R   0.736203 0.716321 0.707814 -0.123716
C221  C     C_R   0.707372 0.264820 0.708378 -0.133704
C222  C     C_R   0.292643 0.735206 0.708378 -0.133675
C223  C     C_R   0.608715 0.248746 0.998911 0.954150
C224  C     C_R   0.207526 0.265108 0.168051 -0.196899
C225  C     C_R   0.263788 0.283683 0.707813 -0.123717
C226  C     C_R   0.236204 0.716321 0.207814 -0.123715
C227  C     C_R   0.207377 0.264828 0.208378 -0.133701
C228  C     C_R   0.792625 0.735176 0.208378 -0.133699
C229  C     C_R   0.763795 0.283680 0.207814 -0.123716
C230  C     C_3   0.372070 0.242004 0.768185 0.117702
C231  C     C_3   0.419688 0.253793 0.744923 -0.754824
C232  C     C_3   0.215428 0.664687 0.759191 0.110465
C233  C     C_3   0.224657 0.640260 0.723170 -0.763580
C234  C     C_3   0.784612 0.335299 0.759189 0.110463
C235  C     C_R   0.792476 0.734895 0.168051 -0.196906
C236  C     C_3   0.775388 0.359754 0.723186 -0.763592
C237  C     C_3   0.627928 0.758014 0.768190 0.117714
C238  C     C_3   0.580302 0.746232 0.744934 -0.754834
C239  C     C_3   0.872072 0.241990 0.268190 0.117711
C240  C     C_3   0.919696 0.253774 0.244932 -0.754837
C241  C     C_3   0.715382 0.664706 0.259184 0.110454
C242  C     C_3   0.724615 0.640229 0.223197 -0.763577
C243  C     C_3   0.284628 0.335292 0.259184 0.110450
C244  C     C_3   0.275397 0.359771 0.223198 -0.763575
C245  C     C_3   0.127927 0.758010 0.268190 0.117713
C246  C     C_R   0.764410 0.283546 0.167559 -0.197941
C247  C     C_3   0.080303 0.746226 0.244932 -0.754835
C248  C     C_3   0.872072 0.741985 0.768191 0.117715
C249  C     C_3   0.919698 0.753767 0.744935 -0.754839
C250  C     C_3   0.715385 0.164704 0.759184 0.110464
C251  C     C_3   0.724620 0.140224 0.723200 -0.763578
C252  C     C_3   0.284568 0.835312 0.759196 0.110469
C253  C     C_3   0.275351 0.859716 0.723157 -0.763604
C254  C     C_3   0.127924 0.258007 0.768189 0.117716
C255  C     C_3   0.080299 0.246220 0.744935 -0.754837
C256  C     C_3   0.372072 0.741991 0.268189 0.117713
C257  C     C_R   0.249999 0.250001 0.647283 0.003884
C258  C     C_3   0.419696 0.753775 0.244932 -0.754829
C259  C     C_3   0.215371 0.164709 0.259183 0.110422
C260  C     C_3   0.224601 0.140228 0.223199 -0.763504
C261  C     C_3   0.784619 0.835295 0.259184 0.110453
C262  C     C_3   0.775385 0.859772 0.223198 -0.763574
C263  C     C_3   0.627927 0.258011 0.268190 0.117714
C264  C     C_3   0.580302 0.246227 0.244933 -0.754836
C265  C     C_3   0.264930 0.487161 0.086469 0.110140
C266  C     C_3   0.250688 0.512280 0.121039 -0.742457
C267  C     C_3   0.126586 0.513301 0.984757 0.114973
C268  C     C_R   0.249999 0.749999 0.647620 -0.024046
C269  C     C_3   0.070458 0.505178 0.995840 -0.774829
C270  C     C_3   0.873412 0.486698 0.984745 0.114978
C271  C     C_3   0.929542 0.494819 0.995822 -0.774842
C272  C     C_3   0.735085 0.512838 0.086470 0.110139
C273  C     C_3   0.749333 0.487719 0.121038 -0.742457
C274  C     C_3   0.764924 0.487161 0.586469 0.110139
C275  C     C_3   0.750680 0.512280 0.621039 -0.742456
C276  C     C_3   0.626583 0.513306 0.484754 0.114965
C277  C     C_3   0.570457 0.505176 0.495838 -0.774813
C278  C     C_3   0.373409 0.486701 0.484744 0.114986
C279  C     C_R   0.750000 0.250000 0.647620 -0.023992
C280  C     C_3   0.429541 0.494817 0.495818 -0.774854
C281  C     C_3   0.235087 0.512838 0.586471 0.110142
C282  C     C_3   0.249336 0.487718 0.621039 -0.742459
C283  C     C_3   0.764926 0.987159 0.086474 0.110143
C284  C     C_3   0.750680 0.012276 0.121044 -0.742463
C285  C     C_3   0.626597 0.013293 0.984753 0.115043
C286  C     C_3   0.570467 0.005172 0.995830 -0.774963
C287  C     C_3   0.373465 0.986664 0.984888 0.114851
C288  C     C_3   0.429534 0.994892 0.996062 -0.774587
C289  C     C_3   0.234927 0.012846 0.086464 0.110151
C290  C     C_R   0.750000 0.750000 0.647283 0.003874
C291  C     C_3   0.249113 0.987733 0.121051 -0.742476
C292  C     C_3   0.264906 0.987162 0.586471 0.110137
C293  C     C_3   0.250656 0.012282 0.621038 -0.742456
C294  C     C_3   0.126590 0.013301 0.484738 0.114979
C295  C     C_3   0.070457 0.005185 0.495810 -0.774844
C296  C     C_3   0.873411 0.986699 0.484741 0.114976
C297  C     C_3   0.929543 0.994816 0.495816 -0.774837
C298  C     C_3   0.735090 0.012838 0.586470 0.110141
C299  C     C_3   0.749339 0.987719 0.621038 -0.742453
C300  C     C_3   0.335322 0.320069 0.849798 0.118874
C301  C     C_R   0.750000 0.250000 0.147283 0.003877
C302  C     C_3   0.376405 0.335840 0.877282 -0.709426
C303  C     C_3   0.211640 0.666434 0.864968 0.142638
C304  C     C_3   0.216113 0.623893 0.876015 -0.806081
C305  C     C_3   0.788377 0.333560 0.864972 0.142658
C306  C     C_3   0.783919 0.376108 0.875995 -0.806103
C307  C     C_3   0.664664 0.679940 0.849796 0.118863
C308  C     C_3   0.623575 0.664171 0.877276 -0.709379
C309  C     C_3   0.835333 0.320062 0.349796 0.118866
C310  C     C_3   0.876420 0.335831 0.377278 -0.709393
C311  C     C_3   0.711622 0.666440 0.364974 0.142669
C312  C     C_R   0.750000 0.750000 0.147620 -0.023977
C313  C     C_3   0.716076 0.623889 0.375987 -0.806096
C314  C     C_3   0.288384 0.333559 0.364975 0.142675
C315  C     C_3   0.283931 0.376110 0.375989 -0.806094
C316  C     C_3   0.164668 0.679938 0.349797 0.118870
C317  C     C_3   0.123579 0.664168 0.377276 -0.709393
C318  C     C_3   0.835336 0.820060 0.849796 0.118863
C319  C     C_3   0.876425 0.835828 0.877276 -0.709377
C320  C     C_3   0.711616 0.166442 0.864973 0.142653
C321  C     C_3   0.716064 0.123890 0.875983 -0.806106
C322  C     C_3   0.288355 0.833566 0.864963 0.142619
C323  C     C_R   0.250000 0.250000 0.147620 -0.023978
C324  C     C_3   0.283879 0.876106 0.876011 -0.806086
C325  C     C_3   0.164671 0.179936 0.849797 0.118869
C326  C     C_3   0.123582 0.164165 0.877277 -0.709377
C327  C     C_3   0.335331 0.820062 0.349797 0.118872
C328  C     C_3   0.376420 0.835832 0.377277 -0.709392
C329  C     C_3   0.211616 0.166442 0.364975 0.142674
C330  C     C_3   0.216067 0.123890 0.375985 -0.806095
C331  C     C_3   0.788379 0.833560 0.364974 0.142672
C332  C     C_3   0.783924 0.876110 0.375989 -0.806095
C333  C     C_3   0.664667 0.179938 0.349797 0.118869
C334  C     C_R   0.608726 0.751037 0.998812 1.006887
C335  C     C_R   0.250000 0.750000 0.147283 0.003870
C336  C     C_3   0.623578 0.164169 0.377276 -0.709390
C337  C     C_3   0.078855 0.270416 0.902550 0.271915
C338  C     C_3   0.090625 0.308249 0.881706 -0.882281
C339  C     C_3   0.060222 0.762355 0.892364 0.285881
C340  C     C_3   0.076848 0.735398 0.859837 -0.919206
C341  C     C_3   0.939778 0.237633 0.892365 0.285888
C342  C     C_3   0.923149 0.264586 0.859837 -0.919211
C343  C     C_3   0.921143 0.729576 0.902551 0.271904
C344  C     C_3   0.909371 0.691742 0.881711 -0.882284
C345  C     C_3   0.578856 0.270418 0.402551 0.271912
C346  C     C_R   0.249996 0.250003 0.728128 0.221572
C347  C     C_3   0.590626 0.308252 0.381708 -0.882278
C348  C     C_3   0.560222 0.762367 0.392365 0.285887
C349  C     C_3   0.576852 0.735414 0.359837 -0.919212
C350  C     C_3   0.439778 0.237635 0.392365 0.285889
C351  C     C_3   0.423149 0.264589 0.359837 -0.919217
C352  C     C_3   0.421144 0.729583 0.402550 0.271913
C353  C     C_3   0.409375 0.691750 0.381707 -0.882279
C354  C     C_3   0.578857 0.770423 0.902551 0.271906
C355  C     C_3   0.590629 0.808257 0.881710 -0.882283
C356  C     C_3   0.560229 0.262381 0.892369 0.285898
C357  C     C_R   0.249998 0.749998 0.728697 0.215529
C358  C     C_3   0.576864 0.235432 0.859838 -0.919177
C359  C     C_3   0.439777 0.737647 0.892364 0.285882
C360  C     C_3   0.423152 0.764605 0.859838 -0.919210
C361  C     C_3   0.421148 0.229602 0.902544 0.271927
C362  C     C_3   0.409375 0.191772 0.881696 -0.882260
C363  C     C_3   0.078856 0.770418 0.402550 0.271911
C364  C     C_3   0.090625 0.808251 0.381707 -0.882279
C365  C     C_3   0.060221 0.262367 0.392365 0.285887
C366  C     C_3   0.076851 0.235415 0.359837 -0.919217
C367  C     C_3   0.939778 0.737634 0.392365 0.285888
C368  C     C_R   0.750000 0.250000 0.728698 0.215411
C369  C     C_3   0.923149 0.764588 0.359837 -0.919214
C370  C     C_3   0.921144 0.229583 0.402550 0.271914
C371  C     C_3   0.909375 0.191749 0.381707 -0.882279
C372  C     C_3   0.062559 0.357261 0.012065 0.247184
C373  C     C_3   0.082219 0.389140 0.985359 -0.879324
C374  C     C_3   0.077499 0.652540 0.978328 0.280405
C375  C     C_3   0.087078 0.631101 0.940558 -0.879684
C376  C     C_3   0.922500 0.347457 0.978320 0.280402
C377  C     C_3   0.912922 0.368894 0.940549 -0.879695
C378  C     C_3   0.937438 0.642741 0.012076 0.247188
C379  C     C_R   0.750000 0.750000 0.728129 0.221577
C380  C     C_3   0.917774 0.610859 0.985374 -0.879293
C381  C     C_3   0.562563 0.357259 0.512069 0.247182
C382  C     C_3   0.582229 0.389138 0.485365 -0.879305
C383  C     C_3   0.577501 0.652544 0.478320 0.280396
C384  C     C_3   0.587081 0.631108 0.440548 -0.879709
C385  C     C_3   0.422502 0.347458 0.478323 0.280410
C386  C     C_3   0.412927 0.368898 0.440553 -0.879689
C387  C     C_3   0.437443 0.642739 0.512066 0.247187
C388  C     C_3   0.417783 0.610859 0.485361 -0.879315
C389  C     C_3   0.562557 0.857261 0.012073 0.247189
C390  C     C_R   0.749999 0.250000 0.228129 0.221578
C391  C     C_3   0.582222 0.889141 0.985369 -0.879301
C392  C     C_3   0.577493 0.152539 0.978320 0.280404
C393  C     C_3   0.587077 0.131103 0.940548 -0.879703
C394  C     C_3   0.422490 0.847456 0.978330 0.280319
C395  C     C_3   0.412892 0.868884 0.940556 -0.879818
C396  C     C_3   0.437406 0.142746 0.012045 0.247099
C397  C     C_3   0.417711 0.110882 0.985335 -0.879350
C398  C     C_3   0.062558 0.857261 0.512068 0.247190
C399  C     C_3   0.082218 0.889141 0.485363 -0.879307
C400  C     C_3   0.077499 0.152543 0.478320 0.280406
C401  C     C_R   0.750000 0.750000 0.228698 0.215381
C402  C     C_3   0.087077 0.131106 0.440548 -0.879693
C403  C     C_3   0.922501 0.847457 0.478321 0.280405
C404  C     C_3   0.912923 0.868894 0.440550 -0.879693
C405  C     C_3   0.937442 0.142739 0.512067 0.247187
C406  C     C_3   0.917782 0.110859 0.485361 -0.879314
C407  C     C_R   0.250000 0.250000 0.228698 0.215375
C408  C     C_R   0.250000 0.750000 0.228129 0.221572
C409  C     C_3   0.029618 0.244399 0.954932 0.682164
C410  C     C_R   0.891274 0.248963 0.498812 1.006884
C411  C     C_3   0.030618 0.761790 0.957097 0.766679
C412  C     C_3   0.969382 0.238205 0.957099 0.766677
C413  C     C_3   0.970382 0.755597 0.954931 0.682162
C414  C     C_3   0.529618 0.244400 0.454932 0.682164
C415  C     C_3   0.530618 0.761795 0.457099 0.766679
C416  C     C_3   0.469382 0.238206 0.457099 0.766678
C417  C     C_3   0.470382 0.755600 0.454932 0.682164
C418  C     C_3   0.529617 0.744403 0.954931 0.682161
C419  C     C_3   0.530619 0.261801 0.957102 0.766664
C420  C     C_3   0.469381 0.738211 0.957097 0.766675
C421  C     C_R   0.891285 0.751254 0.498910 0.954132
C422  C     C_3   0.470383 0.255609 0.954933 0.682186
C423  C     C_3   0.029618 0.744400 0.454932 0.682164
C424  C     C_3   0.030618 0.261795 0.457099 0.766678
C425  C     C_3   0.969382 0.738206 0.457099 0.766678
C426  C     C_3   0.970382 0.255601 0.454932 0.682164
C427  C     C_3   0.029342 0.220216 0.024746 0.349036
C428  C     C_3   0.029877 0.775157 0.029312 0.366545
C429  C     C_3   0.970123 0.224846 0.029315 0.366545
C430  C     C_3   0.970658 0.779786 0.024743 0.349034
C431  C     C_3   0.529342 0.220215 0.524745 0.349033
C432  C     C_R   0.108715 0.248746 0.498910 0.954130
C433  C     C_3   0.529877 0.775154 0.529315 0.366548
C434  C     C_3   0.470123 0.224845 0.529314 0.366547
C435  C     C_3   0.470658 0.779784 0.524746 0.349028
C436  C     C_3   0.529342 0.720215 0.024743 0.349035
C437  C     C_3   0.529877 0.275151 0.029319 0.366549
C438  C     C_3   0.470122 0.724844 0.029312 0.366541
C439  C     C_3   0.470657 0.279781 0.024752 0.349033
C440  C     C_3   0.029342 0.720216 0.524746 0.349031
C441  C     C_3   0.029877 0.275154 0.529315 0.366548
C442  C     C_3   0.970123 0.724845 0.529315 0.366546
C443  C     C_R   0.108726 0.751036 0.498812 1.006882
C444  C     C_3   0.970657 0.279784 0.524746 0.349032
C445  C     C_3   0.030772 0.292905 0.011666 0.871628
C446  C     C_3   0.029296 0.704774 0.005234 0.784236
C447  C     C_3   0.970704 0.295226 0.005230 0.784230
C448  C     C_3   0.969228 0.707096 0.011669 0.871626
C449  C     C_3   0.530772 0.292905 0.511667 0.871626
C450  C     C_3   0.529296 0.704774 0.505230 0.784230
C451  C     C_3   0.470704 0.295226 0.505231 0.784233
C452  C     C_3   0.469228 0.707095 0.511666 0.871629
C453  C     C_3   0.530771 0.792905 0.011669 0.871618
C454  C     C_R   0.891274 0.748963 0.998812 1.006887
C455  C     C_3   0.529296 0.204774 0.005226 0.784286
C456  C     C_3   0.470703 0.795226 0.005234 0.784259
C457  C     C_3   0.469227 0.207094 0.011658 0.871599
C458  C     C_3   0.030772 0.792905 0.511667 0.871630
C459  C     C_3   0.029296 0.204774 0.505230 0.784224
C460  C     C_3   0.970704 0.795226 0.505231 0.784226
C461  C     C_3   0.969228 0.207095 0.511666 0.871630
C462  C     C_3   0.050896 0.252320 0.997296 -0.478092
C463  C     C_3   0.050881 0.747174 0.997579 -0.481815
C464  C     C_3   0.949119 0.252826 0.997579 -0.481809
F1    F     F_    0.053336 0.221207 0.060757 -0.549086
F2    F     F_    0.541888 0.261392 0.066005 -0.514705
F3    F     F_    0.458112 0.738596 0.066001 -0.514708
F4    F     F_    0.446665 0.278783 0.060762 -0.549085
F5    F     F_    0.053336 0.721206 0.560756 -0.549099
F6    F     F_    0.041886 0.261398 0.566003 -0.514706
F7    F     F_    0.958113 0.738601 0.566003 -0.514707
F8    F     F_    0.946664 0.278793 0.560757 -0.549094
F9    F     F_    0.220540 0.399761 0.065776 -0.632571
F10   F     F_    0.160151 0.601754 0.023168 -0.649175
F11   F     F_    0.839853 0.398245 0.023161 -0.649177
F12   F     F_    0.041887 0.761404 0.066001 -0.514708
F13   F     F_    0.779470 0.600238 0.065773 -0.632572
F14   F     F_    0.720536 0.399762 0.565775 -0.632570
F15   F     F_    0.660149 0.601755 0.523165 -0.649172
F16   F     F_    0.339853 0.398246 0.523160 -0.649180
F17   F     F_    0.279471 0.600238 0.565773 -0.632563
F18   F     F_    0.720535 0.899761 0.065776 -0.632570
F19   F     F_    0.660149 0.101753 0.023162 -0.649168
F20   F     F_    0.339823 0.898248 0.023229 -0.649093
F21   F     F_    0.279357 0.100245 0.065802 -0.632578
F22   F     F_    0.220524 0.899762 0.565772 -0.632562
F23   F     F_    0.958113 0.238602 0.066003 -0.514706
F24   F     F_    0.160145 0.101755 0.523157 -0.649182
F25   F     F_    0.839854 0.898245 0.523159 -0.649180
F26   F     F_    0.779473 0.100238 0.565773 -0.632568
F27   F     F_    0.050789 0.210203 0.940235 -0.688523
F28   F     F_    0.041614 0.801461 0.954486 -0.686350
F29   F     F_    0.958386 0.198534 0.954492 -0.686356
F30   F     F_    0.949211 0.789792 0.940231 -0.688531
F31   F     F_    0.550789 0.210204 0.440234 -0.688527
F32   F     F_    0.541613 0.801465 0.454492 -0.686357
F33   F     F_    0.458387 0.198535 0.454491 -0.686356
F34   F     F_    0.946665 0.778798 0.060754 -0.549093
F35   F     F_    0.449211 0.789796 0.440234 -0.688526
F36   F     F_    0.550788 0.710208 0.940232 -0.688530
F37   F     F_    0.541615 0.301472 0.954499 -0.686359
F38   F     F_    0.458385 0.698540 0.954486 -0.686347
F39   F     F_    0.449212 0.289808 0.940241 -0.688514
F40   F     F_    0.050789 0.710204 0.440234 -0.688527
F41   F     F_    0.041613 0.301466 0.454493 -0.686358
F42   F     F_    0.958387 0.698535 0.454492 -0.686357
F43   F     F_    0.949211 0.289796 0.440234 -0.688526
F44   F     F_    0.041271 0.295777 0.051317 -0.565466
F45   F     F_    0.553336 0.221205 0.560756 -0.549094
F46   F     F_    0.050848 0.689489 0.039083 -0.589771
F47   F     F_    0.949152 0.310514 0.039078 -0.589769
F48   F     F_    0.958729 0.704228 0.051321 -0.565472
F49   F     F_    0.541271 0.295775 0.551319 -0.565471
F50   F     F_    0.550848 0.689486 0.539079 -0.589769
F51   F     F_    0.449152 0.310513 0.539080 -0.589769
F52   F     F_    0.458729 0.704223 0.551318 -0.565465
F53   F     F_    0.541272 0.795774 0.051320 -0.565469
F54   F     F_    0.550845 0.189485 0.039075 -0.589746
F55   F     F_    0.449152 0.810511 0.039085 -0.589756
F56   F     F_    0.541886 0.761398 0.566003 -0.514706
F57   F     F_    0.458725 0.204213 0.051309 -0.565489
F58   F     F_    0.041271 0.795776 0.551318 -0.565465
F59   F     F_    0.050848 0.189486 0.539079 -0.589769
F60   F     F_    0.949152 0.810514 0.539079 -0.589770
F61   F     F_    0.958729 0.204223 0.551318 -0.565465
F62   F     F_    0.458113 0.238600 0.566003 -0.514708
F63   F     F_    0.446664 0.778793 0.560757 -0.549098
F64   F     F_    0.553335 0.721203 0.060754 -0.549091
H1    H     H_    0.271401 0.472571 0.937947 0.179452
H2    H     H_    0.823111 0.025872 0.973970 0.186551
H3    H     H_    0.592067 0.736888 0.715423 0.275834
H4    H     H_    0.852846 0.217283 0.253012 0.132238
H5    H     H_    0.885202 0.232399 0.297379 0.156677
H6    H     H_    0.940185 0.278058 0.259615 0.255261
H7    H     H_    0.946584 0.228803 0.242429 0.203270
H8    H     H_    0.907929 0.263116 0.215421 0.275834
H9    H     H_    0.685879 0.687150 0.251777 0.119787
H10   H     H_    0.699180 0.645544 0.282025 0.150934
H11   H     H_    0.752970 0.616915 0.229632 0.263151
H12   H     H_    0.687525 0.626799 0.213629 0.202945
H13   H     H_    0.176930 0.974130 0.973912 0.186545
H14   H     H_    0.739965 0.658636 0.199394 0.266607
H15   H     H_    0.314127 0.312847 0.251776 0.119790
H16   H     H_    0.300833 0.354452 0.282025 0.150930
H17   H     H_    0.247046 0.383088 0.229635 0.263150
H18   H     H_    0.312489 0.373198 0.213629 0.202946
H19   H     H_    0.260042 0.341366 0.199395 0.266607
H20   H     H_    0.147153 0.782717 0.253012 0.132240
H21   H     H_    0.114797 0.767601 0.297379 0.156677
H22   H     H_    0.059814 0.721942 0.259615 0.255261
H23   H     H_    0.053415 0.771196 0.242429 0.203270
H24   H     H_    0.228687 0.027428 0.937936 0.179438
H25   H     H_    0.092070 0.736884 0.215421 0.275834
H26   H     H_    0.852845 0.717279 0.753012 0.132238
H27   H     H_    0.885201 0.732394 0.797380 0.156675
H28   H     H_    0.940188 0.778050 0.759618 0.255263
H29   H     H_    0.946584 0.728796 0.742432 0.203268
H30   H     H_    0.907932 0.763110 0.715423 0.275834
H31   H     H_    0.685882 0.187146 0.751776 0.119782
H32   H     H_    0.699184 0.145544 0.782027 0.150937
H33   H     H_    0.752975 0.116911 0.729637 0.263151
H34   H     H_    0.687530 0.126794 0.713631 0.202943
H35   H     H_    0.271413 0.972571 0.437949 0.179456
H36   H     H_    0.739971 0.158631 0.699396 0.266610
H37   H     H_    0.314130 0.812889 0.751859 0.119652
H38   H     H_    0.300692 0.854532 0.782018 0.151044
H39   H     H_    0.246916 0.882997 0.729516 0.263229
H40   H     H_    0.312427 0.873187 0.713614 0.202945
H41   H     H_    0.260108 0.841246 0.699364 0.266573
H42   H     H_    0.147148 0.282713 0.753008 0.132242
H43   H     H_    0.114796 0.267600 0.797378 0.156670
H44   H     H_    0.059812 0.221937 0.759621 0.255259
H45   H     H_    0.053410 0.271189 0.742430 0.203270
H46   H     H_    0.323107 0.025870 0.473970 0.186552
H47   H     H_    0.092065 0.236875 0.715424 0.275835
H48   H     H_    0.352846 0.717284 0.253011 0.132238
H49   H     H_    0.385202 0.732399 0.297378 0.156675
H50   H     H_    0.440185 0.778058 0.259615 0.255261
H51   H     H_    0.446584 0.728805 0.242429 0.203269
H52   H     H_    0.407929 0.763117 0.215421 0.275835
H53   H     H_    0.185873 0.187155 0.251775 0.119795
H54   H     H_    0.199164 0.145551 0.282025 0.150930
H55   H     H_    0.252950 0.116911 0.229637 0.263149
H56   H     H_    0.187509 0.126803 0.213630 0.202949
H57   H     H_    0.676894 0.974130 0.473968 0.186552
H58   H     H_    0.239958 0.158632 0.199396 0.266614
H59   H     H_    0.814121 0.812851 0.251777 0.119787
H60   H     H_    0.800821 0.854456 0.282025 0.150933
H61   H     H_    0.747030 0.883086 0.229634 0.263151
H62   H     H_    0.812475 0.873202 0.213629 0.202945
H63   H     H_    0.760034 0.841365 0.199395 0.266608
H64   H     H_    0.647154 0.282718 0.253012 0.132237
H65   H     H_    0.614798 0.267603 0.297379 0.156675
H66   H     H_    0.559813 0.221944 0.259616 0.255261
H67   H     H_    0.553415 0.271198 0.242430 0.203267
H68   H     H_    0.728589 0.027429 0.437948 0.179455
H69   H     H_    0.592069 0.236885 0.215422 0.275834
H70   H     H_    0.293997 0.503348 0.068754 0.124002
H71   H     H_    0.282740 0.459882 0.097386 0.164861
H72   H     H_    0.222285 0.496814 0.139740 0.269351
H73   H     H_    0.286019 0.518892 0.138288 0.191083
H74   H     H_    0.233320 0.539915 0.110902 0.265094
H75   H     H_    0.143153 0.486644 0.971591 0.138267
H76   H     H_    0.126516 0.536974 0.962699 0.111237
H77   H     H_    0.051850 0.532188 0.006417 0.265676
H78   H     H_    0.048833 0.494404 0.970160 0.188025
H79   H     H_    0.275207 0.401842 0.939994 0.189738
H80   H     H_    0.068663 0.482952 0.019063 0.269071
H81   H     H_    0.856844 0.513355 0.971580 0.138269
H82   H     H_    0.873478 0.463024 0.962687 0.111237
H83   H     H_    0.948151 0.467809 0.006399 0.265676
H84   H     H_    0.951164 0.505591 0.970140 0.188023
H85   H     H_    0.931343 0.517046 0.019044 0.269064
H86   H     H_    0.706014 0.496653 0.068758 0.124000
H87   H     H_    0.717277 0.540117 0.097390 0.164865
H88   H     H_    0.777739 0.503183 0.139736 0.269352
H89   H     H_    0.714004 0.481106 0.138290 0.191083
H90   H     H_    0.325000 0.596581 0.974899 0.211178
H91   H     H_    0.766698 0.460083 0.110898 0.265094
H92   H     H_    0.793992 0.503347 0.568755 0.124001
H93   H     H_    0.782733 0.459882 0.597387 0.164864
H94   H     H_    0.722276 0.496815 0.639739 0.269351
H95   H     H_    0.786011 0.518892 0.638288 0.191083
H96   H     H_    0.733313 0.539916 0.610900 0.265094
H97   H     H_    0.643153 0.486654 0.471580 0.138256
H98   H     H_    0.626506 0.536984 0.462701 0.111257
H99   H     H_    0.551845 0.532182 0.506422 0.265678
H100  H     H_    0.548831 0.494406 0.470157 0.188023
H101  H     H_    0.674996 0.403419 0.974905 0.211176
H102  H     H_    0.568667 0.482945 0.519057 0.269066
H103  H     H_    0.356842 0.513361 0.471583 0.138276
H104  H     H_    0.373470 0.463031 0.462682 0.111226
H105  H     H_    0.448148 0.467805 0.506390 0.265676
H106  H     H_    0.451161 0.505591 0.470135 0.188024
H107  H     H_    0.431347 0.517042 0.519042 0.269067
H108  H     H_    0.206015 0.496652 0.568759 0.124000
H109  H     H_    0.217279 0.540117 0.597390 0.164863
H110  H     H_    0.277742 0.503183 0.639736 0.269352
H111  H     H_    0.214008 0.481106 0.638291 0.191082
H112  H     H_    0.323102 0.525871 0.973961 0.186550
H113  H     H_    0.724785 0.598157 0.939995 0.189742
H114  H     H_    0.266701 0.460083 0.610898 0.265095
H115  H     H_    0.793995 0.003346 0.068762 0.124004
H116  H     H_    0.782735 0.959880 0.097391 0.164860
H117  H     H_    0.722275 0.996810 0.139742 0.269352
H118  H     H_    0.786010 0.018888 0.138295 0.191084
H119  H     H_    0.733313 0.039912 0.110907 0.265093
H120  H     H_    0.643167 0.986634 0.971593 0.138272
H121  H     H_    0.626531 0.036963 0.962690 0.111225
H122  H     H_    0.551856 0.032184 0.006399 0.265684
H123  H     H_    0.548848 0.994391 0.970151 0.188004
H124  H     H_    0.775209 0.401843 0.439994 0.189739
H125  H     H_    0.568667 0.982951 0.019059 0.269064
H126  H     H_    0.356879 0.013265 0.971621 0.138120
H127  H     H_    0.373670 0.962935 0.962891 0.111474
H128  H     H_    0.448181 0.967930 0.006723 0.265711
H129  H     H_    0.451218 0.005653 0.970404 0.188004
H130  H     H_    0.431191 0.017161 0.019249 0.269075
H131  H     H_    0.205890 0.996656 0.068724 0.124008
H132  H     H_    0.217098 0.040126 0.097360 0.164845
H133  H     H_    0.277483 0.003202 0.139775 0.269335
H134  H     H_    0.213753 0.981122 0.138267 0.191090
H135  H     H_    0.825001 0.596580 0.474901 0.211177
H136  H     H_    0.266500 0.960097 0.110934 0.265089
H137  H     H_    0.293979 0.003347 0.568759 0.124000
H138  H     H_    0.282713 0.959883 0.597391 0.164866
H139  H     H_    0.222248 0.996818 0.639734 0.269353
H140  H     H_    0.285983 0.018895 0.638291 0.191082
H141  H     H_    0.233292 0.039918 0.610896 0.265095
H142  H     H_    0.143157 0.986641 0.471577 0.138277
H143  H     H_    0.126531 0.036972 0.462677 0.111228
H144  H     H_    0.051850 0.032197 0.506382 0.265674
H145  H     H_    0.048838 0.994413 0.470126 0.188026
H146  H     H_    0.174995 0.403419 0.474906 0.211175
H147  H     H_    0.068649 0.982960 0.519033 0.269066
H148  H     H_    0.856844 0.013358 0.471580 0.138274
H149  H     H_    0.873472 0.963027 0.462681 0.111230
H150  H     H_    0.948150 0.967805 0.506389 0.265675
H151  H     H_    0.951163 0.005589 0.470133 0.188026
H152  H     H_    0.931348 0.017042 0.519039 0.269067
H153  H     H_    0.706018 0.996652 0.568758 0.123999
H154  H     H_    0.717282 0.040117 0.597390 0.164865
H155  H     H_    0.777746 0.003183 0.639735 0.269353
H156  H     H_    0.714011 0.981106 0.638291 0.191082
H157  H     H_    0.224783 0.598157 0.439996 0.189743
H158  H     H_    0.766704 0.960083 0.610897 0.265094
H159  H     H_    0.296958 0.331777 0.859101 0.124339
H160  H     H_    0.344267 0.330699 0.820106 0.177797
H161  H     H_    0.415343 0.325049 0.868755 0.260458
H162  H     H_    0.376633 0.368014 0.876240 0.188460
H163  H     H_    0.367742 0.326442 0.907374 0.304329
H164  H     H_    0.180613 0.669239 0.842670 0.089514
H165  H     H_    0.199499 0.682768 0.891159 0.121019
H166  H     H_    0.244812 0.620403 0.899779 0.267262
H167  H     H_    0.177890 0.612784 0.885959 0.191415
H168  H     H_    0.775216 0.901844 0.939997 0.189742
H169  H     H_    0.228794 0.606668 0.850553 0.258835
H170  H     H_    0.819413 0.330736 0.842683 0.089499
H171  H     H_    0.800499 0.317237 0.891174 0.121044
H172  H     H_    0.755215 0.379618 0.899753 0.267246
H173  H     H_    0.822144 0.387213 0.885940 0.191425
H174  H     H_    0.771254 0.393323 0.850522 0.258851
H175  H     H_    0.655722 0.669312 0.820103 0.177793
H176  H     H_    0.703025 0.668228 0.859102 0.124344
H177  H     H_    0.623338 0.631998 0.876230 0.188454
H178  H     H_    0.632237 0.673565 0.907369 0.304331
H179  H     H_    0.825006 0.096582 0.974906 0.211176
H180  H     H_    0.584640 0.674969 0.868748 0.260472
H181  H     H_    0.796972 0.331773 0.359100 0.124342
H182  H     H_    0.844278 0.330690 0.320104 0.177796
H183  H     H_    0.915356 0.325034 0.368752 0.260469
H184  H     H_    0.876656 0.368005 0.376231 0.188456
H185  H     H_    0.867756 0.326438 0.407370 0.304330
H186  H     H_    0.680582 0.669272 0.342689 0.089492
H187  H     H_    0.699508 0.682758 0.391181 0.121053
H188  H     H_    0.744785 0.620371 0.399740 0.267242
H189  H     H_    0.677852 0.612785 0.385933 0.191426
H190  H     H_    0.175033 0.903421 0.974844 0.211199
H191  H     H_    0.728735 0.606680 0.350508 0.258857
H192  H     H_    0.319424 0.330727 0.342691 0.089494
H193  H     H_    0.300496 0.317240 0.391182 0.121052
H194  H     H_    0.255222 0.379627 0.399742 0.267240
H195  H     H_    0.322156 0.387212 0.385936 0.191424
H196  H     H_    0.271275 0.393320 0.350511 0.258857
H197  H     H_    0.155726 0.669309 0.320104 0.177791
H198  H     H_    0.203029 0.668227 0.359103 0.124345
H199  H     H_    0.123345 0.631995 0.376231 0.188455
H200  H     H_    0.132240 0.673562 0.407370 0.304332
H201  H     H_    0.224879 0.098157 0.939976 0.189694
H202  H     H_    0.084644 0.674964 0.368748 0.260466
H203  H     H_    0.796975 0.831772 0.859102 0.124345
H204  H     H_    0.844279 0.830687 0.820104 0.177793
H205  H     H_    0.876662 0.868002 0.876230 0.188453
H206  H     H_    0.867762 0.826436 0.907370 0.304331
H207  H     H_    0.915360 0.825030 0.868749 0.260473
H208  H     H_    0.680575 0.169279 0.842690 0.089493
H209  H     H_    0.699506 0.182760 0.891183 0.121062
H210  H     H_    0.744776 0.120367 0.899733 0.267246
H211  H     H_    0.677839 0.112790 0.885933 0.191433
H212  H     H_    0.275219 0.901843 0.439997 0.189745
H213  H     H_    0.728713 0.106681 0.850502 0.258845
H214  H     H_    0.319379 0.830763 0.842662 0.089517
H215  H     H_    0.300502 0.817233 0.891153 0.121015
H216  H     H_    0.255187 0.879594 0.899780 0.267256
H217  H     H_    0.322103 0.887218 0.885949 0.191432
H218  H     H_    0.271188 0.893331 0.850552 0.258839
H219  H     H_    0.155731 0.169307 0.820104 0.177789
H220  H     H_    0.203032 0.168227 0.859104 0.124342
H221  H     H_    0.123349 0.131992 0.876231 0.188462
H222  H     H_    0.132242 0.173560 0.907370 0.304332
H223  H     H_    0.676895 0.474130 0.973967 0.186551
H224  H     H_    0.325006 0.096580 0.474909 0.211174
H225  H     H_    0.084646 0.174961 0.868747 0.260460
H226  H     H_    0.296970 0.831773 0.359103 0.124345
H227  H     H_    0.344273 0.830691 0.320105 0.177793
H228  H     H_    0.376654 0.868005 0.376232 0.188456
H229  H     H_    0.367759 0.826437 0.407370 0.304332
H230  H     H_    0.415355 0.825036 0.368749 0.260465
H231  H     H_    0.180575 0.169277 0.342692 0.089492
H232  H     H_    0.199506 0.182759 0.391184 0.121055
H233  H     H_    0.244777 0.120369 0.399737 0.267240
H234  H     H_    0.177842 0.112788 0.385933 0.191426
H235  H     H_    0.674995 0.903419 0.474907 0.211175
H236  H     H_    0.228720 0.106681 0.350505 0.258858
H237  H     H_    0.819419 0.830729 0.342690 0.089493
H238  H     H_    0.800493 0.817241 0.391182 0.121052
H239  H     H_    0.755215 0.879627 0.399742 0.267243
H240  H     H_    0.822148 0.887214 0.385936 0.191424
H241  H     H_    0.771266 0.893321 0.350511 0.258855
H242  H     H_    0.655725 0.169310 0.320104 0.177792
H243  H     H_    0.703028 0.168227 0.359102 0.124344
H244  H     H_    0.623344 0.131995 0.376231 0.188455
H245  H     H_    0.632240 0.173563 0.407369 0.304332
H246  H     H_    0.724783 0.098157 0.439996 0.189744
H247  H     H_    0.584643 0.174965 0.368748 0.260466
H248  H     H_    0.065093 0.248950 0.880802 0.173807
H249  H     H_    0.115471 0.260203 0.915900 0.186755
H250  H     H_    0.103502 0.330539 0.902895 0.267843
H251  H     H_    0.122047 0.303713 0.860174 0.202765
H252  H     H_    0.055341 0.318713 0.866509 0.258466
H253  H     H_    0.090259 0.785412 0.895430 0.199811
H254  H     H_    0.022518 0.775740 0.884270 0.157525
H255  H     H_    0.047648 0.711925 0.856059 0.269587
H256  H     H_    0.080284 0.751918 0.832340 0.219679
H257  H     H_    0.226142 0.189937 0.723130 0.161710
H258  H     H_    0.115085 0.722344 0.866788 0.239878
H259  H     H_    0.909743 0.214575 0.895435 0.199811
H260  H     H_    0.977483 0.224248 0.884273 0.157523
H261  H     H_    0.952347 0.288060 0.856056 0.269586
H262  H     H_    0.919714 0.248062 0.832341 0.219679
H263  H     H_    0.884911 0.277638 0.866787 0.239880
H264  H     H_    0.934905 0.751040 0.880802 0.173810
H265  H     H_    0.884528 0.739791 0.915901 0.186750
H266  H     H_    0.896493 0.669454 0.902902 0.267841
H267  H     H_    0.877950 0.696277 0.860178 0.202763
H268  H     H_    0.173999 0.776032 0.723779 0.173207
H269  H     H_    0.944655 0.681275 0.866515 0.258470
H270  H     H_    0.565094 0.248953 0.380802 0.173806
H271  H     H_    0.615472 0.260205 0.415900 0.186753
H272  H     H_    0.603503 0.330541 0.402898 0.267842
H273  H     H_    0.622047 0.303717 0.360176 0.202764
H274  H     H_    0.555342 0.318717 0.366512 0.258468
H275  H     H_    0.590256 0.785425 0.395435 0.199813
H276  H     H_    0.522516 0.775751 0.384272 0.157522
H277  H     H_    0.547655 0.711939 0.356056 0.269585
H278  H     H_    0.580287 0.751937 0.332341 0.219679
H279  H     H_    0.825969 0.223919 0.723779 0.173232
H280  H     H_    0.615090 0.722363 0.366787 0.239880
H281  H     H_    0.409744 0.214577 0.395434 0.199810
H282  H     H_    0.477484 0.224251 0.384272 0.157522
H283  H     H_    0.452346 0.288064 0.356057 0.269587
H284  H     H_    0.419715 0.248066 0.332341 0.219676
H285  H     H_    0.384911 0.277640 0.366787 0.239879
H286  H     H_    0.434906 0.751048 0.380802 0.173807
H287  H     H_    0.384528 0.739795 0.415900 0.186754
H288  H     H_    0.396498 0.669460 0.402896 0.267844
H289  H     H_    0.377953 0.696285 0.360175 0.202765
H290  H     H_    0.773864 0.810064 0.723129 0.161711
H291  H     H_    0.444659 0.681285 0.366510 0.258468
H292  H     H_    0.565094 0.748959 0.880801 0.173810
H293  H     H_    0.615472 0.760208 0.915901 0.186750
H294  H     H_    0.603507 0.830545 0.902901 0.267841
H295  H     H_    0.622050 0.803722 0.860178 0.202764
H296  H     H_    0.555345 0.818724 0.866514 0.258469
H297  H     H_    0.590264 0.285438 0.895445 0.199820
H298  H     H_    0.522525 0.275767 0.884274 0.157508
H299  H     H_    0.547667 0.211959 0.856051 0.269577
H300  H     H_    0.580305 0.251960 0.832345 0.219679
H301  H     H_    0.726139 0.189936 0.223129 0.161711
H302  H     H_    0.615100 0.222379 0.866790 0.239883
H303  H     H_    0.409739 0.714591 0.895430 0.199812
H304  H     H_    0.477481 0.724261 0.884270 0.157527
H305  H     H_    0.452353 0.788077 0.856060 0.269590
H306  H     H_    0.419715 0.748085 0.832340 0.219679
H307  H     H_    0.384916 0.777659 0.866788 0.239874
H308  H     H_    0.434914 0.251069 0.880799 0.173787
H309  H     H_    0.384532 0.239815 0.915893 0.186787
H310  H     H_    0.396497 0.169480 0.902883 0.267836
H311  H     H_    0.377954 0.196311 0.860165 0.202773
H312  H     H_    0.674037 0.776091 0.223779 0.173245
H313  H     H_    0.444659 0.181307 0.866498 0.258465
H314  H     H_    0.065094 0.748953 0.380802 0.173807
H315  H     H_    0.115472 0.760205 0.415901 0.186752
H316  H     H_    0.103502 0.830541 0.402897 0.267843
H317  H     H_    0.122047 0.803716 0.360176 0.202765
H318  H     H_    0.055341 0.818716 0.366511 0.258468
H319  H     H_    0.090255 0.285426 0.395435 0.199811
H320  H     H_    0.022515 0.275751 0.384272 0.157522
H321  H     H_    0.047655 0.211940 0.356056 0.269586
H322  H     H_    0.080285 0.251938 0.332341 0.219679
H323  H     H_    0.325961 0.223904 0.223779 0.173246
H324  H     H_    0.115089 0.222364 0.366787 0.239880
H325  H     H_    0.909744 0.714576 0.395434 0.199812
H326  H     H_    0.977484 0.724251 0.384272 0.157522
H327  H     H_    0.952345 0.788063 0.356057 0.269586
H328  H     H_    0.919714 0.748065 0.332341 0.219679
H329  H     H_    0.884911 0.777639 0.366787 0.239879
H330  H     H_    0.934906 0.251048 0.380802 0.173805
H331  H     H_    0.884528 0.239795 0.415900 0.186754
H332  H     H_    0.896498 0.169459 0.402897 0.267843
H333  H     H_    0.877953 0.196285 0.360175 0.202765
H334  H     H_    0.728591 0.527429 0.937948 0.179453
H335  H     H_    0.273860 0.810065 0.223129 0.161718
H336  H     H_    0.944659 0.181285 0.366510 0.258468
H337  H     H_    0.091728 0.353254 0.035492 0.213397
H338  H     H_    0.024969 0.366587 0.024847 0.165416
H339  H     H_    0.053216 0.394896 0.962265 0.261238
H340  H     H_    0.088812 0.416078 0.002225 0.224305
H341  H     H_    0.119493 0.380312 0.971829 0.252489
H342  H     H_    0.064362 0.631094 0.000333 0.200562
H343  H     H_    0.114747 0.665917 0.987494 0.184394
H344  H     H_    0.100134 0.651812 0.917880 0.260654
H345  H     H_    0.117600 0.608876 0.944885 0.210680
H346  H     H_    0.726136 0.689936 0.723129 0.161711
H347  H     H_    0.050814 0.616569 0.930805 0.260732
H348  H     H_    0.935637 0.368905 0.000324 0.200568
H349  H     H_    0.885252 0.334081 0.987487 0.184388
H350  H     H_    0.899865 0.348181 0.917873 0.260651
H351  H     H_    0.882400 0.391119 0.944875 0.210685
H352  H     H_    0.949186 0.383425 0.930794 0.260732
H353  H     H_    0.908270 0.646752 0.035503 0.213406
H354  H     H_    0.975027 0.633414 0.024858 0.165413
H355  H     H_    0.946777 0.605097 0.962282 0.261227
H356  H     H_    0.911176 0.583924 0.002244 0.224315
H357  H     H_    0.674030 0.276081 0.723779 0.173238
H358  H     H_    0.880502 0.619688 0.971842 0.252489
H359  H     H_    0.591732 0.353249 0.535497 0.213405
H360  H     H_    0.524975 0.366588 0.524851 0.165413
H361  H     H_    0.553226 0.394900 0.462274 0.261227
H362  H     H_    0.588830 0.416074 0.502234 0.224310
H363  H     H_    0.619501 0.380307 0.471834 0.252489
H364  H     H_    0.564364 0.631095 0.500323 0.200565
H365  H     H_    0.614748 0.665920 0.487487 0.184385
H366  H     H_    0.600137 0.651822 0.417873 0.260657
H367  H     H_    0.617604 0.608884 0.444873 0.210674
H368  H     H_    0.325996 0.723964 0.723780 0.173203
H369  H     H_    0.550818 0.616576 0.430793 0.260735
H370  H     H_    0.435640 0.368904 0.500329 0.200571
H371  H     H_    0.385253 0.334083 0.487488 0.184387
H372  H     H_    0.399871 0.348187 0.417875 0.260651
H373  H     H_    0.382405 0.391124 0.444880 0.210695
H374  H     H_    0.449192 0.383429 0.430801 0.260731
H375  H     H_    0.408273 0.646745 0.535494 0.213404
H376  H     H_    0.475033 0.633413 0.524848 0.165417
H377  H     H_    0.446785 0.605103 0.462267 0.261238
H378  H     H_    0.411191 0.583921 0.502228 0.224310
H379  H     H_    0.273849 0.310069 0.723128 0.161714
H380  H     H_    0.380508 0.619686 0.471832 0.252489
H381  H     H_    0.591724 0.853252 0.035501 0.213399
H382  H     H_    0.524967 0.866587 0.024853 0.165407
H383  H     H_    0.553221 0.894900 0.962275 0.261246
H384  H     H_    0.588816 0.916077 0.002238 0.224302
H385  H     H_    0.619496 0.880313 0.971840 0.252488
H386  H     H_    0.564341 0.131092 0.000319 0.200537
H387  H     H_    0.614743 0.165908 0.987494 0.184427
H388  H     H_    0.600148 0.151815 0.917877 0.260633
H389  H     H_    0.617589 0.108871 0.944878 0.210697
H390  H     H_    0.226139 0.689935 0.223129 0.161712
H391  H     H_    0.550811 0.116580 0.930786 0.260750
H392  H     H_    0.435628 0.868909 0.000328 0.200510
H393  H     H_    0.385248 0.834077 0.987505 0.184386
H394  H     H_    0.399842 0.848164 0.917885 0.260707
H395  H     H_    0.382358 0.891100 0.944883 0.210538
H396  H     H_    0.449145 0.883425 0.930795 0.260748
H397  H     H_    0.408240 0.146767 0.035472 0.213388
H398  H     H_    0.474987 0.133398 0.024826 0.165396
H399  H     H_    0.446718 0.105097 0.962252 0.261217
H400  H     H_    0.411063 0.083952 0.002202 0.224256
H401  H     H_    0.174040 0.276096 0.223779 0.173246
H402  H     H_    0.380459 0.119741 0.971793 0.252500
H403  H     H_    0.091728 0.853253 0.535496 0.213407
H404  H     H_    0.024969 0.866587 0.524850 0.165417
H405  H     H_    0.053215 0.894898 0.462270 0.261233
H406  H     H_    0.088812 0.916078 0.502231 0.224314
H407  H     H_    0.119493 0.880314 0.471834 0.252488
H408  H     H_    0.064362 0.131096 0.500324 0.200572
H409  H     H_    0.114748 0.165919 0.487486 0.184387
H410  H     H_    0.100133 0.151819 0.417872 0.260650
H411  H     H_    0.117598 0.108881 0.444874 0.210695
H412  H     H_    0.825964 0.723910 0.223779 0.173244
H413  H     H_    0.050812 0.116575 0.430794 0.260733
H414  H     H_    0.935638 0.868905 0.500325 0.200570
H415  H     H_    0.885252 0.834081 0.487487 0.184388
H416  H     H_    0.899866 0.848182 0.417874 0.260651
H417  H     H_    0.882401 0.891120 0.444876 0.210691
H418  H     H_    0.949187 0.883425 0.430796 0.260733
H419  H     H_    0.908273 0.146746 0.535494 0.213404
H420  H     H_    0.975032 0.133413 0.524848 0.165418
H421  H     H_    0.946785 0.105103 0.462268 0.261235
H422  H     H_    0.911189 0.083921 0.502228 0.224312
H423  H     H_    0.773860 0.310065 0.223129 0.161711
H424  H     H_    0.880507 0.119686 0.471832 0.252488
H425  H     H_    0.224760 0.190211 0.652285 0.172764
H426  H     H_    0.771402 0.472571 0.437947 0.179452
H427  H     H_    0.174176 0.776649 0.652874 0.197487
H428  H     H_    0.825792 0.223302 0.652875 0.197471
H429  H     H_    0.775248 0.809788 0.652285 0.172771
H430  H     H_    0.724755 0.190211 0.152285 0.172770
H431  H     H_    0.674213 0.776707 0.152875 0.197470
H432  H     H_    0.325784 0.223288 0.152875 0.197470
H433  H     H_    0.275245 0.809789 0.152284 0.172787
H434  H     H_    0.724752 0.690211 0.652284 0.172772
H435  H     H_    0.674207 0.276697 0.652875 0.197475
H436  H     H_    0.325822 0.723349 0.652874 0.197483
H437  H     H_    0.823102 0.525870 0.473963 0.186551
H438  H     H_    0.275236 0.309792 0.652283 0.172765
H439  H     H_    0.224755 0.690211 0.152284 0.172771
H440  H     H_    0.174216 0.276712 0.152875 0.197471
H441  H     H_    0.825787 0.723293 0.152875 0.197470
H442  H     H_    0.775245 0.309789 0.152284 0.172769
H443  H     H_    0.037590 0.191256 0.011973 0.129444
H444  H     H_    0.048412 0.804234 0.026544 0.112218
H445  H     H_    0.951588 0.195769 0.026549 0.112210
H446  H     H_    0.962410 0.808745 0.011967 0.129447
H447  H     H_    0.537590 0.191255 0.511971 0.129445
H448  H     H_    0.176894 0.474129 0.473968 0.186551
H449  H     H_    0.548412 0.804231 0.526549 0.112211
H450  H     H_    0.451588 0.195768 0.526548 0.112212
H451  H     H_    0.462410 0.808744 0.511973 0.129445
H452  H     H_    0.537590 0.691255 0.011967 0.129445
H453  H     H_    0.548411 0.304229 0.026556 0.112207
H454  H     H_    0.451588 0.695767 0.026543 0.112214
H455  H     H_    0.462409 0.308743 0.011984 0.129435
H456  H     H_    0.037589 0.691255 0.511972 0.129445
H457  H     H_    0.048412 0.304232 0.526550 0.112211
H458  H     H_    0.951588 0.695768 0.526548 0.112212
H459  H     H_    0.228589 0.527429 0.437949 0.179455
H460  H     H_    0.962410 0.308744 0.511973 0.129445
H461  H     H_    0.352844 0.217296 0.753008 0.132238
H462  H     H_    0.385206 0.232414 0.797373 0.156680
H463  H     H_    0.440176 0.278078 0.759604 0.255261
H464  H     H_    0.446579 0.228825 0.742417 0.203275
H465  H     H_    0.407914 0.263134 0.715413 0.275832
H466  H     H_    0.185881 0.687113 0.751831 0.119686
H467  H     H_    0.199283 0.645484 0.782020 0.151011
H468  H     H_    0.253069 0.616971 0.729555 0.263203
H469  H     H_    0.187579 0.626800 0.713617 0.202942
H470  H     H_    0.771414 0.972572 0.937952 0.179456
H471  H     H_    0.239934 0.658711 0.699375 0.266587
H472  H     H_    0.814133 0.312861 0.751806 0.119745
H473  H     H_    0.800790 0.354479 0.782025 0.150969
H474  H     H_    0.747008 0.383058 0.729596 0.263178
H475  H     H_    0.812475 0.373196 0.713628 0.202946
H476  H     H_    0.760074 0.341328 0.699385 0.266594
H477  H     H_    0.647156 0.782720 0.753010 0.132239
H478  H     H_    0.614800 0.767607 0.797379 0.156673
H479  H     H_    0.559812 0.721949 0.759618 0.255262
H480  H     H_    0.553416 0.771203 0.742431 0.203268
O1    O     O_3   0.250000 0.250000 0.000020 -0.531767
O2    O     O_R   0.366860 0.727260 0.977280 -0.613184
O3    O     O_R   0.133140 0.272740 0.022750 -0.573639
O4    O     O_R   0.366860 0.727260 0.522750 -0.573640
O5    O     O_R   0.366860 0.272740 0.522750 -0.574690
O6    O     O_R   0.633140 0.727260 0.522750 -0.574689
O7    O     O_R   0.633140 0.272740 0.522750 -0.573648
O8    O     O_3   0.338382 0.274040 0.771130 -0.597852
O9    O     O_3   0.263328 0.680359 0.771888 -0.563556
O10   O     O_3   0.736705 0.319644 0.771889 -0.563566
O11   O     O_3   0.661609 0.725974 0.771131 -0.597847
O12   O     O_3   0.838389 0.274029 0.271131 -0.597850
O13   O     O_R   0.633140 0.272740 0.977280 -0.613192
O14   O     O_3   0.763290 0.680355 0.271890 -0.563560
O15   O     O_3   0.236718 0.319646 0.271890 -0.563560
O16   O     O_3   0.161610 0.725971 0.271132 -0.597848
O17   O     O_3   0.838391 0.774025 0.771132 -0.597847
O18   O     O_3   0.763293 0.180356 0.771889 -0.563555
O19   O     O_3   0.236667 0.819637 0.771886 -0.563564
O20   O     O_3   0.161609 0.225970 0.771132 -0.597847
O21   O     O_3   0.338389 0.774029 0.271131 -0.597845
O22   O     O_3   0.263282 0.180354 0.271890 -0.563557
O23   O     O_3   0.736711 0.819646 0.271890 -0.563560
O24   O     O_R   0.633140 0.727260 0.977280 -0.641712
O25   O     O_3   0.661609 0.225972 0.271132 -0.597847
O26   O     O_3   0.219597 0.478955 0.064969 -0.536541
O27   O     O_3   0.154792 0.523424 0.018391 -0.529638
O28   O     O_3   0.845212 0.476576 0.018382 -0.529641
O29   O     O_3   0.780415 0.521045 0.064966 -0.536543
O30   O     O_3   0.719592 0.478955 0.564968 -0.536541
O31   O     O_3   0.654790 0.523424 0.518389 -0.529638
O32   O     O_3   0.345212 0.476576 0.518381 -0.529641
O33   O     O_3   0.280415 0.521045 0.564966 -0.536543
O34   O     O_3   0.719595 0.978954 0.064971 -0.536543
O35   O     O_R   0.866860 0.272740 0.477280 -0.641710
O36   O     O_3   0.654795 0.023423 0.018388 -0.529641
O37   O     O_3   0.345167 0.976582 0.018489 -0.529612
O38   O     O_3   0.280295 0.021050 0.065003 -0.536519
O39   O     O_3   0.219579 0.978955 0.564964 -0.536543
O40   O     O_3   0.154785 0.023425 0.518376 -0.529642
O41   O     O_3   0.845214 0.976575 0.518379 -0.529641
O42   O     O_3   0.780418 0.021045 0.564965 -0.536543
O43   O     O_3   0.336062 0.279120 0.851002 -0.599537
O44   O     O_3   0.260434 0.679711 0.851442 -0.538630
O45   O     O_3   0.739582 0.320290 0.851443 -0.538632
O46   O     O_R   0.866860 0.727260 0.477280 -0.613188
O47   O     O_3   0.663932 0.720889 0.851003 -0.599528
O48   O     O_3   0.836066 0.279113 0.351003 -0.599531
O49   O     O_3   0.760417 0.679710 0.351443 -0.538625
O50   O     O_3   0.239589 0.320290 0.351443 -0.538627
O51   O     O_3   0.163934 0.720887 0.351003 -0.599529
O52   O     O_3   0.836068 0.779111 0.851003 -0.599528
O53   O     O_3   0.760412 0.179709 0.851442 -0.538627
O54   O     O_3   0.239560 0.820287 0.851441 -0.538635
O55   O     O_3   0.163934 0.220885 0.851003 -0.599526
O56   O     O_3   0.336066 0.779113 0.351003 -0.599530
O57   O     O_R   0.133140 0.272740 0.477280 -0.613189
O58   O     O_3   0.260412 0.179710 0.351443 -0.538625
O59   O     O_3   0.739584 0.820290 0.351443 -0.538625
O60   O     O_3   0.663933 0.220887 0.351003 -0.599529
O61   O     O_3   0.040185 0.277134 0.930750 -0.583778
O62   O     O_3   0.056370 0.740854 0.927099 -0.586472
O63   O     O_3   0.943630 0.259138 0.927098 -0.586467
O64   O     O_3   0.959814 0.722860 0.930751 -0.583776
O65   O     O_3   0.540185 0.277136 0.430750 -0.583777
O66   O     O_3   0.556370 0.740862 0.427098 -0.586468
O67   O     O_3   0.443630 0.259139 0.427099 -0.586468
O68   O     O_R   0.133140 0.727260 0.477280 -0.641711
O69   O     O_3   0.459815 0.722865 0.430750 -0.583778
O70   O     O_3   0.540186 0.777140 0.930751 -0.583778
O71   O     O_3   0.556370 0.240871 0.927099 -0.586456
O72   O     O_3   0.443630 0.759147 0.927099 -0.586473
O73   O     O_3   0.459815 0.222878 0.930745 -0.583774
O74   O     O_3   0.040185 0.777135 0.430750 -0.583778
O75   O     O_3   0.056370 0.240863 0.427098 -0.586467
O76   O     O_3   0.943630 0.759139 0.427098 -0.586468
O77   O     O_3   0.959815 0.222865 0.430750 -0.583779
O78   O     O_3   0.056997 0.322679 0.990525 -0.626222
O79   O     O_R   0.866860 0.772740 0.977280 -0.641710
O80   O     O_3   0.039037 0.680928 0.972173 -0.618305
O81   O     O_3   0.960963 0.319069 0.972167 -0.618307
O82   O     O_3   0.943003 0.677320 0.990532 -0.626220
O83   O     O_3   0.556997 0.322679 0.490528 -0.626223
O84   O     O_3   0.539037 0.680931 0.472167 -0.618305
O85   O     O_3   0.460963 0.319069 0.472169 -0.618308
O86   O     O_3   0.443003 0.677321 0.490526 -0.626223
O87   O     O_3   0.556996 0.822680 0.990530 -0.626215
O88   O     O_3   0.539042 0.180935 0.972162 -0.618301
O89   O     O_3   0.460960 0.819074 0.972175 -0.618274
O90   O     O_R   0.866860 0.227260 0.977280 -0.613189
O91   O     O_3   0.443005 0.177326 0.990508 -0.626218
O92   O     O_3   0.056997 0.822679 0.490528 -0.626225
O93   O     O_3   0.039037 0.180931 0.472167 -0.618309
O94   O     O_3   0.960963 0.819069 0.472168 -0.618308
O95   O     O_3   0.943003 0.177321 0.490526 -0.626224
O96   O     O_R   0.133140 0.772740 0.977280 -0.613184
O97   O     O_3   0.250000 0.750000 0.000020 -0.539449
O98   O     O_R   0.133140 0.227260 0.977280 -0.641709
O99   O     O_R   0.366860 0.772740 0.477280 -0.641711
O100  O     O_R   0.366860 0.227260 0.477280 -0.613189
O101  O     O_R   0.633140 0.772740 0.477280 -0.613188
O102  O     O_R   0.633140 0.227260 0.477280 -0.641710
O103  O     O_R   0.280650 0.163280 0.022750 -0.587830
O104  O     O_R   0.280650 0.836720 0.022750 -0.590135
O105  O     O_R   0.719350 0.163280 0.022750 -0.590170
O106  O     O_R   0.719350 0.836720 0.022750 -0.587778
O107  O     O_R   0.780650 0.163280 0.522750 -0.587775
O108  O     O_3   0.750000 0.250000 0.000020 -0.539447
O109  O     O_R   0.780650 0.836720 0.522750 -0.590170
O110  O     O_R   0.219350 0.163280 0.522750 -0.590171
O111  O     O_R   0.219350 0.836720 0.522750 -0.587771
O112  O     O_R   0.780650 0.663280 0.022750 -0.587780
O113  O     O_R   0.780650 0.336720 0.022750 -0.590168
O114  O     O_R   0.219350 0.663280 0.022750 -0.590165
O115  O     O_R   0.219350 0.336720 0.022750 -0.587781
O116  O     O_R   0.280650 0.663280 0.522750 -0.587773
O117  O     O_R   0.280650 0.336720 0.522750 -0.590171
O118  O     O_R   0.719350 0.663280 0.522750 -0.590166
O119  O     O_3   0.750000 0.750000 0.000020 -0.531770
O120  O     O_R   0.719350 0.336720 0.522750 -0.587781
O121  O     O_R   0.280650 0.227270 0.086750 -0.619294
O122  O     O_R   0.280650 0.772730 0.086750 -0.623668
O123  O     O_R   0.719350 0.227270 0.086750 -0.623685
O124  O     O_R   0.719350 0.772730 0.086750 -0.619306
O125  O     O_R   0.780650 0.227270 0.586750 -0.619305
O126  O     O_R   0.780650 0.772730 0.586750 -0.623685
O127  O     O_R   0.219350 0.227270 0.586750 -0.623683
O128  O     O_R   0.219350 0.772730 0.586750 -0.619295
O129  O     O_R   0.780650 0.727270 0.086750 -0.619309
O130  O     O_3   0.750000 0.250000 0.500020 -0.531771
O131  O     O_R   0.780650 0.272730 0.086750 -0.623684
O132  O     O_R   0.219350 0.727270 0.086750 -0.623684
O133  O     O_R   0.219350 0.272730 0.086750 -0.619309
O134  O     O_R   0.280650 0.727270 0.586750 -0.619294
O135  O     O_R   0.280650 0.272730 0.586750 -0.623684
O136  O     O_R   0.719350 0.727270 0.586750 -0.623683
O137  O     O_R   0.719350 0.272730 0.586750 -0.619305
O138  O     O_R   0.280640 0.272750 0.913290 -0.633781
O139  O     O_R   0.280640 0.727250 0.913290 -0.613281
O140  O     O_R   0.719360 0.272750 0.913290 -0.613292
O141  O     O_3   0.750000 0.750000 0.500020 -0.539448
O142  O     O_R   0.719360 0.727250 0.913290 -0.633777
O143  O     O_R   0.780640 0.272750 0.413290 -0.633775
O144  O     O_R   0.780640 0.727250 0.413290 -0.613294
O145  O     O_R   0.219360 0.272750 0.413290 -0.613294
O146  O     O_R   0.219360 0.727250 0.413290 -0.633775
O147  O     O_R   0.780640 0.772750 0.913290 -0.633774
O148  O     O_R   0.780640 0.227250 0.913290 -0.613297
O149  O     O_R   0.219360 0.772750 0.913290 -0.613278
O150  O     O_R   0.219360 0.227250 0.913290 -0.633778
O151  O     O_R   0.280640 0.772750 0.413290 -0.633776
O152  O     O_3   0.250000 0.250000 0.500020 -0.539448
O153  O     O_R   0.280640 0.227250 0.413290 -0.613296
O154  O     O_R   0.719360 0.772750 0.413290 -0.613293
O155  O     O_R   0.719360 0.227250 0.413290 -0.633776
O156  O     O_R   0.219380 0.163280 0.977280 -0.661117
O157  O     O_R   0.219380 0.836720 0.977280 -0.648087
O158  O     O_R   0.780620 0.163280 0.977280 -0.648063
O159  O     O_R   0.780620 0.836720 0.977280 -0.661131
O160  O     O_R   0.719380 0.163280 0.477280 -0.661131
O161  O     O_R   0.719380 0.836720 0.477280 -0.648065
O162  O     O_R   0.280620 0.163280 0.477280 -0.648063
O163  O     O_3   0.250000 0.750000 0.500020 -0.531774
O164  O     O_R   0.280620 0.836720 0.477280 -0.661132
O165  O     O_R   0.719380 0.663280 0.977280 -0.661131
O166  O     O_R   0.719380 0.336720 0.977280 -0.648069
O167  O     O_R   0.280620 0.663280 0.977280 -0.648077
O168  O     O_R   0.280620 0.336720 0.977280 -0.661132
O169  O     O_R   0.219380 0.663280 0.477280 -0.661133
O170  O     O_R   0.219380 0.336720 0.477280 -0.648064
O171  O     O_R   0.780620 0.663280 0.477280 -0.648066
O172  O     O_R   0.780620 0.336720 0.477280 -0.661131
O173  O     O_R   0.366860 0.227260 0.022750 -0.573670
O174  O     O_R   0.366860 0.272740 0.977280 -0.641719
O175  O     O_R   0.366860 0.772740 0.022750 -0.574709
O176  O     O_R   0.633140 0.227260 0.022750 -0.574689
O177  O     O_R   0.633140 0.772740 0.022750 -0.573642
O178  O     O_R   0.866860 0.227260 0.522750 -0.573640
O179  O     O_R   0.866860 0.772740 0.522750 -0.574689
O180  O     O_R   0.133140 0.227260 0.522750 -0.574688
O181  O     O_R   0.133140 0.772740 0.522750 -0.573642
O182  O     O_R   0.866860 0.727260 0.022750 -0.573649
O183  O     O_R   0.866860 0.272740 0.022750 -0.574688
O184  O     O_R   0.133140 0.727260 0.022750 -0.574695
Zn1   Zn    Zn3+2 0.206240 0.217520 0.967530 0.958439
Zn2   Zn    Zn3+2 0.706240 0.282480 0.967530 0.986587
Zn3   Zn    Zn3+2 0.293760 0.717520 0.967530 0.986598
Zn4   Zn    Zn3+2 0.293760 0.282480 0.967530 0.958415
Zn5   Zn    Zn3+2 0.206240 0.717520 0.467530 0.958426
Zn6   Zn    Zn3+2 0.206240 0.282480 0.467530 0.986592
Zn7   Zn    Zn3+2 0.793760 0.717520 0.467530 0.986592
Zn8   Zn    Zn3+2 0.793760 0.282480 0.467530 0.958427
Zn9   Zn    Zn3+2 0.293780 0.217520 0.032500 1.060021
Zn10  Zn    Zn3+2 0.293780 0.782480 0.032500 1.045062
Zn11  Zn    Zn3+2 0.706220 0.217520 0.032500 1.045038
Zn12  Zn    Zn3+2 0.206240 0.782480 0.967530 0.986597
Zn13  Zn    Zn3+2 0.706220 0.782480 0.032500 1.060046
Zn14  Zn    Zn3+2 0.793780 0.217520 0.532500 1.060048
Zn15  Zn    Zn3+2 0.793780 0.782480 0.532500 1.045036
Zn16  Zn    Zn3+2 0.206220 0.217520 0.532500 1.045036
Zn17  Zn    Zn3+2 0.206220 0.782480 0.532500 1.060048
Zn18  Zn    Zn3+2 0.793780 0.717520 0.032500 1.060039
Zn19  Zn    Zn3+2 0.793780 0.282480 0.032500 1.045037
Zn20  Zn    Zn3+2 0.206220 0.717520 0.032500 1.045043
Zn21  Zn    Zn3+2 0.206220 0.282480 0.032500 1.060054
Zn22  Zn    Zn3+2 0.293780 0.717520 0.532500 1.060049
Zn23  Zn    Zn3+2 0.793760 0.217520 0.967530 0.986595
Zn24  Zn    Zn3+2 0.293780 0.282480 0.532500 1.045035
Zn25  Zn    Zn3+2 0.706220 0.717520 0.532500 1.045038
Zn26  Zn    Zn3+2 0.706220 0.282480 0.532500 1.060040
Zn27  Zn    Zn3+2 0.793760 0.782480 0.967530 0.958429
Zn28  Zn    Zn3+2 0.706240 0.217520 0.467530 0.958427
Zn29  Zn    Zn3+2 0.706240 0.782480 0.467530 0.986591
Zn30  Zn    Zn3+2 0.293760 0.217520 0.467530 0.986593
Zn31  Zn    Zn3+2 0.293760 0.782480 0.467530 0.958425
Zn32  Zn    Zn3+2 0.706240 0.717520 0.967530 0.958427

loop_
_geom_bond_atom_site_label_1
_geom_bond_atom_site_label_2
_ccdc_geom_bond_type
O125  Zn14  S    
C322  C324  S    
C316  H197  S    
C224  C227  A    
C168  C290  A    
C45   H190  S    
C273  H89   S    
C411  C413  S    
C82   O115  A    
C99   C118  A    
C244  H19   S    
C249  H30   S    
C274  H93   S    
C175  C207  A    
C421  O179  A    
C384  H369  S    
C337  C338  S    
C444  F8    S    
O108  Zn19  S    
C239  H4    S    
C406  H422  S    
C353  H288  S    
C12   C440  S    
C271  H85   S    
C201  C225  A    
O119  Zn18  S    
O140  Zn2   S    
O111  Zn17  S    
C296  H149  S    
C246  H442  S    
C187  O54   S    
O130  Zn28  S    
O152  Zn24  S    
C92   F14   S    
C369  H329  S    
C1    O174  A    
O97   Zn10  S    
C150  O138  A    
C63   C98   A    
C387  H375  S    
C76   O162  A    
C18   C125  A    
O151  Zn31  S    
C355  H295  S    
C48   H212  S    
C353  H291  S    
C389  C391  S    
C92   C109  A    
C220  C379  A    
C391  H385  S    
C81   O114  A    
C322  O54   S    
O163  Zn22  S    
O171  Zn7   S    
C135  C217  A    
O169  Zn5   S    
C242  H11   S    
C330  H233  S    
C372  C373  S    
C105  C123  A    
C270  H81   S    
O113  Zn19  S    
C158  O151  A    
C275  H94   S    
C436  H452  S    
C20   H334  S    
O35   Zn8   S    
C347  H273  S    
O1    Zn1   S    
C36   C53   A    
C19   C37   A    
C18   H112  S    
C239  O12   S    
C450  F50   S    
C397  H399  S    
C303  H164  S    
C164  O14   S    
C38   C55   A    
C239  C240  S    
C183  O50   S    
O108  Zn2   S    
C382  H363  S    
C258  H50   S    
O150  Zn1   S    
C10   C456  S    
C170  C187  A    
C26   C43   A    
C449  F49   S    
C153  O142  A    
C254  O20   S    
C416  F33   S    
C148  O127  A    
O130  Zn26  S    
C155  O144  A    
C313  H191  S    
C444  H460  S    
C170  C204  A    
C321  H213  S    
C93   C110  A    
C115  C132  A    
C398  C399  S    
O130  Zn8   S    
C13   O96   A    
C281  H109  S    
C397  H402  S    
O182  Zn18  S    
C265  H71   S    
C169  O18   S    
C414  C416  S    
O13   Zn2   S    
C161  C205  A    
C254  H42   S    
C234  C236  S    
C49   H224  S    
C250  H32   S    
C297  H151  S    
C333  H243  S    
C51   H246  S    
C88   F10   S    
C147  O136  A    
C431  F45   S    
C62   C97   A    
C343  H264  S    
C159  O8    S    
O152  Zn6   S    
C244  H17   S    
C381  H359  S    
C188  O55   S    
C40   C58   A    
C369  H327  S    
C193  O60   S    
O179  Zn15  S    
C248  O17   S    
C165  C183  A    
C16   C426  S    
C263  C264  S    
C419  C422  S    
C166  C184  A    
C59   C84   S    
C32   C139  A    
C93   F15   S    
C226  H390  S    
C372  H338  S    
C47   C64   A    
C262  H61   S    
C372  O78   S    
C15   C421  S    
C456  F55   S    
C281  O33   S    
C116  C133  A    
C317  H199  S    
C203  C346  S    
C451  O85   S    
C314  C315  S    
C300  O43   S    
C374  O80   S    
C400  H409  S    
C250  O18   S    
C376  H348  S    
C307  H176  S    
C324  H216  S    
C114  O33   S    
C427  C462  S    
C316  C317  S    
C145  O125  A    
C74   O107  A    
C453  C456  S    
C72   O158  A    
C358  H300  S    
C292  O39   S    
C252  H38   S    
C286  H122  S    
C267  H75   S    
C23   H448  S    
C403  O94   S    
O1    Zn21  S    
C328  H228  S    
C111  C130  A    
C56   C86   S    
C303  C304  S    
C300  H159  S    
C395  H395  S    
C376  H349  S    
C66   C76   S    
C352  C353  S    
C12   C423  S    
C255  H44   S    
C173  O22   S    
C292  H138  S    
C69   C74   S    
C370  O77   S    
C404  H416  S    
C168  C220  A    
C378  C380  S    
C245  H21   S    
C276  O31   S    
C266  H74   S    
C334  O177  A    
C336  H244  S    
C171  C188  A    
C296  C297  S    
C341  O63   S    
C325  H220  S    
C370  H330  S    
O126  Zn15  S    
C156  O145  A    
C273  H91   S    
C326  H225  S    
C119  O39   S    
C381  C382  S    
C172  C189  A    
C373  H340  S    
C120  O40   S    
C120  C138  A    
C298  C299  S    
C172  C210  A    
C4    C414  S    
C383  C384  S    
C103  C121  A    
C247  H23   S    
O137  Zn26  S    
O128  Zn17  S    
C387  O86   S    
C118  C136  A    
C43   C61   A    
C253  H41   S    
C11   C457  S    
C333  C336  S    
O142  Zn32  S    
O143  Zn8   S    
C339  H253  S    
C186  O53   S    
C74   O160  A    
O144  Zn7   S    
C14   C432  S    
C298  H154  S    
O123  Zn11  S    
O119  Zn13  S    
C423  O74   S    
C334  O24   A    
C21   C39   A    
O116  Zn22  S    
C182  C199  A    
O97   Zn12  S    
O121  Zn9   S    
C362  H311  S    
C355  H294  S    
C42   H157  S    
C282  H114  S    
C255  H45   S    
C361  H308  S    
C406  H424  S    
C139  C140  S    
C272  O29   S    
C23   C41   A    
C461  O95   S    
C243  H16   S    
C44   C62   A    
C277  H102  S    
C130  C131  S    
C439  F4    S    
C212  H439  S    
C168  H434  S    
C237  H478  S    
C166  C210  A    
C253  H40   S    
C169  C205  A    
C206  C379  S    
C459  O93   S    
C212  C335  A    
C248  H26   S    
C440  F5    S    
O166  Zn2   S    
C352  H286  S    
C375  H344  S    
C277  H100  S    
C348  C349  S    
C375  H345  S    
C426  F43   S    
C454  O182  A    
C230  H462  S    
C219  C408  A    
C15   C442  S    
O181  Zn17  S    
C371  H332  S    
C440  H456  S    
C394  C395  S    
C155  C199  S    
C377  H350  S    
C153  O147  A    
C60   C95   A    
C409  O61   S    
C252  H37   S    
C316  O51   S    
C11   C439  S    
C317  H202  S    
C294  H142  S    
C99   F21   S    
O107  Zn14  S    
C359  C360  S    
C455  C457  S    
C225  C346  A    
C5    C450  S    
C459  F59   S    
C288  H129  S    
C51   C69   A    
C185  C197  A    
C229  C390  A    
C175  C193  A    
C82   O168  A    
C367  H325  S    
C425  O76   S    
C269  H77   S    
C252  C253  S    
C433  C435  S    
C167  C185  A    
C328  H229  S    
C421  O46   A    
C450  C452  S    
C360  H305  S    
C162  O11   S    
C112  O175  A    
C222  H368  S    
C163  C181  A    
O157  Zn12  S    
C68   O102  A    
O161  Zn29  S    
C94   C111  A    
C272  H87   S    
C116  O36   S    
C305  H171  S    
C388  H377  S    
C363  O74   S    
C431  H447  S    
O174  Zn4   S    
C128  C129  S    
C358  H302  S    
C370  C371  S    
C351  H285  S    
C61   C96   A    
C349  H277  S    
C455  O88   S    
C154  C198  S    
C75   O161  A    
C46   O5    A    
C80   O166  A    
C424  F41   S    
C459  C461  S    
C106  C125  A    
C409  F27   S    
C113  C215  A    
C89   C107  A    
C121  O41   S    
C29   C47   A    
C27   H2    S    
C422  F39   S    
C111  O32   S    
C186  C196  A    
C443  O68   A    
C97   F19   S    
C433  F56   S    
C244  H18   S    
C340  H258  S    
C190  C222  A    
C261  C262  S    
C427  F1    S    
C21   C128  A    
C396  O91   S    
C104  C122  A    
C291  H136  S    
C221  C368  A    
C388  H378  S    
C238  H3    S    
C264  H67   S    
C344  H267  S    
C435  H451  S    
C260  H56   S    
O167  Zn3   S    
C441  F6    S    
C434  H450  S    
C110  C129  A    
C241  C242  S    
C433  H449  S    
C263  O25   S    
C345  H271  S    
C24   O98   A    
C374  C375  S    
C6    C451  S    
C10   C420  S    
C124  C301  A    
C340  H255  S    
O102  Zn28  S    
C238  H479  S    
C159  C203  A    
C302  H163  S    
C64   C99   A    
C399  H405  S    
C246  C301  A    
C57   O101  A    
C448  F48   S    
C256  C258  S    
C152  O148  A    
C454  O79   A    
C437  C439  S    
C356  H298  S    
C415  C417  S    
C320  O53   S    
C274  C275  S    
C275  H95   S    
C241  H9    S    
C285  H121  S    
C50   C67   A    
C405  H420  S    
C162  C180  A    
C2    O90   A    
O108  Zn23  S    
C235  C312  A    
C23   C130  A    
C380  H358  S    
C309  H181  S    
C201  H438  S    
C261  H60   S    
C391  H383  S    
O98   Zn1   S    
C22   C40   A    
C150  C194  S    
C402  H411  S    
C276  H98   S    
C84   O117  A    
C31   H46   S    
C262  H63   S    
C145  C279  S    
C227  C407  A    
C150  O150  A    
C4    C449  S    
C287  O37   S    
C348  H275  S    
C356  C358  S    
C280  H105  S    
C245  O16   S    
C171  C203  A    
C321  H210  S    
C418  C420  S    
C289  O38   S    
C342  H262  S    
C350  H281  S    
C439  H455  S    
C216  H301  S    
C306  H174  S    
C394  O89   S    
C288  H128  S    
C49   C66   A    
O170  Zn6   S    
C62   C72   S    
C79   C257  A    
C38   H113  S    
C285  H120  S    
C34   H79   S    
C337  H248  S    
C400  O93   S    
C6    C434  S    
C271  H83   S    
C107  O28   S    
C224  H440  S    
C55   C78   S    
C272  C273  S    
C338  H252  S    
C284  H117  S    
C318  C319  S    
C449  C451  S    
C383  O84   S    
O97   Zn3   S    
C4    C68   S    
C77   O111  A    
C405  C406  S    
C366  H324  S    
C409  C462  S    
C344  H266  S    
C218  C407  A    
C449  O83   S    
C146  C218  A    
O162  Zn30  S    
C386  H372  S    
O152  Zn16  S    
C457  O91   S    
C232  H466  S    
C345  O65   S    
C295  H144  S    
C231  H465  S    
C284  H119  S    
C283  H115  S    
C351  H284  S    
C17   H1    S    
C87   C105  A    
O106  Zn13  S    
C152  O140  A    
C241  H10   S    
C299  H156  S    
C399  H407  S    
C124  H430  S    
C15   C460  S    
C344  H269  S    
C256  H49   S    
C100  C119  A    
C179  H435  S    
C8    C334  S    
C295  H145  S    
C266  H72   S    
C436  F64   S    
C286  H125  S    
O133  Zn21  S    
C353  H289  S    
C374  H342  S    
C302  H162  S    
C294  O40   S    
C254  H43   S    
O5    Zn24  S    
C360  H307  S    
C247  H25   S    
C457  F57   S    
C305  C306  S    
C159  C176  A    
C311  C313  S    
C141  C323  S    
C161  O10   S    
C48   C65   A    
C299  H158  S    
O141  Zn29  S    
O24   Zn32  S    
C386  H373  S    
C67   C75   S    
C90   H427  S    
C151  O149  A    
O175  Zn10  S    
C223  O176  A    
C310  H185  S    
C149  O128  A    
C274  O30   S    
C243  O15   S    
C15   C425  S    
C363  H314  S    
C446  F46   S    
C154  O155  A    
C293  H141  S    
C316  H198  S    
C163  O12   S    
C181  O48   S    
C326  H221  S    
C14   C459  S    
C329  O58   S    
O114  Zn20  S    
C267  H76   S    
C173  C209  A    
C178  O45   S    
C230  H461  S    
C234  H472  S    
C251  H36   S    
C5    C415  S    
C73   O159  A    
C237  O11   S    
O1    Zn9   S    
C446  C448  S    
C144  C312  S    
O149  Zn12  S    
O104  Zn10  S    
C170  O19   S    
C420  O72   S    
C291  H134  S    
C409  C412  S    
C189  C202  A    
C91   F13   S    
C414  F31   S    
C258  H52   S    
C183  C200  A    
C157  C335  A    
C370  H331  S    
C154  O143  A    
C231  H463  S    
C121  C139  A    
C112  O2    A    
C161  C178  A    
C122  C140  A    
C191  C200  A    
C142  C335  S    
C215  H290  S    
C102  F24   S    
C72   O105  A    
C302  H161  S    
C347  H272  S    
C218  H323  S    
C348  O66   S    
C287  H126  S    
C100  F22   S    
C320  H209  S    
C330  H234  S    
C164  C208  A    
C235  H441  S    
C109  C128  A    
C98   F20   S    
C327  O56   S    
O177  Zn13  S    
O139  Zn3   S    
C238  H480  S    
C417  F35   S    
C392  H387  S    
C392  O88   S    
C354  H292  S    
O90   Zn23  S    
C310  H183  S    
O154  Zn29  S    
C286  H123  S    
C308  H177  S    
C259  H54   S    
C345  H270  S    
C276  C277  S    
C149  C268  S    
C258  H51   S    
C16   C444  S    
C143  O123  A    
C283  C284  S    
C430  H446  S    
O120  Zn26  S    
C8    C453  S    
C191  O58   S    
C429  H445  S    
C190  C268  A    
C383  H365  S    
O99   Zn31  S    
C2    O183  A    
O122  Zn10  S    
C280  H107  S    
C309  O48   S    
C50   H235  S    
C96   F18   S    
C364  H317  S    
C385  H371  S    
O3    Zn21  S    
C20   C38   A    
C193  C198  A    
C304  H166  S    
C58   C85   S    
C376  O81   S    
C70   O156  A    
C438  F3    S    
O184  Zn20  S    
C265  H70   S    
O103  Zn9   S    
O152  Zn30  S    
C114  C131  A    
C8    C436  S    
C177  O44   S    
O163  Zn31  S    
C358  H299  S    
C443  O181  A    
C143  O131  A    
C314  H192  S    
C148  C257  S    
C343  C344  S    
C297  H150  S    
C354  H293  S    
C343  H265  S    
O131  Zn19  S    
C240  H7    S    
C7    C435  S    
O135  Zn24  S    
C338  H250  S    
O147  Zn27  S    
C79   C211  A    
C122  O42   S    
C184  O51   S    
C5    C433  S    
C389  H382  S    
C366  H322  S    
C458  O92   S    
O124  Zn13  S    
C24   O3    A    
C28   C134  A    
C272  H86   S    
C263  H65   S    
C58   C93   A    
C169  C186  A    
C385  H370  S    
C378  H353  S    
C411  C463  S    
C398  H404  S    
C294  C295  S    
C10   C438  S    
C60   C83   S    
C70   O103  A    
C123  C125  S    
C2    C464  S    
C95   C114  A    
C278  O32   S    
C423  F40   S    
C52   C87   A    
C171  O20   S    
C178  C196  A    
C43   H168  S    
C230  O8    S    
C315  H196  S    
C281  C282  S    
C296  H148  S    
C141  O121  A    
C85   O171  A    
C314  H193  S    
C151  C195  S    
C306  H173  S    
C86   O172  A    
C228  C235  A    
C55   C91   A    
C359  H304  S    
C393  H388  S    
O134  Zn22  S    
C396  H398  S    
C209  C407  S    
C84   O170  A    
C165  C209  A    
C124  C216  A    
O155  Zn28  S    
C300  H160  S    
C327  H226  S    
C78   O112  A    
C389  O87   S    
C233  H469  S    
C365  H320  S    
C450  O84   S    
C363  C364  S    
C332  H239  S    
C10   C112  S    
C149  O134  A    
C59   C94   A    
C345  C347  S    
C113  H429  S    
O97   Zn20  S    
C54   C80   S    
C382  H361  S    
C282  H111  S    
C212  C226  A    
C180  O47   S    
C460  F60   S    
C325  H219  S    
C311  H187  S    
C304  H169  S    
O146  Zn5   S    
C30   C137  A    
C8    C418  S    
C162  C206  A    
C157  H433  S    
C343  O64   S    
C115  O34   S    
C348  H276  S    
C429  F23   S    
O119  Zn27  S    
C251  H33   S    
C31   C49   A    
C251  H34   S    
C117  C134  A    
C239  H5    S    
C145  O137  A    
C341  H260  S    
C305  O45   S    
C270  O28   S    
C327  H227  S    
C406  H421  S    
C461  F61   S    
C350  C351  S    
C87   F9    S    
C182  O49   S    
C332  H240  S    
C281  H108  S    
C385  O85   S    
C296  O41   S    
C415  F32   S    
C67   C103  A    
C307  C308  S    
C366  H321  S    
C167  C206  A    
O112  Zn18  S    
C384  H367  S    
C65   C77   S    
C396  C397  S    
C266  H73   S    
C383  H364  S    
C228  C401  A    
C236  H475  S    
C32   H57   S    
C453  O87   S    
C207  C390  S    
O4    Zn22  S    
C309  H182  S    
C241  O14   S    
O100  Zn30  S    
C113  C290  A    
C341  C342  S    
C223  O13   A    
C4    C431  S    
C350  H282  S    
C252  O19   S    
C337  O61   S    
O141  Zn15  S    
C184  C202  A    
C27   C133  A    
O148  Zn23  S    
C215  C379  A    
C331  C332  S    
C458  F58   S    
C347  H274  S    
C285  C286  S    
C432  O180  A    
O108  Zn11  S    
C237  H477  S    
C436  C438  S    
C427  C429  S    
C397  H400  S    
C166  O16   S    
C287  C288  S    
C308  H180  S    
C101  C214  A    
C277  H99   S    
C331  H238  S    
O159  Zn27  S    
C442  F7    S    
C175  O25   S    
C271  H84   S    
C13   C463  S    
C269  H80   S    
C404  H418  S    
C216  C390  A    
C21   H426  S    
C367  C369  S    
C424  O75   S    
C26   H470  S    
C97   C116  A    
O130  Zn14  S    
C37   C54   A    
C315  H195  S    
C324  H218  S    
C135  C312  A    
C232  H467  S    
C46   O100  A    
C211  C346  A    
O101  Zn29  S    
C256  H48   S    
C234  H473  S    
C273  H88   S    
C294  H143  S    
C387  H376  S    
C435  F63   S    
C83   O116  A    
C245  C247  S    
C22   C129  A    
C417  O69   S    
C322  H214  S    
C310  H184  S    
O79   Zn27  S    
O145  Zn6   S    
C419  F37   S    
C155  O154  A    
C288  H130  S    
C20   C127  A    
C413  O64   S    
C419  O71   S    
C250  H31   S    
C422  O73   S    
O118  Zn25  S    
O46   Zn7   S    
C142  O122  A    
C102  C120  A    
C248  C249  S    
C320  H208  S    
C385  C386  S    
C428  H444  S    
C339  O62   S    
C328  H230  S    
C172  O21   S    
C152  C196  S    
C360  H306  S    
O172  Zn8   S    
C381  H360  S    
C35   O99   A    
C369  H328  S    
C284  H118  S    
C174  O23   S    
C211  H257  S    
C260  H58   S    
C91   C108  A    
C101  C279  A    
C148  O135  A    
C451  F51   S    
C305  H170  S    
O136  Zn25  S    
C65   C100  A    
C392  C393  S    
C441  C444  S    
C292  C293  S    
C25   C42   A    
C160  C204  A    
C214  C368  A    
C380  H356  S    
O163  Zn5   S    
O164  Zn31  S    
C363  H315  S    
C232  O9    S    
C317  H200  S    
C190  H436  S    
C412  F29   S    
C33   C51   A    
C101  H428  S    
C167  O17   S    
C265  O26   S    
C19   C126  A    
C34   C52   A    
C315  H194  S    
C5    C57   S    
C165  O15   S    
C61   C73   S    
C447  C464  S    
C47   H201  S    
C250  C251  S    
C327  C328  S    
C226  C408  A    
C256  O21   S    
C320  C321  S    
C94   F16   S    
C267  C269  S    
C426  O77   S    
C146  H432  S    
C355  H296  S    
C445  O78   S    
C185  O52   S    
C395  H396  S    
C126  C127  S    
O168  Zn4   S    
C233  H471  S    
C29   H24   S    
C163  C207  A    
C232  C233  S    
O109  Zn15  S    
C173  C191  A    
C292  H137  S    
C40   H135  S    
C240  H6    S    
C278  H103  S    
C398  H403  S    
C26   C132  A    
C427  H443  S    
C410  O35   A    
C412  C464  S    
C53   C81   S    
C318  O52   S    
C160  C177  A    
C164  C182  A    
C303  O44   S    
C340  H256  S    
O165  Zn32  S    
C3    C413  S    
C71   O104  A    
C314  O50   S    
C416  O67   S    
C413  F30   S    
C35   O4    A    
C29   C136  A    
C213  C357  A    
O153  Zn30  S    
C222  C357  A    
C103  F25   S    
C16   C461  S    
C403  H414  S    
C243  H15   S    
C438  H454  S    
O6    Zn25  S    
C267  O27   S    
C270  C271  S    
C437  H453  S    
C306  H172  S    
C460  O94   S    
C365  C366  S    
C176  C194  A    
C105  O26   S    
C219  H335  S    
C18   C36   A    
C249  H29   S    
C90   C213  A    
C392  H386  S    
C156  O153  A    
C434  F62   S    
C380  H355  S    
C147  C290  S    
C318  H204  S    
C333  O60   S    
C261  H59   S    
C339  H254  S    
C217  C401  A    
C30   H35   S    
C95   F17   S    
O156  Zn1   S    
C404  H417  S    
C289  H132  S    
C80   O113  A    
C89   F11   S    
C329  C330  S    
C66   C102  A    
C3    C430  S    
C141  O133  A    
C403  C404  S    
C229  H423  S    
C405  H419  S    
C372  H337  S    
C362  H310  S    
O117  Zn24  S    
C86   O120  A    
C31   C138  A    
C455  F54   S    
C280  H106  S    
C367  O76   S    
C364  H316  S    
C313  H188  S    
C342  H263  S    
O163  Zn17  S    
O132  Zn20  S    
C254  C255  S    
C295  H147  S    
C441  H457  S    
C400  H408  S    
C445  F44   S    
C391  H384  S    
O96   Zn12  S    
C28   H13   S    
O160  Zn28  S    
C73   O106  A    
O178  Zn14  S    
O1    Zn4   S    
C19   H223  S    
C333  H242  S    
C16   C410  S    
O2    Zn3   S    
C396  H397  S    
C236  H474  S    
C25   H459  S    
C253  H39   S    
C307  O47   S    
C33   C140  A    
C14   C424  S    
C359  O72   S    
C402  H413  S    
C236  H476  S    
C157  C219  A    
C371  H333  S    
C342  H261  S    
C452  O86   S    
C264  H66   S    
C192  C199  A    
C242  H12   S    
C452  F52   S    
C341  H259  S    
C319  H205  S    
C9    C223  S    
C135  H431  S    
C453  F53   S    
C180  C197  A    
C22   H437  S    
C282  H110  S    
C377  H351  S    
C351  H283  S    
C17   C123  A    
C243  C244  S    
C361  O73   S    
C336  H245  S    
C39   C56   A    
O7    Zn26  S    
C440  C442  S    
C57   O6    A    
C423  C425  S    
C30   C48   A    
C403  H415  S    
C151  O139  A    
C447  O81   S    
C96   C115  A    
C270  H82   S    
C137  C138  S    
C352  O69   S    
C64   C70   S    
C231  H464  S    
C300  C302  S    
C79   H425  S    
C332  H241  S    
C445  C462  S    
C307  H175  S    
C339  C340  S    
C326  H222  S    
C428  F12   S    
C367  H326  S    
C382  H362  S    
C269  H78   S    
O119  Zn32  S    
C259  O22   S    
C285  O36   S    
C424  C426  S    
C179  C279  A    
C68   O7    A    
O141  Zn25  S    
C3    C448  S    
C365  O75   S    
C331  O59   S    
C393  H389  S    
C386  H374  S    
C297  H152  S    
C160  O9    S    
C458  C460  S    
C181  C198  A    
C27   C44   A    
C24   C462  S    
C210  C408  S    
C298  O42   S    
O141  Zn7   S    
C428  C430  S    
C349  H278  S    
C431  C434  S    
C201  C257  A    
C1    O173  A    
C224  C323  A    
C287  H127  S    
C274  H92   S    
C28   C45   A    
C9    C437  S    
C324  H217  S    
C214  H279  S    
C36   H90   S    
C432  O57   A    
C119  C137  A    
C319  H206  S    
C325  C326  S    
C249  H28   S    
C41   C59   A    
C54   C89   A    
C400  C402  S    
C147  O126  A    
C42   C60   A    
O115  Zn21  S    
C356  O71   S    
C430  F34   S    
C398  O92   S    
C373  H339  S    
C13   O184  A    
C446  O80   S    
C291  H133  S    
C395  H394  S    
C394  H392  S    
C7    C452  S    
C81   O167  A    
C45   C63   A    
C230  C231  S    
C255  H47   S    
C245  H20   S    
C9    C455  S    
C437  F2    S    
C362  H313  S    
C349  H280  S    
C425  F42   S    
C377  H352  S    
C384  H366  S    
O176  Zn11  S    
C354  O70   S    
C76   O110  A    
O180  Zn16  S    
C309  C310  S    
C304  H167  S    
C88   C106  A    
C293  H139  S    
C177  C195  A    
C77   O164  A    
C381  O83   S    
C56   C92   A    
C303  H165  S    
O183  Zn19  S    
C325  O55   S    
C356  H297  S    
C6    C416  S    
C308  H178  S    
C412  O63   S    
C329  H232  S    
O173  Zn9   S    
C275  H96   S    
C52   C82   S    
C7    C417  S    
C247  H22   S    
C32   C50   A    
C106  O27   S    
C331  H237  S    
C221  H357  S    
C156  C200  S    
C283  O34   S    
C329  H231  S    
C229  C246  A    
C278  H104  S    
C394  H393  S    
C108  O29   S    
C259  H53   S    
C176  O43   S    
C378  O82   S    
C53   C88   A    
C354  C355  S    
O138  Zn4   S    
C263  H64   S    
C402  H410  S    
C276  H97   S    
C158  C202  S    
C399  H406  S    
C278  C280  S    
C262  H62   S    
C144  O124  A    
C260  H55   S    
C259  C260  S    
C25   C131  A    
C75   O109  A    
C313  H189  S    
C371  H336  S    
C179  C221  A    
C3    C454  S    
C420  F38   S    
C376  C377  S    
C311  O49   S    
C98   C117  A    
C364  H318  S    
C264  H69   S    
C265  C266  S    
C69   C104  A    
C9    C419  S    
C217  H312  S    
C39   H124  S    
C242  H14   S    
C44   H179  S    
C117  O37   S    
C6    C46   S    
C187  C195  A    
C146  C323  A    
C158  O146  A    
C7    C35   S    
C330  H236  S    
C225  H379  S    
C428  C463  S    
C142  O132  A    
C289  H131  S    
C107  C126  A    
C63   C71   S    
C442  H458  S    
O57   Zn6   S    
C448  O82   S    
C205  C368  S    
C240  H8    S    
C248  H27   S    
C338  H251  S    
C83   O169  A    
C352  H287  S    
C12   C458  S    
C228  H412  S    
C11   C422  S    
C445  C447  S    
C361  C362  S    
C374  H343  S    
C389  H381  S    
C208  C401  S    
C71   O157  A    
O129  Zn18  S    
C350  O67   S    
C189  O56   S    
C365  H319  S    
C144  O129  A    
C405  O95   S    
C192  O59   S    
C104  F26   S    
C132  C133  S    
C298  H153  S    
C378  H354  S    
C227  H401  S    
C318  H203  S    
C321  H211  S    
C118  O38   S    
C283  H116  S    
C311  H186  S    
C410  O178  A    
C336  H247  S    
O110  Zn16  S    
C411  F28   S    
O158  Zn23  S    
C322  H215  S    
C411  O62   S    
C220  H346  S    
O127  Zn16  S    
C289  C291  S    
C414  O65   S    
C447  F47   S    
C418  O70   S    
C429  C464  S    
C110  O31   S    
O105  Zn11  S    
C108  C127  A    
C293  H140  S    
C373  H341  S    
C33   H68   S    
C237  C238  S    
C109  O30   S    
C90   C268  A    
C359  H303  S    
C337  H249  S    
C143  C301  S    
C415  O66   S    
C188  C194  A    
C234  O10   S    
C174  C208  A    
C319  H207  S    
C446  C463  S    
C375  H347  S    
C37   H101  S    
C78   O165  A    
C17   C34   A    
C233  H468  S    
C174  C192  A    
C204  C357  S    
C261  O23   S    
C14   C441  S    
C299  H155  S    
C388  H380  S    
C393  H391  S    
C1    C11   S    
C134  C136  S    
C41   H146  S    
C12   C443  S    
C418  F36   S    
O68   Zn5   S    
C213  H268  S    
C85   O118  A    
C387  C388  S    
C153  C197  S    
C456  O89   S    
C361  H309  S    
