data_mof_unit_49237.cif
_audit_creation_date              2012-12-10T19:29:34-0500
_audit_creation_method            fapswitch 2.2
_symmetry_space_group_name_H-M    P1
_symmetry_Int_Tables_number       1
_space_group_crystal_system       triclinic
_cell_length_a                    22.29576
_cell_length_b                    22.293926
_cell_length_c                    14.972159
_cell_angle_alpha                 89.997416
_cell_angle_beta                  89.993601
_cell_angle_gamma                 89.999559
_cell_volume                      7442.06165099

loop_
_atom_site_label
_atom_site_type_symbol
_atom_type_description
_atom_site_fract_x
_atom_site_fract_y
_atom_site_fract_z
_atom_type_partial_charge
C1    C     C_R   0.418822 0.918827 0.499993 0.892454
C2    C     C_1   0.663120 0.837093 0.499943 0.184349
C3    C     C_3   0.554109 0.148853 0.997337 -0.247392
C4    C     C_3   0.094199 0.372664 0.997400 -0.248602
C5    C     C_3   0.905802 0.627336 0.002600 -0.248601
C6    C     C_3   0.936784 0.354778 0.002640 -0.247340
C7    C     C_3   0.063216 0.645222 0.997360 -0.247355
C8    C     C_1   0.663118 0.162910 0.499937 0.184285
C9    C     C_1   0.336881 0.837091 0.500063 0.184287
C10   C     C_1   0.836894 0.662922 0.500053 0.184331
C11   C     C_1   0.163107 0.337079 0.499947 0.184331
C12   C     C_1   0.163105 0.662922 0.499930 0.184294
C13   C     C_1   0.836895 0.337077 0.500069 0.184292
C14   C     C_1   0.500016 0.000001 0.189984 0.295976
C15   C     C_1   0.499984 0.999999 0.810016 0.295976
C16   C     C_1   0.000016 0.500000 0.189984 0.295938
C17   C     C_R   0.581178 0.081173 0.500007 0.892453
C18   C     C_1   0.999983 0.500000 0.810015 0.295939
C19   C     C_3   0.478449 0.947319 0.970509 0.328438
C20   C     C_3   0.521551 0.052680 0.029491 0.328436
C21   C     C_3   0.534847 0.954995 0.029497 0.328464
C22   C     C_3   0.465153 0.045005 0.970503 0.328464
C23   C     C_3   0.975218 0.448761 0.970508 0.328412
C24   C     C_3   0.024782 0.551239 0.029492 0.328414
C25   C     C_3   0.031984 0.452917 0.029497 0.328435
C26   C     C_3   0.968016 0.547083 0.970503 0.328436
C27   C     C_3   0.702153 0.729939 0.545196 0.212772
C28   C     C_R   0.581178 0.918828 0.500009 0.892448
C29   C     C_3   0.297852 0.270066 0.454821 0.212774
C30   C     C_3   0.297876 0.729913 0.454888 0.212959
C31   C     C_3   0.702140 0.270072 0.545165 0.212964
C32   C     C_3   0.202130 0.229915 0.545189 0.212863
C33   C     C_3   0.797866 0.770081 0.454795 0.212864
C34   C     C_3   0.797878 0.229912 0.454846 0.212917
C35   C     C_3   0.202105 0.770103 0.545100 0.212913
C36   C     C_3   0.227881 0.200520 0.460610 0.337696
C37   C     C_3   0.772123 0.799485 0.539372 0.337693
C38   C     C_3   0.772109 0.200522 0.539419 0.337707
C39   C     C_R   0.418821 0.081172 0.499991 0.892446
C40   C     C_3   0.227904 0.799464 0.460524 0.337715
C41   C     C_3   0.727896 0.700535 0.460619 0.337624
C42   C     C_3   0.272101 0.299461 0.539399 0.337632
C43   C     C_3   0.272078 0.700553 0.539464 0.337732
C44   C     C_3   0.727909 0.299461 0.460592 0.337727
C45   C     C_1   0.374454 0.125433 0.500005 -0.150207
C46   C     C_1   0.625546 0.874567 0.499995 -0.150205
C47   C     C_1   0.625545 0.125434 0.499987 -0.150245
C48   C     C_1   0.374455 0.874566 0.500013 -0.150245
C49   C     C_1   0.874462 0.625441 0.500004 -0.150214
C50   C     C_R   0.918822 0.418826 0.499993 0.892456
C51   C     C_1   0.125539 0.374559 0.499996 -0.150215
C52   C     C_1   0.125538 0.625441 0.499985 -0.150245
C53   C     C_1   0.874463 0.374559 0.500015 -0.150245
C54   C     C_3   0.265189 0.237778 0.584974 0.341503
C55   C     C_3   0.734801 0.762213 0.415026 0.341510
C56   C     C_3   0.734826 0.237775 0.415034 0.341380
C57   C     C_3   0.265144 0.762255 0.584969 0.341386
C58   C     C_3   0.765217 0.737807 0.584965 0.341581
C59   C     C_3   0.234793 0.262203 0.415035 0.341581
C60   C     C_3   0.234838 0.737762 0.415020 0.341184
C61   C     C_R   0.081178 0.581174 0.500007 0.892456
C62   C     C_3   0.765193 0.262208 0.584977 0.341182
C63   C     C_3   0.291555 0.208166 0.500129 -0.163926
C64   C     C_3   0.708445 0.791834 0.499871 -0.163926
C65   C     C_3   0.708443 0.208169 0.499873 -0.163751
C66   C     C_3   0.291556 0.791832 0.500127 -0.163753
C67   C     C_3   0.791574 0.708186 0.500121 -0.163960
C68   C     C_3   0.208427 0.291815 0.499879 -0.163961
C69   C     C_3   0.208426 0.708185 0.499862 -0.163709
C70   C     C_3   0.791575 0.291814 0.500137 -0.163708
C71   C     C_3   0.443611 0.992325 0.029524 0.326880
C72   C     C_R   0.081178 0.418827 0.500009 0.892448
C73   C     C_3   0.556389 0.007675 0.970476 0.326881
C74   C     C_3   0.943244 0.495843 0.029526 0.326818
C75   C     C_3   0.056756 0.504157 0.970474 0.326818
C76   C     C_3   0.500008 0.000001 0.090045 -0.288669
C77   C     C_3   0.499992 0.999999 0.909955 -0.288670
C78   C     C_3   0.000009 0.500000 0.090045 -0.288680
C79   C     C_3   0.999991 0.500000 0.909955 -0.288680
C80   C     C_3   0.655940 0.027615 0.002576 -0.246403
C81   C     C_3   0.344060 0.972385 0.997424 -0.246395
C82   C     C_3   0.157350 0.517907 0.002563 -0.245900
C83   C     C_R   0.918822 0.581174 0.499990 0.892449
C84   C     C_3   0.842650 0.482093 0.997436 -0.245909
C85   C     C_3   0.149274 0.149573 0.395467 -0.233186
C86   C     C_3   0.850733 0.850437 0.604497 -0.233177
C87   C     C_3   0.850702 0.149574 0.604607 -0.232232
C88   C     C_3   0.149334 0.850387 0.395232 -0.232239
C89   C     C_3   0.649285 0.649582 0.395498 -0.233203
C90   C     C_3   0.350705 0.350406 0.604550 -0.233202
C91   C     C_3   0.350650 0.649630 0.604754 -0.232204
C92   C     C_3   0.649316 0.350407 0.395398 -0.232192
C93   C     C_3   0.748439 0.748325 0.263801 -0.245987
C94   C     C_1   0.336880 0.162907 0.500057 0.184348
C95   C     C_3   0.251536 0.251650 0.736200 -0.245988
C96   C     C_3   0.251400 0.748427 0.736183 -0.246901
C97   C     C_3   0.748521 0.251651 0.263820 -0.246873
C98   C     C_3   0.248443 0.248318 0.263811 -0.246752
C99   C     C_3   0.751575 0.751701 0.736188 -0.246726
C100  C     C_3   0.751506 0.248332 0.736193 -0.245419
C101  C     C_3   0.248578 0.751584 0.263803 -0.245430
C102  C     C_3   0.601891 0.878729 0.997396 -0.248858
C103  C     C_3   0.398109 0.121271 0.002604 -0.248860
C104  C     C_3   0.445891 0.851147 0.002663 -0.247407
H1    H     H_    0.648905 0.000212 0.063827 0.189384
H2    H     H_    0.840751 0.433747 0.980415 0.194563
H3    H     H_    0.851414 0.508913 0.936106 0.189208
H4    H     H_    0.797663 0.495099 0.022428 0.170842
H5    H     H_    0.139863 0.189518 0.353281 0.190868
H6    H     H_    0.119574 0.149271 0.454952 0.197455
H7    H     H_    0.138126 0.109336 0.355194 0.175726
H8    H     H_    0.880433 0.850714 0.545011 0.197456
H9    H     H_    0.860138 0.810507 0.646715 0.190879
H10   H     H_    0.861887 0.890688 0.644737 0.175728
H11   H     H_    0.860109 0.189523 0.646779 0.191029
H12   H     H_    0.654789 0.075960 0.019749 0.194467
H13   H     H_    0.880413 0.149262 0.545133 0.197190
H14   H     H_    0.861841 0.109341 0.644901 0.175830
H15   H     H_    0.119601 0.850718 0.454681 0.197196
H16   H     H_    0.139945 0.810425 0.353081 0.191029
H17   H     H_    0.138210 0.890606 0.354900 0.175829
H18   H     H_    0.639875 0.689516 0.353289 0.190737
H19   H     H_    0.619587 0.649299 0.454986 0.197421
H20   H     H_    0.638131 0.609335 0.355250 0.175763
H21   H     H_    0.380409 0.350699 0.545069 0.197419
H22   H     H_    0.360111 0.310466 0.646747 0.190735
H23   H     H_    0.701652 0.017512 0.977525 0.170886
H24   H     H_    0.361854 0.390647 0.644814 0.175762
H25   H     H_    0.360040 0.689594 0.646902 0.191097
H26   H     H_    0.380382 0.649298 0.545304 0.197198
H27   H     H_    0.361774 0.609412 0.645089 0.175825
H28   H     H_    0.619602 0.350710 0.454868 0.197192
H29   H     H_    0.639915 0.310462 0.353215 0.191104
H30   H     H_    0.638176 0.390643 0.355111 0.175827
H31   H     H_    0.659970 0.670509 0.612805 0.350612
H32   H     H_    0.340042 0.329502 0.387233 0.350618
H33   H     H_    0.340102 0.670449 0.387411 0.350323
H34   H     H_    0.345211 0.924040 0.980251 0.194465
H35   H     H_    0.659938 0.329514 0.612719 0.350323
H36   H     H_    0.159939 0.170480 0.612777 0.350646
H37   H     H_    0.840049 0.829510 0.387187 0.350650
H38   H     H_    0.840081 0.170469 0.387293 0.350316
H39   H     H_    0.159879 0.829568 0.612574 0.350322
H40   H     H_    0.748351 0.698989 0.274594 0.190818
H41   H     H_    0.795129 0.765465 0.260857 0.195661
H42   H     H_    0.727684 0.756759 0.197659 0.171943
H43   H     H_    0.204846 0.234510 0.739129 0.195659
H44   H     H_    0.251625 0.300987 0.725418 0.190819
H45   H     H_    0.351095 0.999788 0.936173 0.189384
H46   H     H_    0.272284 0.243209 0.802345 0.171943
H47   H     H_    0.251501 0.699086 0.725440 0.192268
H48   H     H_    0.204706 0.765564 0.739031 0.195484
H49   H     H_    0.272106 0.756888 0.802350 0.171763
H50   H     H_    0.795206 0.234494 0.260908 0.195473
H51   H     H_    0.748448 0.300987 0.274613 0.192265
H52   H     H_    0.727781 0.243230 0.197665 0.171763
H53   H     H_    0.248325 0.198980 0.274585 0.190688
H54   H     H_    0.295143 0.265432 0.260899 0.195834
H55   H     H_    0.227708 0.256775 0.197661 0.172050
H56   H     H_    0.298347 0.982487 0.022474 0.170887
H57   H     H_    0.704887 0.734556 0.739136 0.195822
H58   H     H_    0.751657 0.801036 0.725386 0.190677
H59   H     H_    0.772332 0.743275 0.802332 0.172042
H60   H     H_    0.751591 0.198995 0.725406 0.192270
H61   H     H_    0.704817 0.265478 0.739101 0.195394
H62   H     H_    0.772244 0.256762 0.802346 0.171800
H63   H     H_    0.295268 0.734438 0.260944 0.195394
H64   H     H_    0.248489 0.800925 0.274550 0.192266
H65   H     H_    0.227864 0.743130 0.197641 0.171796
H66   H     H_    0.643122 0.903951 0.980079 0.193207
H67   H     H_    0.148586 0.491087 0.063894 0.189207
H68   H     H_    0.574604 0.871016 0.936223 0.185539
H69   H     H_    0.616101 0.834137 0.022518 0.170042
H70   H     H_    0.425396 0.128984 0.063777 0.185539
H71   H     H_    0.356878 0.096049 0.019921 0.193208
H72   H     H_    0.383898 0.165863 0.977482 0.170042
H73   H     H_    0.425655 0.870955 0.063886 0.184813
H74   H     H_    0.488325 0.827979 0.019887 0.194913
H75   H     H_    0.414291 0.816604 0.977614 0.170254
H76   H     H_    0.511675 0.172021 0.980113 0.194913
H77   H     H_    0.574345 0.129045 0.936114 0.184813
H78   H     H_    0.159250 0.566253 0.019584 0.194562
H79   H     H_    0.585709 0.183395 0.022386 0.170257
H80   H     H_    0.136959 0.395252 0.980243 0.192819
H81   H     H_    0.066548 0.366743 0.936144 0.185721
H82   H     H_    0.105540 0.327240 0.022458 0.170245
H83   H     H_    0.933452 0.633257 0.063856 0.185721
H84   H     H_    0.863041 0.604748 0.019757 0.192818
H85   H     H_    0.894460 0.672759 0.977542 0.170245
H86   H     H_    0.917901 0.375787 0.063935 0.184608
H87   H     H_    0.977700 0.328981 0.019727 0.194832
H88   H     H_    0.903048 0.322302 0.977637 0.169928
H89   H     H_    0.202337 0.504901 0.977572 0.170843
H90   H     H_    0.022300 0.671019 0.980273 0.194832
H91   H     H_    0.082099 0.624213 0.936065 0.184608
H92   H     H_    0.096952 0.677698 0.022363 0.169925
N1    N     N_1   0.500020 0.000000 0.268010 -0.097282
N2    N     N_1   0.499980 0.000000 0.731990 -0.097282
N3    N     N_1   0.000020 0.500000 0.268010 -0.097280
N4    N     N_1   0.999980 0.500000 0.731990 -0.097280
O1    O     O_R   0.438390 0.938390 0.574460 -0.603638
O2    O     O_R   0.561600 0.061610 0.574480 -0.606484
O3    O     O_R   0.561600 0.938390 0.574480 -0.606790
O4    O     O_R   0.438400 0.061610 0.425520 -0.606788
O5    O     O_R   0.938400 0.438390 0.425520 -0.606587
O6    O     O_R   0.061600 0.561610 0.574480 -0.606587
O7    O     O_R   0.061600 0.438390 0.574480 -0.606728
O8    O     O_R   0.938400 0.561610 0.425520 -0.606729
O9    O     O_3   0.614418 0.014677 0.934105 -0.605738
O10   O     O_3   0.385582 0.985323 0.065895 -0.605736
O11   O     O_3   0.115108 0.507532 0.934102 -0.605733
O12   O     O_R   0.561610 0.061610 0.425540 -0.603637
O13   O     O_3   0.884892 0.492468 0.065897 -0.605735
O14   O     O_3   0.210029 0.146018 0.420704 -0.597605
O15   O     O_3   0.789978 0.853992 0.579260 -0.597601
O16   O     O_3   0.789952 0.146021 0.579346 -0.597356
O17   O     O_3   0.210075 0.853950 0.420540 -0.597354
O18   O     O_3   0.710040 0.646029 0.420729 -0.597464
O19   O     O_3   0.289952 0.353962 0.579306 -0.597463
O20   O     O_3   0.289908 0.646067 0.579448 -0.597450
O21   O     O_3   0.710065 0.353962 0.420665 -0.597449
O22   O     O_3   0.650891 0.711614 0.591506 -0.759103
O23   O     O_R   0.561610 0.938390 0.425540 -0.603325
O24   O     O_3   0.349120 0.288396 0.408528 -0.759107
O25   O     O_3   0.349169 0.711563 0.408675 -0.759676
O26   O     O_3   0.650864 0.288406 0.591433 -0.759678
O27   O     O_3   0.150862 0.211586 0.591482 -0.759255
O28   O     O_3   0.849128 0.788405 0.408485 -0.759253
O29   O     O_3   0.849154 0.211577 0.408579 -0.759614
O30   O     O_3   0.150813 0.788454 0.591312 -0.759613
O31   O     O_3   0.714892 0.779027 0.329116 -0.592790
O32   O     O_3   0.285089 0.220954 0.670886 -0.592790
O33   O     O_3   0.284992 0.779105 0.670891 -0.594172
O34   O     O_R   0.438390 0.061610 0.574460 -0.603324
O35   O     O_3   0.714945 0.220957 0.329114 -0.594177
O36   O     O_3   0.214896 0.279025 0.329121 -0.592851
O37   O     O_3   0.785124 0.720997 0.670878 -0.592859
O38   O     O_3   0.785075 0.279029 0.670895 -0.594051
O39   O     O_3   0.214986 0.720910 0.329099 -0.594051
O40   O     O_3   0.569925 0.908236 0.065864 -0.599787
O41   O     O_3   0.430075 0.091764 0.934136 -0.599786
O42   O     O_3   0.455482 0.893562 0.934168 -0.601129
O43   O     O_3   0.544518 0.106438 0.065832 -0.601129
O44   O     O_3   0.064085 0.404066 0.065861 -0.600015
O45   O     O_R   0.938390 0.438390 0.574460 -0.603534
O46   O     O_3   0.935915 0.595934 0.934139 -0.600016
O47   O     O_3   0.948949 0.396540 0.934161 -0.600780
O48   O     O_3   0.051051 0.603460 0.065838 -0.600780
O49   O     O_R   0.061610 0.561610 0.425540 -0.603535
O50   O     O_R   0.061610 0.438390 0.425540 -0.603388
O51   O     O_R   0.938390 0.561610 0.574460 -0.603388
O52   O     O_R   0.438400 0.938390 0.425520 -0.606483
Zn1   Zn    Zn3+2 0.500000 0.000000 0.599450 1.024479
Zn2   Zn    Zn3+2 0.500000 0.000000 0.400550 1.024479
Zn3   Zn    Zn3+2 1.000000 0.500000 0.599450 1.024473
Zn4   Zn    Zn3+2 1.000000 0.500000 0.400550 1.024472

loop_
_geom_bond_atom_site_label_1
_geom_bond_atom_site_label_2
_ccdc_geom_bond_type
C102  H66   S    
C20   O43   S    
C12   C69   S    
C29   C63   S    
C33   C55   S    
C40   C60   S    
C40   O17   S    
C101  O39   S    
C19   C71   S    
C59   O36   S    
C30   O25   S    
C5    O46   S    
C92   H29   S    
C33   O28   S    
C1    O1    A    
C41   O18   S    
C1    O52   A    
C41   C67   S    
C91   H26   S    
C10   C67   S    
C2    C46   T    
C102  H69   S    
C34   C56   S    
O45   Zn3   S    
C21   C76   S    
C28   C46   S    
H35   O26   S    
C32   C36   S    
C73   O9    S    
C92   O21   S    
C19   C21   S    
C24   C26   S    
C87   H13   S    
C85   H5    S    
C52   C61   S    
C6    H88   S    
C71   C76   S    
C29   C42   S    
C104  O42   S    
N3    Zn4   S    
C104  H75   S    
C91   H27   S    
C54   C63   S    
O6    Zn3   S    
C56   C65   S    
C97   O35   S    
C21   C73   S    
C84   H3    S    
C88   O17   S    
C62   C70   S    
C100  H62   S    
C97   H52   S    
C4    H82   S    
C91   O20   S    
C101  H63   S    
C44   C56   S    
C86   O15   S    
C41   C55   S    
C82   H89   S    
H33   O25   S    
C19   O42   S    
C36   O14   S    
C89   O18   S    
C99   H57   S    
C104  H73   S    
C104  H74   S    
C98   H54   S    
C18   C79   S    
C27   O22   S    
C30   C60   S    
C6    H87   S    
C84   H2    S    
C87   O16   S    
C38   C65   S    
C56   O35   S    
C101  H65   S    
C99   O37   S    
C88   H16   S    
C50   O45   A    
O12   Zn2   S    
C57   C66   S    
C87   H11   S    
C37   C58   S    
C61   O6    A    
C32   C68   S    
C36   C59   S    
H37   O28   S    
C23   C25   S    
C81   O10   S    
C8    C65   S    
C43   C69   S    
C81   H56   S    
C40   C66   S    
C39   O4    A    
C103  O41   S    
C24   C75   S    
C42   C68   S    
C31   C62   S    
C45   C94   T    
C32   C54   S    
C12   C52   T    
C2    C64   S    
C72   O7    A    
C13   C53   T    
C102  H68   S    
C81   H34   S    
C14   N1    T    
C50   C53   S    
C31   C44   S    
C25   C78   S    
C29   C59   S    
C6    O47   S    
C95   H43   S    
C95   O32   S    
C87   H14   S    
C85   H6    S    
C95   H46   S    
C15   N2    T    
C11   C68   S    
H38   O29   S    
C89   H19   S    
C96   H47   S    
C7    O48   S    
C103  H70   S    
C33   C37   S    
O3    Zn1   S    
C100  H61   S    
C25   C75   S    
C14   C76   S    
C4    H81   S    
C101  H64   S    
C86   H8    S    
C3    H76   S    
C54   O32   S    
C83   O8    A    
C55   O31   S    
C59   C68   S    
C99   H58   S    
O4    Zn2   S    
C27   C41   S    
O51   Zn3   S    
C96   H49   S    
C63   C94   S    
C32   O27   S    
C96   O33   S    
C71   O10   S    
C75   O11   S    
C55   C64   S    
C6    H86   S    
C103  H71   S    
C90   H22   S    
C93   H42   S    
C100  H60   S    
C60   O39   S    
C3    O43   S    
C97   H50   S    
C4    H80   S    
C7    H90   S    
C44   C70   S    
C100  O38   S    
C93   H40   S    
O34   Zn1   S    
C90   O19   S    
C30   C66   S    
C16   N3    T    
C3    H77   S    
C99   H59   S    
C5    H84   S    
N2    Zn1   S    
C88   H15   S    
C80   H23   S    
C20   C22   S    
N1    Zn2   S    
C42   O19   S    
C86   H9    S    
C74   O13   S    
C18   N4    T    
C30   C43   S    
C24   O48   S    
C34   O29   S    
C51   C72   S    
C5    H83   S    
C23   C74   S    
C7    H91   S    
C58   O37   S    
C13   C70   S    
C22   C71   S    
C98   H53   S    
C37   C64   S    
C84   O13   S    
C33   C67   S    
O52   Zn2   S    
C82   O11   S    
C25   O44   S    
C24   C78   S    
C31   C65   S    
H31   O22   S    
C34   C70   S    
C82   H67   S    
H36   O27   S    
C90   H24   S    
O50   Zn4   S    
C83   O51   A    
C34   C38   S    
C28   O3    A    
C36   C63   S    
C92   H30   S    
C95   H44   S    
C17   C47   S    
C22   C77   S    
C38   O16   S    
C88   H17   S    
C85   H7    S    
C27   C58   S    
C39   O34   A    
C57   O33   S    
C1    C48   S    
C91   H25   S    
C89   H20   S    
O7    Zn3   S    
C92   H28   S    
C82   H78   S    
C102  O40   S    
C26   C79   S    
C62   O38   S    
N4    Zn3   S    
C39   C45   S    
C86   H10   S    
C35   O30   S    
C72   O50   A    
C49   C83   S    
C35   C40   S    
C17   O12   A    
C5    H85   S    
C85   O14   S    
C9    C66   S    
O23   Zn2   S    
C93   O31   S    
C15   C77   S    
O5    Zn4   S    
C75   C79   S    
C60   C69   S    
C19   C77   S    
C28   O23   A    
C81   H45   S    
C80   H1    S    
C74   C78   S    
C103  H72   S    
C26   C74   S    
C90   H21   S    
C4    O44   S    
C20   C73   S    
C16   C78   S    
C20   C76   S    
C97   H51   S    
H39   O30   S    
C23   O47   S    
C17   O2    A    
C93   H41   S    
C8    C47   T    
C11   C51   T    
C27   C64   S    
C43   C57   S    
C29   O24   S    
O2    Zn1   S    
C50   O5    A    
C58   C67   S    
C84   H4    S    
C21   O40   S    
C98   O36   S    
C98   H55   S    
C35   C69   S    
C9    C48   T    
C61   O49   A    
C35   C57   S    
C89   H18   S    
C31   O26   S    
H32   O24   S    
O1    Zn1   S    
C73   C77   S    
C44   O21   S    
O8    Zn4   S    
C80   H12   S    
C23   C79   S    
C7    H92   S    
C10   C49   T    
C3    H79   S    
C37   O15   S    
C22   O41   S    
C42   C54   S    
O49   Zn4   S    
C26   O46   S    
C80   O9    S    
C38   C62   S    
C43   O20   S    
C96   H48   S    
