data_mof_unit_9931.cif
_audit_creation_date              2013-03-05T16:27:40-0500
_audit_creation_method            fapswitch 2.2
_symmetry_space_group_name_H-M    P1
_symmetry_Int_Tables_number       1
_space_group_crystal_system       triclinic
_cell_length_a                    25.934808
_cell_length_b                    26.051879
_cell_length_c                    22.168952
_cell_angle_alpha                 90.019483
_cell_angle_beta                  54.29683
_cell_angle_gamma                 89.981672
_cell_volume                      12163.2763199

loop_
_atom_site_label
_atom_site_type_symbol
_atom_site_description
_atom_site_fract_x
_atom_site_fract_y
_atom_site_fract_z
_atom_type_partial_charge
Zn1   Zn    Zn3+2 0.675940 0.706640 0.561420 1.007303
Zn2   Zn    Zn3+2 0.675940 0.293360 0.561420 1.025921
Zn3   Zn    Zn3+2 0.175940 0.206640 0.561420 1.011438
Zn4   Zn    Zn3+2 0.175940 0.793360 0.561420 1.042249
Zn5   Zn    Zn3+2 0.824100 0.706650 0.438580 1.028989
Zn6   Zn    Zn3+2 0.824100 0.293350 0.438580 1.024142
Zn7   Zn    Zn3+2 0.324100 0.206650 0.438580 1.014506
Zn8   Zn    Zn3+2 0.324100 0.793350 0.438580 1.019294
Zn9   Zn    Zn3+2 0.762700 0.793390 0.561410 0.983992
Zn10  Zn    Zn3+2 0.762700 0.206610 0.561410 0.982898
Zn11  Zn    Zn3+2 0.262700 0.293390 0.561410 0.991447
Zn12  Zn    Zn3+2 0.262700 0.706610 0.561410 0.978738
Zn13  Zn    Zn3+2 0.737340 0.793410 0.438590 0.984275
Zn14  Zn    Zn3+2 0.737340 0.206590 0.438590 0.982108
Zn15  Zn    Zn3+2 0.237340 0.293410 0.438590 0.995927
Zn16  Zn    Zn3+2 0.237340 0.706590 0.438590 0.977549
O1    O     O_3   0.750020 0.750020 0.500000 -0.516670
O2    O     O_3   0.750020 0.249980 0.500000 -0.512053
O3    O     O_3   0.250020 0.250020 0.500000 -0.513180
O4    O     O_3   0.250020 0.749980 0.500000 -0.517438
O5    O     O_R   0.801620 0.780400 0.336040 -0.624400
O6    O     O_R   0.801620 0.219600 0.336040 -0.639128
O7    O     O_R   0.301620 0.280400 0.336040 -0.618513
O8    O     O_R   0.301620 0.719600 0.336040 -0.660477
O9    O     O_R   0.637700 0.719640 0.663960 -0.643817
O10   O     O_R   0.637700 0.280360 0.663960 -0.627956
O11   O     O_R   0.137700 0.219640 0.663960 -0.649668
O12   O     O_R   0.137700 0.780360 0.663960 -0.607448
O13   O     O_R   0.801870 0.634220 0.457010 -0.605092
O14   O     O_R   0.801870 0.365780 0.457010 -0.620561
O15   O     O_R   0.301870 0.134220 0.457010 -0.618763
O16   O     O_R   0.301870 0.865780 0.457010 -0.617246
O17   O     O_R   0.758890 0.865820 0.542980 -0.608618
O18   O     O_R   0.758890 0.134180 0.542980 -0.608777
O19   O     O_R   0.258890 0.365820 0.542980 -0.606898
O20   O     O_R   0.258890 0.634180 0.542980 -0.617345
O21   O     O_R   0.887320 0.719660 0.457000 -0.610429
O22   O     O_R   0.887320 0.280340 0.457000 -0.641779
O23   O     O_R   0.387320 0.219660 0.457000 -0.640366
O24   O     O_R   0.387320 0.780340 0.457000 -0.637392
O25   O     O_R   0.655700 0.780400 0.457020 -0.635557
O26   O     O_R   0.655700 0.219600 0.457020 -0.647766
O27   O     O_R   0.155700 0.280400 0.457020 -0.636671
O28   O     O_R   0.155700 0.719600 0.457020 -0.626045
O29   O     O_R   0.844340 0.780370 0.542980 -0.605380
O30   O     O_R   0.844340 0.219630 0.542980 -0.643916
O31   O     O_R   0.344340 0.280370 0.542980 -0.648355
O32   O     O_R   0.344340 0.719630 0.542980 -0.646205
O33   O     O_R   0.612730 0.719670 0.543000 -0.638347
O34   O     O_R   0.612730 0.280330 0.543000 -0.634730
O35   O     O_R   0.112730 0.219670 0.543000 -0.639548
O36   O     O_R   0.112730 0.780330 0.543000 -0.607646
O37   O     O_R   0.698170 0.634220 0.542990 -0.593842
O38   O     O_R   0.698170 0.365780 0.542990 -0.591222
O39   O     O_R   0.198170 0.134220 0.542990 -0.590763
O40   O     O_R   0.198170 0.865780 0.542990 -0.586710
O41   O     O_R   0.741140 0.865830 0.457020 -0.646071
O42   O     O_R   0.741140 0.134170 0.457020 -0.641420
O43   O     O_R   0.241140 0.365830 0.457020 -0.652932
O44   O     O_R   0.241140 0.634170 0.457020 -0.617844
O45   O     O_R   0.862350 0.719680 0.336040 -0.634014
O46   O     O_R   0.862350 0.280320 0.336040 -0.632448
O47   O     O_R   0.362350 0.219680 0.336040 -0.644327
O48   O     O_R   0.362350 0.780320 0.336040 -0.618706
O49   O     O_R   0.698420 0.780360 0.663960 -0.639023
O50   O     O_R   0.698420 0.219640 0.663960 -0.650076
O51   O     O_R   0.198420 0.280360 0.663960 -0.622781
O52   O     O_R   0.198420 0.719640 0.663960 -0.652639
C1    C     C_R   0.849460 0.750074 0.301098 0.821124
C2    C     C_R   0.849437 0.249909 0.301103 0.840723
C3    C     C_R   0.349415 0.250014 0.301110 0.839810
C4    C     C_R   0.349406 0.749940 0.301065 0.818344
C5    C     C_R   0.650556 0.750048 0.698913 0.805590
C6    C     C_R   0.650603 0.250011 0.698912 0.814276
C7    C     C_R   0.150576 0.250018 0.698949 0.812943
C8    C     C_R   0.150609 0.750035 0.698904 0.808929
C9    C     C_R   0.750071 0.609832 0.500550 0.947856
C10   C     C_R   0.749999 0.390153 0.500479 0.954887
C11   C     C_R   0.250033 0.109839 0.500465 0.951010
C12   C     C_R   0.249993 0.890158 0.500463 0.931741
C13   C     C_R   0.749200 0.890245 0.500808 0.870364
C14   C     C_R   0.750854 0.109906 0.499450 0.868645
C15   C     C_R   0.250124 0.390057 0.500002 0.862809
C16   C     C_R   0.251975 0.610023 0.498535 0.862510
C17   C     C_R   0.890921 0.751165 0.498363 0.846303
C18   C     C_R   0.889522 0.250298 0.501052 0.933531
C19   C     C_R   0.389638 0.249573 0.500967 0.927362
C20   C     C_R   0.389561 0.750309 0.500983 0.931519
C21   C     C_R   0.609593 0.750405 0.500725 0.930455
C22   C     C_R   0.609391 0.249389 0.501081 0.924488
C23   C     C_R   0.109567 0.250466 0.500752 0.925014
C24   C     C_R   0.110343 0.750746 0.498963 0.877327
C25   C     C_R   0.557827 0.743208 0.436770 -0.107402
C26   C     C_R   0.554278 0.228948 0.444473 -0.240612
C27   C     C_R   0.057557 0.242068 0.437240 -0.105514
C28   C     C_R   0.044158 0.714209 0.463709 -0.149606
C29   C     C_R   0.552924 0.749623 0.502366 -0.252481
C30   C     C_R   0.551323 0.246526 0.505714 -0.194212
C31   C     C_R   0.052816 0.249979 0.502504 -0.251823
C32   C     C_R   0.058363 0.755492 0.491417 -0.286947
C33   C     C_R   0.491952 0.748745 0.570942 0.408610
C34   C     C_R   0.491189 0.257862 0.572380 0.414868
C35   C     C_R   0.991895 0.250607 0.571074 0.408456
C36   C     C_R   0.023248 0.801615 0.508028 0.415599
C37   C     C_R   0.437290 0.748278 0.571165 0.431405
C38   C     C_R   0.436663 0.258088 0.572279 0.411918
C39   C     C_R   0.937200 0.249967 0.571361 0.429874
C40   C     C_R   0.969240 0.802033 0.506945 0.434988
C41   C     C_R   0.444441 0.748911 0.502755 -0.265738
C42   C     C_R   0.443097 0.246824 0.505588 -0.149313
C43   C     C_R   0.944311 0.248771 0.502990 -0.265975
C44   C     C_R   0.950828 0.756240 0.489442 -0.296652
C45   C     C_R   0.504693 0.742444 0.437103 -0.154323
C46   C     C_R   0.501371 0.229520 0.444203 -0.208249
C47   C     C_R   0.004304 0.240609 0.437708 -0.147018
C48   C     C_R   0.992525 0.714878 0.460907 -0.146399
C49   C     C_3   0.537503 0.768145 0.363345 0.395470
C50   C     C_3   0.537797 0.244741 0.364168 0.408247
C51   C     C_3   0.036997 0.264899 0.363126 0.377601
C52   C     C_3   0.979291 0.658755 0.476730 0.448559
C53   C     C_3   0.596819 0.769114 0.362633 0.997812
C54   C     C_3   0.596735 0.244817 0.363958 1.056956
C55   C     C_3   0.096058 0.267540 0.362745 1.002382
C56   C     C_3   0.035276 0.657955 0.482126 1.051189
H1    H     H_    0.517427 0.806441 0.365717 0.075464
H2    H     H_    0.537187 0.215029 0.328620 0.055700
H3    H     H_    0.016548 0.302652 0.363974 0.078381
H4    H     H_    0.932026 0.649635 0.528486 0.029834
C57   C     C_3   0.461668 0.757954 0.955990 0.793670
C58   C     C_3   0.464528 0.264016 0.957810 0.783087
C59   C     C_3   0.974574 0.288494 0.956773 0.787851
C60   C     C_3   0.963152 0.744771 0.958025 0.788875
C61   C     C_3   0.554319 0.792132 0.957570 0.893396
C62   C     C_3   0.535143 0.194666 0.957391 0.870294
C63   C     C_3   0.071821 0.267814 0.957060 0.913855
C64   C     C_3   0.053361 0.703123 0.957136 0.865703
C65   C     C_3   0.518307 0.784428 0.043007 0.271713
C66   C     C_3   0.489793 0.195837 0.044424 0.251447
C67   C     C_3   0.031380 0.257717 0.042590 0.234130
C68   C     C_3   0.007934 0.703594 0.044173 0.256518
H5    H     H_    0.550635 0.764546 0.053536 0.140110
H6    H     H_    0.517291 0.183401 0.066210 0.110485
H7    H     H_    0.048642 0.220944 0.051149 0.137467
H8    H     H_    0.037516 0.704825 0.065788 0.116208
C69   C     C_1   0.388601 0.749831 0.221759 -0.164722
C70   C     C_1   0.389743 0.250652 0.221918 -0.175835
C71   C     C_1   0.888513 0.250087 0.221874 -0.188608
C72   C     C_1   0.889919 0.751042 0.221892 -0.179269
C73   C     C_3   0.533503 0.748380 0.926719 -0.322279
C74   C     C_3   0.535888 0.250056 0.926703 -0.378210
C75   C     C_3   0.032627 0.250094 0.926955 -0.326864
C76   C     C_3   0.036037 0.750376 0.926651 -0.379642
C77   C     C_3   0.421390 0.766072 0.043282 0.224022
C78   C     C_3   0.426665 0.271499 0.044840 0.246310
C79   C     C_3   0.938970 0.293801 0.043873 0.223297
C80   C     C_3   0.922634 0.753768 0.045017 0.236409
C81   C     C_3   0.460349 0.747593 0.073069 -0.310579
C82   C     C_3   0.466413 0.251888 0.073289 -0.305991
C83   C     C_3   0.959943 0.249483 0.073287 -0.294856
C84   C     C_3   0.966029 0.753332 0.073233 -0.304270
C85   C     C_3   0.485896 0.691165 0.043478 0.711027
C86   C     C_3   0.526811 0.287858 0.043058 0.643888
C87   C     C_3   0.953298 0.196039 0.043900 0.718425
C88   C     C_3   0.011491 0.802471 0.042907 0.651110
C89   C     C_3   0.539259 0.695056 0.956569 0.794640
C90   C     C_3   0.565243 0.289490 0.954233 0.848179
C91   C     C_3   0.006853 0.193998 0.956874 0.787372
C92   C     C_3   0.049635 0.801974 0.954078 0.844907
C93   C     C_1   0.420850 0.749041 0.154979 0.162742
C94   C     C_1   0.424253 0.251358 0.155175 0.175175
C95   C     C_1   0.920793 0.250001 0.155109 0.135952
C96   C     C_1   0.924235 0.752272 0.155145 0.176912
C97   C     C_1   0.576108 0.749557 0.844934 0.172302
C98   C     C_1   0.577024 0.249781 0.844918 0.217002
C99   C     C_1   0.075512 0.250358 0.845054 0.198847
C100  C     C_1   0.077118 0.750084 0.844886 0.222638
C101  C     C_1   0.610533 0.750142 0.778172 -0.184069
C102  C     C_1   0.610793 0.249900 0.778160 -0.147304
C103  C     C_1   0.110284 0.250412 0.778272 -0.154764
C104  C     C_1   0.110831 0.750076 0.778136 -0.142877
H9    H     H_    0.378143 0.741459 0.068845 0.114671
H10   H     H_    0.418457 0.313062 0.058144 0.069772
H11   H     H_    0.887049 0.289507 0.070158 0.119347
H12   H     H_    0.900611 0.792438 0.058232 0.065255
C105  C     C_R   0.712752 0.974342 0.483384 -0.216926
C106  C     C_R   0.716099 0.027090 0.480711 -0.241548
C107  C     C_R   0.227546 0.474501 0.468573 -0.195300
C108  C     C_R   0.231477 0.526290 0.465851 -0.210490
C109  C     C_R   0.744899 0.946116 0.506079 -0.197536
C110  C     C_R   0.748729 0.054250 0.502720 -0.191539
C111  C     C_R   0.252261 0.445628 0.499173 -0.227447
C112  C     C_R   0.256446 0.554550 0.495854 -0.241259
C113  C     C_R   0.770353 0.973088 0.538874 0.383845
C114  C     C_R   0.774961 0.026892 0.533876 0.408682
C115  C     C_R   0.281185 0.472706 0.528271 0.427251
C116  C     C_R   0.284189 0.526949 0.525448 0.437022
C117  C     C_3   0.717437 0.030664 0.411995 0.909315
C118  C     C_3   0.710042 0.971527 0.416980 0.867859
C119  C     C_3   0.204658 0.532636 0.422421 0.876293
C120  C     C_3   0.201014 0.472728 0.423027 0.848796
C121  C     C_R   0.805323 0.526365 0.452819 -0.139817
C122  C     C_R   0.805133 0.473435 0.452576 -0.151612
C123  C     C_R   0.305524 0.026413 0.453757 -0.159442
C124  C     C_R   0.305490 0.973493 0.453791 -0.150697
C125  C     C_R   0.750898 0.554069 0.505403 -0.277365
C126  C     C_R   0.750707 0.445893 0.505229 -0.273913
C127  C     C_R   0.250696 0.054087 0.505274 -0.276113
C128  C     C_R   0.250633 0.945908 0.505279 -0.280605
C129  C     C_R   0.698381 0.526900 0.564570 0.533899
C130  C     C_R   0.698303 0.473147 0.564505 0.543380
C131  C     C_R   0.197574 0.026902 0.563582 0.537869
C132  C     C_R   0.197529 0.973169 0.563556 0.542917
C133  C     C_3   0.846250 0.470586 0.369614 0.903269
C134  C     C_3   0.846969 0.529397 0.369921 0.913963
C135  C     C_3   0.348660 0.970457 0.370916 0.915193
C136  C     C_3   0.348642 0.029286 0.370847 0.921833
O53   O     O_3   0.485671 0.757183 0.636641 -0.586985
C137  C     C_3   0.479261 0.709932 0.671844 -0.214438
H13   H     H_    0.511591 0.710164 0.689288 0.194036
H14   H     H_    0.490774 0.675158 0.636601 0.143000
H15   H     H_    0.430292 0.706442 0.723062 0.152384
O54   O     O_3   0.484597 0.262883 0.638834 -0.600717
C138  C     C_3   0.486514 0.315224 0.654598 -0.182370
H16   H     H_    0.500091 0.342384 0.608578 0.137843
H17   H     H_    0.521348 0.319798 0.667973 0.214421
H18   H     H_    0.439839 0.326615 0.705163 0.150151
O55   O     O_3   0.985922 0.260696 0.636239 -0.593312
C139  C     C_3   0.978631 0.214343 0.673674 -0.221119
H19   H     H_    0.010067 0.215632 0.692352 0.191015
H20   H     H_    0.990739 0.178840 0.639595 0.147141
H21   H     H_    0.929240 0.211393 0.724244 0.161421
O56   O     O_3   0.036408 0.844557 0.533596 -0.544423
C140  C     C_3   0.086735 0.871927 0.472255 -0.158484
H22   H     H_    0.129988 0.847878 0.436938 0.108163
H23   H     H_    0.099672 0.904412 0.493362 0.210374
H24   H     H_    0.072186 0.888338 0.438115 0.131237
F1    F     F_    0.536995 0.839770 0.945409 -0.598639
F2    F     F_    0.511914 0.158365 0.932493 -0.653169
F3    F     F_    0.084141 0.320297 0.943026 -0.590356
F4    F     F_    0.044412 0.657014 0.932267 -0.654401
O57   O     O_3   0.497475 0.832680 0.080059 -0.492254
C141  C     C_3   0.539757 0.851495 0.095298 -0.244032
H25   H     H_    0.589483 0.852410 0.044544 0.165576
H26   H     H_    0.536563 0.828085 0.139301 0.158575
H27   H     H_    0.525979 0.891412 0.116119 0.169300
O58   O     O_3   0.436477 0.163264 0.071269 -0.479759
C142  C     C_3   0.446621 0.114438 0.090183 -0.122365
H28   H     H_    0.447376 0.117137 0.139708 0.099234
H29   H     H_    0.491298 0.096656 0.042870 0.154775
H30   H     H_    0.406672 0.088973 0.104581 0.205798
O59   O     O_3   0.037928 0.300000 0.078463 -0.511439
C143  C     C_3   0.056211 0.283663 0.124207 -0.217213
H31   H     H_    0.103836 0.265300 0.090872 0.149947
H32   H     H_    0.020869 0.256806 0.168013 0.182793
H33   H     H_    0.058945 0.317721 0.152269 0.181539
O60   O     O_3   0.968052 0.659501 0.071279 -0.477258
C144  C     C_3   0.995062 0.619540 0.087343 -0.158522
H34   H     H_    0.996888 0.630288 0.134584 0.095619
H35   H     H_    0.043351 0.609352 0.037935 0.170248
H36   H     H_    0.964648 0.584982 0.103872 0.189244
O61   O     O_3   0.531086 0.653757 0.920358 -0.589554
C145  C     C_3   0.587799 0.626884 0.868818 -0.168308
H37   H     H_    0.603938 0.604747 0.897770 0.170976
H38   H     H_    0.626022 0.652957 0.826883 0.179158
H39   H     H_    0.578200 0.599047 0.838630 0.178415
O62   O     O_3   0.582132 0.338526 0.917858 -0.582039
C146  C     C_3   0.535265 0.376196 0.939757 -0.208004
H40   H     H_    0.488151 0.367775 0.990106 0.169451
H41   H     H_    0.531943 0.383864 0.892926 0.230040
H42   H     H_    0.551423 0.412701 0.949282 0.161632
O63   O     O_3   0.980241 0.172889 0.921140 -0.598560
C147  C     C_3   0.017909 0.133969 0.869105 -0.147505
H43   H     H_    0.017906 0.098917 0.897609 0.177181
H44   H     H_    0.067300 0.147077 0.827019 0.191111
H45   H     H_    0.996976 0.123574 0.839144 0.164625
O64   O     O_3   0.050038 0.847735 0.917699 -0.575885
C148  C     C_3   0.992547 0.871085 0.939426 -0.203107
H46   H     H_    0.949567 0.855882 0.989869 0.163985
H47   H     H_    0.988220 0.869172 0.892580 0.231084
H48   H     H_    0.995136 0.912516 0.948743 0.160820
F5    F     F_    0.598612 0.692980 0.944212 -0.679484
F6    F     F_    0.625324 0.270466 0.926467 -0.568646
F7    F     F_    0.057102 0.164062 0.944104 -0.674655
F8    F     F_    0.113454 0.799514 0.926244 -0.565440
O65   O     O_3   0.436093 0.658787 0.054792 -0.583879
C149  C     C_3   0.388930 0.645278 0.129680 -0.260767
H49   H     H_    0.348704 0.672701 0.154724 0.146870
H50   H     H_    0.406164 0.642437 0.165093 0.193448
H51   H     H_    0.370000 0.606975 0.130277 0.182353
O66   O     O_3   0.506245 0.337699 0.075853 -0.676608
C150  C     C_3   0.556271 0.368705 0.064554 -0.172166
H52   H     H_    0.546326 0.409309 0.059743 0.148709
H53   H     H_    0.603914 0.358781 0.013783 0.226545
H54   H     H_    0.557702 0.366801 0.113493 0.168965
O67   O     O_3   0.892686 0.192139 0.055808 -0.588050
C151  C     C_3   0.840041 0.185656 0.130818 -0.228499
H55   H     H_    0.818358 0.223465 0.155939 0.177756
H56   H     H_    0.850866 0.165091 0.166016 0.171468
H57   H     H_    0.803572 0.162706 0.131751 0.185753
O68   O     O_3   0.974185 0.847945 0.075705 -0.679359
C152  C     C_3   0.010968 0.892133 0.064411 -0.180328
H58   H     H_    0.987925 0.926143 0.059525 0.143685
H59   H     H_    0.060682 0.890327 0.013686 0.230531
H60   H     H_    0.011445 0.899122 0.113393 0.161101
O69   O     O_3   0.436337 0.713778 0.942915 -0.617127
C153  C     C_3   0.457472 0.706805 0.868200 -0.203883
H61   H     H_    0.491445 0.674362 0.842862 0.210734
H62   H     H_    0.479926 0.740788 0.831639 0.160512
H63   H     H_    0.415977 0.696308 0.868307 0.159240
O70   O     O_3   0.463839 0.309803 0.922997 -0.676386
C154  C     C_3   0.402163 0.326286 0.948461 -0.364756
H64   H     H_    0.384381 0.354800 0.993719 0.156134
H65   H     H_    0.367266 0.294639 0.966981 0.218138
H66   H     H_    0.405446 0.346071 0.902042 0.197854
O71   O     O_3   0.929991 0.267856 0.944623 -0.615582
C155  C     C_3   0.949274 0.270211 0.870132 -0.192066
H67   H     H_    0.962329 0.231366 0.845050 0.193937
H68   H     H_    0.989255 0.296613 0.833076 0.154583
H69   H     H_    0.908265 0.283248 0.870724 0.178809
O72   O     O_3   0.947893 0.781772 0.923268 -0.678452
C156  C     C_3   0.883425 0.780934 0.949060 -0.351175
H70   H     H_    0.855888 0.809443 0.994290 0.150684
H71   H     H_    0.860705 0.742550 0.967721 0.222038
H72   H     H_    0.880962 0.792890 0.902791 0.202309
O73   O     O_3   0.512283 0.671432 0.080322 -0.621249
C157  C     C_3   0.533183 0.619787 0.061644 -0.157293
H73   H     H_    0.585835 0.618768 0.025201 0.203079
H74   H     H_    0.515044 0.598474 0.034167 0.182774
H75   H     H_    0.517256 0.598828 0.113342 0.155561
O74   O     O_3   0.568686 0.265317 0.058626 -0.566118
C158  C     C_3   0.545225 0.262731 0.134469 -0.213712
H76   H     H_    0.508757 0.291939 0.170530 0.177324
H77   H     H_    0.585520 0.268745 0.138381 0.199366
H78   H     H_    0.526123 0.223809 0.156550 0.140462
O75   O     O_3   0.962520 0.155568 0.080470 -0.622907
C159  C     C_3   0.953926 0.105736 0.061830 -0.188625
H79   H     H_    0.000766 0.086739 0.024714 0.207714
H80   H     H_    0.928625 0.104597 0.035133 0.186850
H81   H     H_    0.925885 0.082592 0.113405 0.137976
O76   O     O_3   0.058150 0.798057 0.058383 -0.558385
C160  C     C_3   0.034765 0.800494 0.134199 -0.258944
H82   H     H_    0.989418 0.821696 0.170293 0.171088
H83   H     H_    0.070504 0.820463 0.138063 0.182009
H84   H     H_    0.029477 0.761145 0.156246 0.153703
O77   O     O_3   0.798628 0.947111 0.566938 -0.589780
C161  C     C_3   0.756287 0.946888 0.645166 -0.166046
H85   H     H_    0.777226 0.923208 0.667394 0.190814
H86   H     H_    0.709799 0.929392 0.664619 0.138613
H87   H     H_    0.748963 0.986208 0.668422 0.170721
O78   O     O_3   0.806241 0.052182 0.558700 -0.588434
C162  C     C_3   0.871307 0.055188 0.499592 -0.196635
H88   H     H_    0.879008 0.076619 0.451514 0.141364
H89   H     H_    0.893158 0.016364 0.481721 0.167518
H90   H     H_    0.896104 0.076478 0.519037 0.184322
O79   O     O_3   0.303634 0.446913 0.563255 -0.562192
C163  C     C_3   0.367147 0.431424 0.510186 -0.192229
H91   H     H_    0.378550 0.422641 0.454339 0.123011
H92   H     H_    0.375869 0.395825 0.530399 0.185833
H93   H     H_    0.400109 0.461027 0.505223 0.169199
O80   O     O_3   0.313229 0.551872 0.553396 -0.560808
C164  C     C_3   0.374717 0.567560 0.493594 -0.225361
H94   H     H_    0.402516 0.576871 0.515684 0.187689
H95   H     H_    0.372750 0.602781 0.466863 0.162670
H96   H     H_    0.401041 0.537199 0.450597 0.123635
O81   O     O_3   0.378039 0.755814 0.637266 -0.573260
C165  C     C_3   0.351275 0.708209 0.672809 -0.194337
H97   H     H_    0.383708 0.674437 0.646836 0.110451
H98   H     H_    0.308403 0.700637 0.674441 0.205843
H99   H     H_    0.335114 0.711056 0.731334 0.164504
O82   O     O_3   0.376960 0.263868 0.638518 -0.583883
C166  C     C_3   0.361345 0.316514 0.655046 -0.188747
H100  H     H_    0.318203 0.324869 0.657551 0.215417
H101  H     H_    0.399346 0.343833 0.614980 0.107180
H102  H     H_    0.348580 0.324432 0.711358 0.158325
O83   O     O_3   0.878148 0.258919 0.637075 -0.578050
C167  C     C_3   0.850279 0.212052 0.674517 -0.182034
H103  H     H_    0.882341 0.177925 0.650842 0.105313
H104  H     H_    0.807963 0.204101 0.675158 0.207395
H105  H     H_    0.833114 0.216332 0.733262 0.180588
O84   O     O_3   0.932391 0.845996 0.529585 -0.546427
C168  C     C_3   0.942840 0.870801 0.466668 -0.181714
H106  H     H_    0.923670 0.910379 0.482705 0.213750
H107  H     H_    0.917385 0.850990 0.446893 0.139845
H108  H     H_    0.994121 0.873957 0.420157 0.096392
O85   O     O_3   0.665629 0.056695 0.417993 -0.647453
C169  C     C_3   0.613548 0.068338 0.491436 -0.293041
H109  H     H_    0.594663 0.033494 0.526962 0.193622
H110  H     H_    0.574793 0.084369 0.489730 0.193854
H111  H     H_    0.626540 0.098058 0.516244 0.166256
O86   O     O_3   0.649692 0.956811 0.434787 -0.669706
C170  C     C_3   0.634996 0.905418 0.458248 -0.160980
H112  H     H_    0.628721 0.899736 0.511813 0.136537
H113  H     H_    0.671016 0.878881 0.414610 0.248407
H114  H     H_    0.588947 0.895931 0.468153 0.205032
O87   O     O_3   0.143901 0.557764 0.460114 -0.580417
C171  C     C_3   0.105931 0.554832 0.538844 -0.110910
H115  H     H_    0.116415 0.587898 0.561645 0.147261
H116  H     H_    0.110921 0.518402 0.560928 0.119600
H117  H     H_    0.055363 0.556608 0.559967 0.239293
O88   O     O_3   0.136751 0.456240 0.461166 -0.675271
C172  C     C_3   0.129388 0.403035 0.473818 -0.145716
H118  H     H_    0.129682 0.393239 0.522288 0.136897
H119  H     H_    0.164754 0.380533 0.423565 0.248174
H120  H     H_    0.081986 0.392036 0.488635 0.196150
O89   O     O_3   0.779027 0.046460 0.350570 -0.632887
C173  C     C_3   0.777491 0.078138 0.299999 -0.226525
H121  H     H_    0.755315 0.115814 0.325680 0.222251
H122  H     H_    0.752498 0.059173 0.278936 0.143826
H123  H     H_    0.826992 0.085605 0.251648 0.160736
O90   O     O_3   0.762476 0.944233 0.356651 -0.609236
C174  C     C_3   0.763821 0.946614 0.291986 -0.260331
H124  H     H_    0.722905 0.966929 0.298835 0.162562
H125  H     H_    0.765211 0.906921 0.272980 0.170332
H126  H     H_    0.808109 0.966154 0.247413 0.183679
O91   O     O_3   0.252455 0.553359 0.351410 -0.654469
C175  C     C_3   0.227627 0.586264 0.323665 -0.117802
H127  H     H_    0.210430 0.622624 0.355934 0.252004
H128  H     H_    0.189359 0.567273 0.323373 0.193199
H129  H     H_    0.266266 0.596228 0.265430 0.117803
O92   O     O_3   0.244663 0.448460 0.353429 -0.606737
C176  C     C_3   0.228449 0.455886 0.303270 -0.277276
H130  H     H_    0.177504 0.465012 0.330056 0.183023
H131  H     H_    0.240025 0.420238 0.270426 0.165236
H132  H     H_    0.258521 0.486514 0.263110 0.191188
F9    F     F_    0.646212 0.551913 0.621030 -0.614459
F10   F     F_    0.646088 0.448225 0.620934 -0.607951
F11   F     F_    0.144774 0.051864 0.619083 -0.609816
F12   F     F_    0.144671 0.948288 0.618975 -0.591935
O93   O     O_3   0.905590 0.447691 0.343056 -0.621923
C177  C     C_3   0.932787 0.424875 0.272894 -0.146361
H133  H     H_    0.934101 0.451755 0.233066 0.141706
H134  H     H_    0.906724 0.389272 0.278366 0.205543
H135  H     H_    0.982437 0.413874 0.249604 0.165086
O94   O     O_3   0.906568 0.551030 0.344530 -0.590794
C178  C     C_3   0.937048 0.570677 0.272100 -0.126034
H136  H     H_    0.913663 0.606784 0.273139 0.202642
H137  H     H_    0.938166 0.542348 0.233831 0.120022
H138  H     H_    0.986883 0.580032 0.249925 0.174336
O95   O     O_3   0.407567 0.948140 0.347179 -0.620527
C179  C     C_3   0.438951 0.928090 0.274767 -0.164008
H139  H     H_    0.441353 0.956350 0.235628 0.145072
H140  H     H_    0.415458 0.892199 0.275372 0.216173
H141  H     H_    0.488358 0.918229 0.253952 0.151045
O96   O     O_3   0.407663 0.051502 0.346867 -0.618889
C180  C     C_3   0.437518 0.073828 0.276004 -0.197945
H142  H     H_    0.412824 0.109861 0.279694 0.208005
H143  H     H_    0.439804 0.046934 0.235544 0.141014
H144  H     H_    0.486943 0.083982 0.254736 0.161315
F13   F     F_    0.813615 0.449631 0.343068 -0.683729
F14   F     F_    0.815603 0.552031 0.342823 -0.675022
F15   F     F_    0.318345 0.948529 0.342060 -0.690780
F16   F     F_    0.318166 0.050995 0.342037 -0.680955
F17   F     F_    0.543613 0.735494 0.310248 -0.615995
F18   F     F_    0.521233 0.293319 0.355448 -0.640910
F19   F     F_    0.043688 0.230774 0.311106 -0.628180
F20   F     F_    0.991626 0.632653 0.415148 -0.578054
F21   F     F_    0.646146 0.737840 0.309324 -0.650837
F22   F     F_    0.621167 0.293673 0.355725 -0.619774
F23   F     F_    0.146377 0.236924 0.309698 -0.641462
F24   F     F_    0.085707 0.629842 0.425284 -0.613996
O97   O     O_3   0.615402 0.819113 0.367200 -0.684264
C181  C     C_3   0.652819 0.841390 0.295856 -0.314978
H145  H     H_    0.630363 0.838028 0.265896 0.161372
H146  H     H_    0.701073 0.824065 0.262443 0.204755
H147  H     H_    0.658080 0.882907 0.302033 0.184359
O98   O     O_3   0.645169 0.210181 0.311502 -0.632683
C182  C     C_3   0.632796 0.158156 0.333730 -0.377589
H148  H     H_    0.669544 0.134110 0.286554 0.201698
H149  H     H_    0.585866 0.145443 0.348443 0.156008
H150  H     H_    0.636383 0.151375 0.380581 0.230769
O99   O     O_3   0.113179 0.318234 0.366717 -0.675947
C183  C     C_3   0.147948 0.340792 0.295492 -0.311565
H151  H     H_    0.129840 0.330355 0.262247 0.157378
H152  H     H_    0.198866 0.330200 0.264610 0.197720
H153  H     H_    0.143655 0.383015 0.302292 0.179192
O100  O     O_3   0.020478 0.642802 0.552466 -0.649807
C184  C     C_3   0.976706 0.674537 0.613491 -0.474028
H154  H     H_    0.948652 0.650070 0.663692 0.220178
H155  H     H_    0.942361 0.695069 0.607709 0.145442
H156  H     H_    0.002783 0.702645 0.623903 0.204323
O101  O     O_3   0.405198 0.818890 0.061345 -0.483482
C185  C     C_3   0.340020 0.825476 0.118863 -0.219403
H157  H     H_    0.326262 0.805512 0.170481 0.143483
H158  H     H_    0.309898 0.811952 0.101484 0.115327
H159  H     H_    0.330575 0.867006 0.131704 0.206129
O102  O     O_3   0.367826 0.244319 0.081652 -0.477449
C186  C     C_3   0.315190 0.275980 0.131225 -0.200817
H160  H     H_    0.306986 0.304549 0.100608 0.110685
H161  H     H_    0.320822 0.295877 0.171398 0.145513
H162  H     H_    0.272203 0.251551 0.163625 0.238653
O103  O     O_3   0.953026 0.342207 0.061199 -0.495302
C187  C     C_3   0.897578 0.367461 0.119304 -0.197011
H163  H     H_    0.871837 0.344455 0.171135 0.158454
H164  H     H_    0.865430 0.376695 0.103028 0.132212
H165  H     H_    0.911578 0.404179 0.131298 0.194275
O104  O     O_3   0.875191 0.714748 0.082094 -0.490833
C188  C     C_3   0.813600 0.735420 0.131820 -0.153737
H166  H     H_    0.796951 0.754355 0.101298 0.122478
H167  H     H_    0.811305 0.762918 0.171658 0.139463
H168  H     H_    0.780360 0.703559 0.164613 0.232497
O105  O     O_3   0.458539 0.802935 0.921003 -0.553068
C189  C     C_3   0.397720 0.811768 0.936931 -0.132536
H169  H     H_    0.360692 0.783475 0.975366 0.139795
H170  H     H_    0.401884 0.811398 0.884203 0.152550
H171  H     H_    0.381168 0.850553 0.961672 0.197267
O106  O     O_3   0.435007 0.222703 0.945403 -0.500632
C190  C     C_3   0.454587 0.217155 0.871060 -0.120654
H172  H     H_    0.471737 0.252799 0.837385 0.161049
H173  H     H_    0.413356 0.203518 0.872546 0.166711
H174  H     H_    0.491925 0.187300 0.841980 0.182490
O107  O     O_3   0.998349 0.337435 0.921527 -0.549052
C191  C     C_3   0.950060 0.372865 0.938232 -0.136125
H175  H     H_    0.900718 0.358413 0.977499 0.142755
H176  H     H_    0.956576 0.384082 0.885915 0.143577
H177  H     H_    0.955391 0.408037 0.962354 0.197260
O108  O     O_3   0.949595 0.693866 0.945843 -0.494994
C192  C     C_3   0.971839 0.682673 0.871606 -0.150487
H178  H     H_    0.977004 0.716328 0.837839 0.156990
H179  H     H_    0.937397 0.656359 0.873327 0.160137
H180  H     H_    0.017842 0.662064 0.842476 0.185033
O109  O     O_3   0.620929 0.789000 0.924147 -0.621429
C193  C     C_3   0.655658 0.830830 0.876985 -0.167099
H181  H     H_    0.642716 0.867044 0.909326 0.175550
H182  H     H_    0.648767 0.834803 0.832202 0.183889
H183  H     H_    0.706909 0.823816 0.850038 0.166344
O110  O     O_3   0.596916 0.180535 0.936223 -0.601541
C194  C     C_3   0.626822 0.142813 0.879916 -0.126626
H184  H     H_    0.628248 0.153967 0.830605 0.165831
H185  H     H_    0.602945 0.105080 0.901850 0.167926
H186  H     H_    0.676604 0.138458 0.861436 0.163713
O111  O     O_3   0.129477 0.239068 0.921011 -0.609498
C195  C     C_3   0.179896 0.267553 0.911876 -0.143327
H187  H     H_    0.165746 0.287579 0.963669 0.167064
H188  H     H_    0.198487 0.295565 0.865766 0.195254
H189  H     H_    0.219045 0.240763 0.896549 0.170051
O112  O     O_3   0.117005 0.706974 0.935706 -0.600944
C196  C     C_3   0.159496 0.672067 0.879311 -0.119875
H190  H     H_    0.158374 0.674803 0.830093 0.167282
H191  H     H_    0.149210 0.632190 0.901204 0.168890
H192  H     H_    0.208426 0.681564 0.860666 0.158128

loop_
_geom_bond_atom_site_label_1
_geom_bond_atom_site_label_2
_geom_bond_distance
_ccdc_geom_bond_type
C170  H114  1.108931 S    
C31   C35   1.415655 A    
C61   C65   1.560649 S    
Zn5   O21   1.936914 S    
C174  H125  1.109106 S    
C59   C75   1.594215 S    
C138  H16   1.116611 S    
O23   C19   1.276272 A    
C64   C68   1.567760 S    
C138  H18   1.107122 S    
C152  H58   1.108675 S    
C196  H192  1.109256 S    
C63   C67   1.563272 S    
C124  C135  1.494735 S    
Zn8   O4    1.941886 S    
C117  O85   1.440068 S    
O92   C176  1.413014 S    
C171  H116  1.109665 S    
C78   C82   1.574844 S    
O42   C14   1.274657 A    
C27   C31   1.393922 A    
C190  H173  1.108987 S    
C35   O55   1.385116 S    
O63   C147  1.412929 S    
C32   C36   1.419969 A    
O46   C2    1.281492 A    
C194  H185  1.111536 S    
C37   O81   1.385132 S    
C119  O87   1.439388 S    
C81   C93   1.475450 S    
C189  H169  1.112358 S    
C57   O69   1.436198 S    
O34   C22   1.270550 A    
O111  C195  1.411796 S    
C71   C95   1.202212 T    
C147  H43   1.110647 S    
C141  H26   1.111995 S    
Zn3   O3    1.942036 S    
C157  H73   1.109229 S    
C142  H30   1.109068 S    
C7    C103  1.428141 S    
C158  H78   1.109431 S    
Zn16  O28   1.937680 S    
Zn5   O13   1.945801 S    
O28   C24   1.276307 A    
C167  H105  1.108988 S    
C65   O57   1.423963 S    
C85   O65   1.437171 S    
Zn10  O50   1.907460 S    
C67   C83   1.571781 S    
C119  C120  1.563216 S    
Zn4   O40   1.945548 S    
C113  O77   1.383921 S    
C62   F2    1.396446 S    
O11   C7    1.281232 A    
C139  H20   1.116813 S    
C139  H19   1.109638 S    
C52   F20   1.384934 S    
C164  H96   1.113517 S    
C189  H170  1.109401 S    
C141  H27   1.108636 S    
O74   C158  1.416975 S    
C88   C92   1.607154 S    
O76   C160  1.416680 S    
C192  H179  1.109038 S    
C159  H79   1.109220 S    
C86   O66   1.430166 S    
O106  C190  1.420560 S    
C30   C34   1.418761 A    
C163  H93   1.108331 S    
C155  H67   1.107975 S    
C106  C110  1.391731 A    
C169  H110  1.109145 S    
C135  C136  1.532628 S    
C66   O58   1.423682 S    
C9    C125  1.457824 S    
O16   C12   1.275840 A    
C119  O91   1.424650 S    
O79   C163  1.413353 S    
C6    C102  1.426669 S    
C85   O73   1.432563 S    
Zn16  O4    1.939342 S    
C117  O89   1.427301 S    
C191  H175  1.112405 S    
Zn12  O4    1.939458 S    
C157  H75   1.109204 S    
C52   H4    1.110998 S    
C153  H61   1.108021 S    
C84   C96   1.475078 S    
Zn13  O5    1.907370 S    
C186  H161  1.111197 S    
C80   O104  1.429630 S    
C13   C109  1.459210 S    
C20   C41   1.447012 S    
C26   C54   1.508701 S    
C151  H55   1.109189 S    
Zn6   O14   1.945174 S    
O47   C3    1.280676 A    
C185  H158  1.110978 S    
C64   F4    1.396363 S    
C168  H106  1.108961 S    
C60   C76   1.594949 S    
C173  H122  1.111574 S    
C169  H111  1.109768 S    
C112  C116  1.419909 A    
C136  O96   1.418314 S    
O68   C152  1.421284 S    
C34   O54   1.386573 S    
C152  H60   1.108143 S    
C149  H51   1.108908 S    
C25   C53   1.496857 S    
O108  C192  1.420485 S    
C145  H38   1.110654 S    
O83   C167  1.415343 S    
C179  H141  1.109224 S    
C51   C55   1.528388 S    
C185  H159  1.109003 S    
C136  F16   1.393451 S    
C107  C120  1.518558 S    
C175  H127  1.111219 S    
O24   C20   1.277834 A    
Zn11  O19   1.945445 S    
C184  H155  1.108583 S    
O81   C165  1.415502 S    
C149  H50   1.109585 S    
Zn5   O45   1.906697 S    
Zn10  O2    1.939458 S    
C147  H45   1.109103 S    
C75   C91   1.583099 S    
C39   O83   1.384798 S    
C181  H146  1.111746 S    
C58   O106  1.437468 S    
O102  C186  1.413943 S    
Zn9   O49   1.907925 S    
C121  C134  1.494517 S    
O75   C159  1.418849 S    
Zn4   O4    1.940781 S    
C195  H187  1.110350 S    
C113  C114  1.405729 A    
Zn7   O23   1.936914 S    
C28   C48   1.376372 A    
C35   C39   1.414886 A    
Zn8   O24   1.936779 S    
O26   C22   1.276109 A    
O89   C173  1.411490 S    
C139  H21   1.107948 S    
C85   C89   1.589241 S    
C91   F7    1.398318 S    
O84   C168  1.412830 S    
C178  H137  1.111811 S    
C194  H186  1.109128 S    
O25   C21   1.275978 A    
C176  H130  1.113020 S    
C129  F9    1.358009 S    
O29   C17   1.273140 A    
C162  H88   1.113394 S    
C79   O103  1.426241 S    
C17   C44   1.453284 S    
C172  H118  1.108847 S    
C162  H90   1.109352 S    
C19   C42   1.450380 S    
O93   C177  1.410205 S    
C187  H163  1.109329 S    
Zn12  O52   1.907460 S    
O22   C18   1.278722 A    
C155  H69   1.109101 S    
C87   O75   1.432760 S    
C150  H53   1.112125 S    
C40   O84   1.384199 S    
C161  H85   1.109329 S    
O61   C145  1.412905 S    
C146  H42   1.108172 S    
C79   H11   1.117841 S    
Zn13  O41   1.944941 S    
C4    C69   1.427721 S    
O50   C6    1.281309 A    
C191  H177  1.109369 S    
C49   F17   1.384121 S    
O57   C141  1.410497 S    
Zn16  O44   1.945149 S    
C66   C82   1.566963 S    
Zn2   O34   1.936751 S    
Zn3   O39   1.944921 S    
C151  H57   1.109050 S    
O91   C175  1.410685 S    
C58   C74   1.594592 S    
C168  H108  1.112795 S    
Zn6   O22   1.936779 S    
C106  C117  1.506285 S    
C125  C129  1.411601 A    
C140  H22   1.112658 S    
C42   C46   1.392070 A    
C114  O78   1.384281 S    
C54   F22   1.385839 S    
C148  H46   1.093435 S    
C156  H72   1.109007 S    
C127  C131  1.411808 A    
C180  H142  1.111965 S    
C61   F1    1.398594 S    
C159  H81   1.109019 S    
O80   C164  1.414513 S    
C167  H104  1.108820 S    
C129  C130  1.400349 A    
C177  H134  1.112067 S    
C160  H83   1.109063 S    
C33   C37   1.414799 A    
C79   C83   1.571033 S    
C175  H129  1.108473 S    
C124  C128  1.396154 A    
C80   C84   1.574696 S    
C73   C89   1.582991 S    
C183  H151  1.114267 S    
C120  O88   1.425854 S    
C82   C94   1.474597 S    
O53   C137  1.414679 S    
C118  O90   1.421090 S    
C48   C52   1.496241 S    
O5    C1    1.280943 A    
O96   C180  1.409587 S    
C188  H167  1.111271 S    
O31   C19   1.270080 A    
C180  H144  1.109168 S    
C57   C73   1.594580 S    
C140  H23   1.109445 S    
C126  C130  1.411489 A    
C161  H86   1.113973 S    
C195  H189  1.109137 S    
C166  H102  1.108164 S    
C133  F13   1.393606 S    
C163  H92   1.109297 S    
O101  C185  1.413023 S    
C135  F15   1.393118 S    
C58   C78   1.585249 S    
C165  H99   1.108915 S    
Zn7   O47   1.906697 S    
O90   C174  1.414871 S    
Zn8   O48   1.906309 S    
C143  H33   1.109276 S    
C45   C49   1.491034 S    
C12   C128  1.457085 S    
C56   F24   1.382058 S    
O98   C182  1.413835 S    
C176  H132  1.108171 S    
C47   C51   1.489266 S    
C154  H65   1.111036 S    
C59   O107  1.433607 S    
O51   C7    1.282128 A    
O107  C191  1.419572 S    
C25   C29   1.393836 A    
C44   C48   1.389648 A    
C172  H120  1.109174 S    
O8    C4    1.281142 A    
C137  H15   1.107913 S    
C58   O70   1.426735 S    
C27   C55   1.497088 S    
C170  H113  1.109430 S    
C37   C41   1.416499 A    
O58   C142  1.411355 S    
C39   C43   1.416372 A    
O88   C172  1.405109 S    
C87   O67   1.437644 S    
C146  H40   1.093391 S    
C138  H17   1.109512 S    
C105  C109  1.406570 A    
C145  H37   1.110575 S    
O52   C8    1.281585 A    
Zn1   O1    1.942036 S    
O40   C12   1.273026 A    
C65   C81   1.567345 S    
C108  C112  1.380730 A    
C144  H36   1.109191 S    
Zn14  O6    1.907834 S    
Zn3   O11   1.906216 S    
C18   C43   1.446970 S    
Zn15  O27   1.937966 S    
C63   F3    1.397456 S    
C68   C84   1.567321 S    
C57   C77   1.587753 S    
C181  H147  1.108624 S    
C28   C32   1.390579 A    
C60   C80   1.585113 S    
O9    C5    1.280805 A    
C135  O95   1.417677 S    
C117  C118  1.548571 S    
C140  H24   1.109683 S    
C111  C115  1.428723 A    
C193  H181  1.111418 S    
C92   O64   1.436184 S    
C109  C113  1.420638 A    
C134  O94   1.417360 S    
O13   C9    1.275749 A    
O64   C148  1.409312 S    
C147  H44   1.110635 S    
Zn4   O12   1.906603 S    
C148  H48   1.108259 S    
C186  H160  1.108465 S    
C121  C125  1.396594 A    
C143  H31   1.111128 S    
C157  H74   1.111330 S    
O18   C14   1.268451 A    
C23   C31   1.449578 S    
C49   H1    1.112159 S    
O6    C2    1.281104 A    
C51   H3    1.112189 S    
C152  H59   1.112119 S    
Zn9   O29   1.937724 S    
C165  H98   1.108929 S    
C60   O72   1.426773 S    
Zn11  O31   1.937724 S    
C183  H153  1.106963 S    
Zn12  O32   1.938010 S    
C145  H39   1.109063 S    
Zn13  O25   1.937966 S    
O94   C178  1.408718 S    
C80   H12   1.109535 S    
O59   C143  1.412711 S    
C133  C134  1.532307 S    
Zn15  O3    1.939759 S    
C164  H95   1.109654 S    
Zn11  O3    1.939042 S    
C83   C95   1.473678 S    
C161  H87   1.111923 S    
C84   C88   1.599173 S    
C15   C111  1.448520 S    
O43   C15   1.272575 A    
C192  H178  1.109280 S    
Zn5   O1    1.940632 S    
C26   C30   1.391721 A    
C166  H100  1.108895 S    
C179  H139  1.111816 S    
C155  H68   1.108952 S    
O66   C150  1.421257 S    
C165  H97   1.116715 S    
O35   C23   1.271907 A    
C86   C90   1.606888 S    
C191  H176  1.109337 S    
C153  H62   1.108952 S    
O32   C20   1.267970 A    
C61   O109  1.430327 S    
C83   C87   1.588476 S    
C62   O110  1.429816 S    
C98   C102  1.201866 T    
C151  H56   1.109333 S    
O71   C155  1.420254 S    
C174  H126  1.109440 S    
Zn9   O17   1.945445 S    
O100  C184  1.417250 S    
C76   C92   1.597188 S    
O82   C166  1.416137 S    
O78   C162  1.410685 S    
C142  H29   1.112728 S    
Zn14  O42   1.945149 S    
C69   C93   1.202671 T    
C153  H63   1.109112 S    
C75   C99   1.475370 S    
O7    C3    1.281176 A    
C123  C136  1.495181 S    
C190  H172  1.109347 S    
C171  H115  1.109853 S    
C159  H80   1.111306 S    
Zn2   O38   1.945548 S    
O67   C151  1.417128 S    
Zn3   O35   1.936616 S    
C181  H145  1.113294 S    
C190  H174  1.108503 S    
C115  C116  1.414706 A    
O97   C181  1.410532 S    
C40   C44   1.420607 A    
C175  H128  1.112486 S    
O37   C9    1.273431 A    
O95   C179  1.409408 S    
C10   C126  1.456826 S    
O65   C149  1.416592 S    
C89   F5    1.398288 S    
O39   C11   1.272941 A    
C131  C132  1.399855 A    
C115  O79   1.385319 S    
C130  F10   1.357994 S    
C141  H25   1.111801 S    
C57   O105  1.433675 S    
C177  H135  1.109250 S    
C77   O101  1.425848 S    
C64   O112  1.430076 S    
C195  H188  1.111493 S    
C66   H6    1.117473 S    
O36   C24   1.273182 A    
C196  H191  1.111480 S    
O12   C8    1.280347 A    
C81   C85   1.588024 S    
C36   C40   1.414888 A    
C143  H32   1.111168 S    
O85   C169  1.414178 S    
C118  O86   1.425452 S    
C65   H5    1.119785 S    
O70   C154  1.416736 S    
O19   C15   1.269368 A    
Zn15  O43   1.944941 S    
C68   H8    1.117293 S    
C91   O63   1.429847 S    
C8    C104  1.426380 S    
C192  H180  1.108507 S    
O87   C171  1.419832 S    
C162  H89   1.112850 S    
O86   C170  1.406334 S    
Zn13  O1    1.939759 S    
C156  H70   1.109244 S    
C187  H165  1.109194 S    
C137  H14   1.116838 S    
Zn6   O46   1.906309 S    
C59   C79   1.587090 S    
C169  H109  1.111185 S    
C107  C108  1.351795 A    
C158  H76   1.108732 S    
C146  H41   1.108908 S    
C105  C106  1.376066 A    
C86   O74   1.442421 S    
C63   C75   1.575983 S    
O56   C140  1.410989 S    
C25   C45   1.373866 A    
C186  H162  1.109050 S    
C122  C133  1.495327 S    
C77   C81   1.570782 S    
O73   C157  1.418678 S    
C182  H150  1.109721 S    
O69   C153  1.420209 S    
C174  H124  1.113873 S    
C168  H107  1.110063 S    
C1    C72   1.426331 S    
C173  H121  1.111484 S    
C2    C71   1.426367 S    
C133  O93   1.418605 S    
C64   C76   1.590185 S    
C78   O102  1.429548 S    
C116  O80   1.384702 S    
O38   C10   1.273008 A    
C189  H171  1.109315 S    
C131  F11   1.358039 S    
C123  C124  1.378661 A    
Zn2   O2    1.940781 S    
C121  C122  1.378948 A    
Zn14  O2    1.939342 S    
C171  H117  1.106599 S    
O99   C183  1.410956 S    
C56   O100  1.427152 S    
C26   C46   1.375722 A    
C170  H112  1.110449 S    
C160  H82   1.108803 S    
Zn4   O36   1.936751 S    
C184  H154  1.108998 S    
C88   O76   1.442138 S    
O21   C17   1.273851 A    
C183  H152  1.110447 S    
C144  H34   1.111384 S    
C184  H156  1.108733 S    
C55   O99   1.412439 S    
C50   C54   1.525856 S    
C149  H49   1.109146 S    
C11   C127  1.457239 S    
C36   O56   1.383799 S    
C194  H184  1.110784 S    
C50   F18   1.385730 S    
C70   C94   1.202098 T    
O49   C5    1.281925 A    
C188  H166  1.108488 S    
C180  H143  1.111941 S    
C49   C53   1.529410 S    
C177  H133  1.111968 S    
O104  C188  1.414416 S    
Zn1   O37   1.944921 S    
C72   C96   1.202345 T    
O55   C139  1.414356 S    
C179  H140  1.111991 S    
C166  H101  1.116224 S    
C173  H123  1.108653 S    
C59   O71   1.436095 S    
Zn10  O30   1.938010 S    
C38   O82   1.386511 S    
C16   C112  1.448196 S    
C68   O60   1.423467 S    
C53   O97   1.412985 S    
C105  C118  1.515939 S    
Zn12  O20   1.945237 S    
O109  C193  1.412161 S    
C107  C111  1.394408 A    
C128  C132  1.411484 A    
Zn14  O26   1.937680 S    
C178  H138  1.109160 S    
C5    C101  1.426886 S    
C150  H52   1.108546 S    
Zn15  O7    1.907370 S    
C120  O92   1.421995 S    
C53   F21   1.389635 S    
C176  H131  1.107693 S    
C14   C110  1.451252 S    
Zn1   O9    1.906216 S    
C67   H7    1.119463 S    
C172  H119  1.110218 S    
Zn11  O51   1.907925 S    
C63   O111  1.428132 S    
C90   O62   1.436286 S    
Zn6   O2    1.941886 S    
C74   C90   1.596838 S    
Zn7   O15   1.945801 S    
C28   C56   1.502767 S    
Zn8   O16   1.945174 S    
C150  H54   1.108128 S    
C61   C73   1.577729 S    
O112  C196  1.412418 S    
Zn2   O10   1.906603 S    
C27   C47   1.375607 A    
C82   C86   1.599075 S    
C92   F8    1.390015 S    
C99   C103  1.202836 T    
C55   F23   1.389126 S    
C108  C119  1.489898 S    
C156  H71   1.111037 S    
C196  H190  1.110671 S    
C123  C127  1.396196 A    
C185  H157  1.109619 S    
O27   C23   1.275465 A    
C21   C29   1.448918 S    
C144  H35   1.112249 S    
O14   C10   1.275722 A    
C87   C91   1.589454 S    
C100  C104  1.201700 T    
C182  H148  1.109192 S    
C97   C101  1.202329 T    
O103  C187  1.413107 S    
O60   C144  1.411486 S    
C132  F12   1.357993 S    
Zn10  O18   1.945237 S    
C134  F14   1.393063 S    
C158  H77   1.109066 S    
C46   C50   1.497378 S    
C193  H182  1.111501 S    
C51   F19   1.384208 S    
Zn9   O1    1.939042 S    
C74   C98   1.472357 S    
C60   O108  1.437409 S    
C148  H47   1.108882 S    
C89   O61   1.430065 S    
C90   F6    1.390080 S    
C167  H103  1.116746 S    
C24   C32   1.457291 S    
C38   C42   1.418302 A    
C160  H84   1.109391 S    
O45   C1    1.281127 A    
C62   C74   1.590858 S    
C182  H149  1.111045 S    
C67   O59   1.425425 S    
O41   C13   1.275572 A    
O33   C21   1.271047 A    
C193  H183  1.109066 S    
C62   C66   1.567891 S    
C142  H28   1.111654 S    
C54   O98   1.427585 S    
O15   C11   1.276009 A    
C41   C45   1.390555 A    
C164  H94   1.109291 S    
Zn7   O3    1.940632 S    
C188  H168  1.109059 S    
O72   C156  1.416725 S    
O44   C16   1.274311 A    
C137  H13   1.109573 S    
O17   C13   1.271467 A    
O20   C16   1.266863 A    
C78   H10   1.109540 S    
C163  H91   1.115804 S    
O10   C6    1.280775 A    
C187  H164  1.110975 S    
C34   C38   1.415434 A    
C73   C97   1.473421 S    
O48   C4    1.282122 A    
O54   C138  1.415608 S    
C77   H9    1.117660 S    
C88   O68   1.430338 S    
O62   C146  1.409381 S    
C110  C114  1.412928 A    
C178  H136  1.111961 S    
C76   C100  1.471994 S    
C33   O53   1.385290 S    
C3    C70   1.425908 S    
Zn16  O8    1.907834 S    
C122  C126  1.395680 A    
C154  H66   1.109058 S    
O110  C194  1.412153 S    
C43   C47   1.389947 A    
C50   H2    1.111123 S    
O77   C161  1.410933 S    
O105  C189  1.419592 S    
Zn1   O33   1.936616 S    
C22   C30   1.450396 S    
C29   C33   1.416472 A    
C52   C56   1.524993 S    
C154  H64   1.109222 S    
O30   C18   1.266973 A    
