data_mof_unit_26417.cif
_audit_creation_date              2012-12-10T18:50:45-0500
_audit_creation_method            fapswitch 2.2
_symmetry_space_group_name_H-M    P1
_symmetry_Int_Tables_number       1
_space_group_crystal_system       triclinic
_cell_length_a                    10.581654
_cell_length_b                    9.954415
_cell_length_c                    15.72601
_cell_angle_alpha                 90.472058
_cell_angle_beta                  91.85014
_cell_angle_gamma                 89.526995
_cell_volume                      1655.51366156

loop_
_atom_site_label
_atom_site_type_symbol
_atom_type_description
_atom_site_fract_x
_atom_site_fract_y
_atom_site_fract_z
_atom_type_partial_charge
C1    C     C_R   0.260703 0.500472 0.499539 0.881670
C2    C     C_3   0.622535 0.393251 0.950844 0.423585
C3    C     C_3   0.620079 0.390759 0.054085 0.392956
C4    C     C_1   0.507772 0.497398 0.825364 -0.036052
C5    C     C_1   0.503176 0.496911 0.174665 -0.061969
C6    C     C_1   0.501849 0.498195 0.249928 -0.224567
C7    C     C_R   0.062483 0.465042 0.425523 -0.197424
C8    C     C_R   0.069897 0.534792 0.574648 -0.197338
C9    C     C_R   0.932167 0.464152 0.425040 0.161816
C10   C     C_R   0.939900 0.530951 0.576880 0.158186
C11   C     C_R   0.872099 0.497641 0.501086 -0.025327
C12   C     C_R   0.128629 0.501305 0.499679 -0.087846
C13   C     C_R   0.583749 0.071935 0.552193 0.222645
C14   C     C_R   0.577169 0.928285 0.556587 0.223398
C15   C     C_R   0.500087 0.499494 0.338603 0.902175
C16   C     C_R   0.421919 0.928557 0.445676 -0.124208
C17   C     C_R   0.419761 0.071420 0.447120 -0.123405
C18   C     C_R   0.739254 0.499392 0.500448 0.888857
C19   C     C_R   0.500258 0.500430 0.661402 0.882363
C20   C     C_3   0.535720 0.646731 0.051146 0.341866
C21   C     C_3   0.368180 0.444296 0.042782 0.362662
C22   C     C_3   0.381505 0.438610 0.943861 -0.535677
C23   C     C_3   0.522150 0.638806 0.951663 -0.458431
C24   C     C_1   0.503946 0.500601 0.750128 -0.202925
C25   C     C_3   0.506678 0.494779 0.083056 0.131095
C26   C     C_3   0.511511 0.490869 0.917227 0.156061
H1    H     H_    0.435639 0.693062 0.929137 0.188300
H2    H     H_    0.307068 0.500680 0.910647 0.162677
H3    H     H_    0.359079 0.875179 0.401822 0.147185
H4    H     H_    0.355008 0.124793 0.404542 0.146829
H5    H     H_    0.361917 0.338115 0.916072 0.191020
H6    H     H_    0.599847 0.692102 0.920352 0.181357
H7    H     H_    0.112756 0.439395 0.368471 0.135258
H8    H     H_    0.125625 0.560581 0.631529 0.143498
N1    N     N_R   0.499970 0.857200 0.499980 -0.109380
N2    N     N_R   0.499970 0.142800 0.499980 -0.109142
O1    O     O_R   0.316750 0.614620 0.499990 -0.612177
O2    O     O_R   0.316750 0.385380 0.499990 -0.611243
O3    O     O_R   0.499990 0.614720 0.377140 -0.614309
O4    O     O_R   0.499990 0.385280 0.377140 -0.611412
O5    O     O_R   0.683220 0.614710 0.500000 -0.637785
O6    O     O_R   0.683220 0.385290 0.500000 -0.626258
O7    O     O_R   0.499980 0.614620 0.622860 -0.620365
O8    O     O_R   0.499980 0.385380 0.622860 -0.636409
Zn1   Zn    Zn3+2 0.499980 0.653120 0.500000 0.932212
Zn2   Zn    Zn3+2 0.499980 0.346880 0.500000 0.930101
C27   C     C_3   0.450298 0.759974 0.094071 -0.329993
C28   C     C_3   0.419731 0.884719 0.039999 -0.948161
H9    H     H_    0.503042 0.917801 0.004792 0.270525
H10   H     H_    0.339833 0.864629 0.994378 0.250165
H11   H     H_    0.390026 0.968622 0.082058 0.253351
H12   H     H_    0.364111 0.726703 0.122136 0.210387
H13   H     H_    0.497956 0.797172 0.153931 0.208559
C29   C     C_3   0.247882 0.536470 0.057658 -0.347776
C30   C     C_3   0.198229 0.546296 0.148846 -0.896521
H14   H     H_    0.158759 0.449489 0.169508 0.256267
H15   H     H_    0.270475 0.577635 0.196846 0.256128
H16   H     H_    0.120288 0.621612 0.149775 0.245067
H17   H     H_    0.255280 0.636012 0.027676 0.184163
H18   H     H_    0.166987 0.494004 0.019341 0.196017
C31   C     C_3   0.325108 0.302709 0.074058 -0.862013
H19   H     H_    0.220785 0.292378 0.075330 0.227835
H20   H     H_    0.346913 0.219485 0.029940 0.208864
H21   H     H_    0.360628 0.281265 0.139656 0.248261
C32   C     C_3   0.670796 0.702460 0.075045 -0.901167
H22   H     H_    0.673573 0.814123 0.075007 0.239542
H23   H     H_    0.702104 0.673390 0.140381 0.241894
H24   H     H_    0.742756 0.681646 0.028109 0.219943
C33   C     C_3   0.753615 0.422566 0.097781 -0.883314
H25   H     H_    0.745561 0.444224 0.166667 0.246831
H26   H     H_    0.821226 0.336952 0.093234 0.227695
H27   H     H_    0.810336 0.500766 0.069828 0.236989
C34   C     C_3   0.602291 0.244818 0.090663 -0.879442
H28   H     H_    0.531148 0.181890 0.059606 0.233697
H29   H     H_    0.687333 0.180118 0.082994 0.229306
H30   H     H_    0.584704 0.247607 0.159872 0.248341
C35   C     C_3   0.751140 0.440425 0.915111 -0.909577
H31   H     H_    0.831168 0.377688 0.939951 0.242379
H32   H     H_    0.751837 0.430195 0.844683 0.241175
H33   H     H_    0.772004 0.546618 0.927878 0.219774
C36   C     C_3   0.606801 0.249695 0.909834 -0.901354
H34   H     H_    0.517244 0.199891 0.924018 0.220326
H35   H     H_    0.609565 0.253035 0.839304 0.239254
H36   H     H_    0.685508 0.182232 0.931259 0.242364
C37   C     C_3   0.859110 0.430065 0.343716 -0.929936
H37   H     H_    0.922895 0.409647 0.290279 0.237450
H38   H     H_    0.801168 0.339182 0.352841 0.253806
H39   H     H_    0.796084 0.515468 0.325370 0.233285
C38   C     C_3   0.878905 0.559807 0.660742 -0.964920
H40   H     H_    0.775663 0.542288 0.658811 0.227453
H41   H     H_    0.920998 0.493047 0.710508 0.244489
H42   H     H_    0.896169 0.665888 0.679794 0.246501
C39   C     C_3   0.691055 0.143507 0.600350 -0.387735
C40   C     C_3   0.814393 0.133260 0.552144 -0.847064
H43   H     H_    0.850823 0.028574 0.550851 0.238494
H44   H     H_    0.799783 0.166396 0.485314 0.278382
H45   H     H_    0.887263 0.197836 0.583799 0.254723
H46   H     H_    0.706951 0.105298 0.665619 0.178025
H47   H     H_    0.669763 0.248401 0.613302 0.263252
C41   C     C_3   0.649061 0.856894 0.628590 -0.375368
C42   C     C_3   0.578447 0.867488 0.711992 -0.877386
H48   H     H_    0.575750 0.972445 0.736017 0.239205
H49   H     H_    0.479413 0.833030 0.702924 0.281492
H50   H     H_    0.626825 0.804083 0.761090 0.247387
H51   H     H_    0.667329 0.752102 0.614044 0.268871
H52   H     H_    0.746364 0.894555 0.638684 0.179689

loop_
_geom_bond_atom_site_label_1
_geom_bond_atom_site_label_2
_ccdc_geom_bond_type
C30   H14   S    
C11   C18   S    
C42   H48   S    
C33   H27   S    
C7    H7    S    
C34   H28   S    
C36   H34   S    
C29   H18   S    
C35   H31   S    
O4    Zn2   S    
C41   H51   S    
C39   C40   S    
C3    C33   S    
C18   O6    A    
C16   N1    A    
C5    C6    T    
C4    C24   T    
C35   H33   S    
C20   C25   S    
C31   H20   S    
O6    Zn2   S    
C23   C26   S    
C33   H26   S    
C9    C37   S    
C6    C15   S    
C28   H11   S    
C10   C38   S    
C19   O7    A    
C16   C17   A    
C32   H23   S    
N2    Zn2   S    
C17   N2    A    
C23   H1    S    
C38   H41   S    
C39   H47   S    
C21   C31   S    
C1    O1    A    
C27   H13   S    
C28   H10   S    
C42   H49   S    
C22   H2    S    
C21   C22   S    
C17   H4    S    
C34   H29   S    
C33   H25   S    
C1    C12   S    
C36   H35   S    
O8    Zn2   S    
C29   H17   S    
C35   H32   S    
C7    C12   A    
C22   H5    S    
C37   H38   S    
C20   C32   S    
C3    C25   S    
C13   N2    A    
C18   O5    A    
C14   N1    A    
C40   H45   S    
C16   H3    S    
C37   H37   S    
C13   C39   S    
C31   H21   S    
O7    Zn1   S    
C27   C28   S    
C20   C23   S    
C8    C12   A    
C32   H24   S    
C40   H43   S    
C2    C26   S    
C8    H8    S    
C38   H42   S    
C40   H44   S    
C9    C11   A    
C15   O3    A    
C1    O2    A    
C5    C25   S    
C28   H9    S    
C42   H50   S    
C30   H15   S    
C34   H30   S    
O1    Zn1   S    
N1    Zn1   S    
C36   H36   S    
C19   O8    A    
C37   H39   S    
C7    C9    A    
C21   C25   S    
C29   C30   S    
C4    C26   S    
C14   C41   S    
C27   H12   S    
C41   H52   S    
O3    Zn1   S    
C23   H6    S    
C2    C3    S    
C2    C35   S    
C21   C29   S    
C41   C42   S    
C19   C24   S    
C31   H19   S    
C3    C34   S    
C15   O4    A    
O2    Zn2   S    
C20   C27   S    
C10   C11   A    
C8    C10   A    
C32   H22   S    
C22   C26   S    
C30   H16   S    
O5    Zn1   S    
C2    C36   S    
C38   H40   S    
C13   C14   A    
C39   H46   S    
