data_mof_unit_49855.cif
_audit_creation_date              2012-12-10T18:52:11-0500
_audit_creation_method            fapswitch 2.2
_symmetry_space_group_name_H-M    P1
_symmetry_Int_Tables_number       1
_space_group_crystal_system       triclinic
_cell_length_a                    15.72318
_cell_length_b                    10.624374
_cell_length_c                    9.882583
_cell_angle_alpha                 90.598278
_cell_angle_beta                  90.596487
_cell_angle_gamma                 90.394001
_cell_volume                      1650.65532426

loop_
_atom_site_label
_atom_site_type_symbol
_atom_type_description
_atom_site_fract_x
_atom_site_fract_y
_atom_site_fract_z
_atom_type_partial_charge
C1    C     C_R   0.499804 0.260461 0.499353 1.037893
C2    C     C_R   0.500196 0.739539 0.500647 1.037893
C3    C     C_R   0.571593 0.935226 0.451093 0.324629
C4    C     C_R   0.428407 0.064774 0.548906 0.324629
C5    C     C_R   0.500434 0.871957 0.501702 -0.337378
C6    C     C_R   0.499566 0.128043 0.498298 -0.337378
C7    C     C_R   0.552621 0.578736 0.074230 -0.160126
C8    C     C_R   0.447378 0.421264 0.925770 -0.160126
C9    C     C_R   0.552790 0.578962 0.930860 0.446031
C10   C     C_R   0.447210 0.421038 0.069140 0.446030
C11   C     C_R   0.337988 0.500178 0.499348 0.943472
C12   C     C_R   0.662012 0.499822 0.500651 0.943471
C13   C     C_3   0.973685 0.420324 0.600185 -0.477778
C14   C     C_3   0.026315 0.579677 0.399815 -0.477778
C15   C     C_3   0.027785 0.384091 0.476058 0.470569
C16   C     C_3   0.972215 0.615909 0.523942 0.470568
C17   C     C_1   0.249151 0.501413 0.497980 -0.055052
C18   C     C_1   0.750848 0.498586 0.502020 -0.055052
C19   C     C_3   0.028991 0.540211 0.619847 0.471782
C20   C     C_3   0.971009 0.459789 0.380153 0.471782
C21   C     C_3   0.083092 0.502517 0.497528 -0.089887
C22   C     C_3   0.916908 0.497483 0.502472 -0.089888
C23   C     C_1   0.173910 0.502348 0.497407 0.141283
C24   C     C_1   0.826090 0.497652 0.502593 0.141283
C25   C     C_R   0.571147 0.065225 0.449332 0.310611
C26   C     C_R   0.428853 0.934775 0.550668 0.310611
H1    H     H_    0.949967 0.356687 0.679982 0.189635
H2    H     H_    0.050033 0.643313 0.320018 0.189635
H3    H     H_    0.594639 0.641618 0.130555 0.214454
H4    H     H_    0.405361 0.358381 0.869445 0.214454
N1    N     N_R   0.499980 0.499970 0.857200 -0.144818
N2    N     N_R   0.500020 0.500030 0.142800 -0.144817
O1    O     O_R   0.499990 0.316750 0.614620 -0.612856
O2    O     O_R   0.500010 0.683250 0.385380 -0.612855
O3    O     O_R   0.500000 0.316780 0.385290 -0.551093
O4    O     O_R   0.500000 0.683220 0.614710 -0.551093
O5    O     O_R   0.376780 0.499970 0.614640 -0.595862
O6    O     O_R   0.623220 0.500030 0.385360 -0.595862
O7    O     O_R   0.376780 0.500000 0.385310 -0.588003
O8    O     O_R   0.623220 0.500000 0.614690 -0.588003
Zn1   Zn    Zn3+2 0.500000 0.499980 0.653120 1.071671
Zn2   Zn    Zn3+2 0.500000 0.500020 0.346880 1.071671
O9    O     O_3   0.064711 0.266298 0.447562 -0.578906
C27   C     C_3   0.001323 0.172191 0.449890 -0.188036
H5    H     H_    0.947307 0.193372 0.380397 0.199466
H6    H     H_    0.978115 0.158044 0.554512 0.159220
H7    H     H_    0.029630 0.082491 0.414820 0.184517
O10   O     O_3   0.935288 0.733702 0.552438 -0.578907
C28   C     C_3   0.998678 0.827808 0.550110 -0.188039
H8    H     H_    0.021886 0.841955 0.445488 0.159221
H9    H     H_    0.052693 0.806627 0.619604 0.199466
H10   H     H_    0.970370 0.917509 0.585179 0.184517
O11   O     O_3   0.932945 0.415338 0.258750 -0.586938
C29   C     C_3   0.996063 0.399598 0.160100 -0.212525
H11   H     H_    0.046088 0.332984 0.193513 0.202407
H12   H     H_    0.025021 0.491436 0.132755 0.151617
H13   H     H_    0.965863 0.359064 0.067416 0.188628
O12   O     O_3   0.067055 0.584661 0.741250 -0.586938
C30   C     C_3   0.003937 0.600405 0.839899 -0.212528
H14   H     H_    0.974976 0.508569 0.867243 0.151618
H15   H     H_    0.953915 0.667023 0.806486 0.202409
H16   H     H_    0.034138 0.640936 0.932584 0.188627
Cl1   Cl    Cl    0.661074 0.149043 0.390533 -0.517590
Cl2   Cl    Cl    0.338927 0.850957 0.609467 -0.517590
Cl3   Cl    Cl    0.661966 0.852060 0.394042 -0.493538
Cl4   Cl    Cl    0.338034 0.147940 0.605957 -0.493538
Cl5   Cl    Cl    0.622335 0.682804 0.849797 -0.517496
Cl6   Cl    Cl    0.377665 0.317196 0.150203 -0.517496

loop_
_geom_bond_atom_site_label_1
_geom_bond_atom_site_label_2
_ccdc_geom_bond_type
C12   O8    A    
C4    C26   A    
O9    C27   S    
C9    Cl5   S    
C29   H12   S    
C7    C9    A    
C7    H3    S    
C10   Cl6   S    
O2    Zn2   S    
C27   H7    S    
C15   C21   S    
C3    C5    A    
C28   H10   S    
O1    Zn1   S    
C8    H4    S    
C2    O2    A    
C28   H9    S    
C21   C23   S    
C20   C22   S    
C15   O9    S    
C30   H14   S    
C17   C23   T    
O11   C29   S    
C4    Cl4   S    
C16   O10   S    
O4    Zn1   S    
C3    Cl3   S    
C16   C19   S    
C18   C24   T    
C14   C21   S    
C4    C6    A    
O10   C28   S    
C19   C21   S    
C27   H6    S    
C13   C22   S    
O6    Zn2   S    
O7    Zn2   S    
C22   C24   S    
C13   C15   S    
C19   O12   S    
C12   O6    A    
C15   C20   S    
C11   O7    A    
C14   C16   S    
C30   H15   S    
C6    C25   A    
C9    N1    A    
C1    O1    A    
C1    C6    S    
C2    C5    S    
C10   N2    A    
C3    C25   A    
C27   H5    S    
C1    O3    A    
C14   C20   S    
C8    C10   A    
C28   H8    S    
C25   Cl1   S    
C2    O4    A    
C11   O5    A    
O3    Zn2   S    
C26   Cl2   S    
C29   H11   S    
C11   C17   S    
C13   C19   S    
N2    Zn2   S    
C7    N2    A    
N1    Zn1   S    
C14   H2    S    
O12   C30   S    
C8    N1    A    
O5    Zn1   S    
O8    Zn1   S    
C13   H1    S    
C5    C26   A    
C16   C22   S    
C20   O11   S    
C30   H16   S    
C29   H13   S    
C12   C18   S    
