data_mof_unit_51847.cif
_audit_creation_date              2012-10-26T20:26:16-0400
_audit_creation_method            fapswitch 2.2
_symmetry_space_group_name_H-M    P1
_symmetry_Int_Tables_number       1
_space_group_crystal_system       triclinic
_cell_length_a                    19.313727
_cell_length_b                    15.905628
_cell_length_c                    14.629448
_cell_angle_alpha                 90.07574
_cell_angle_beta                  90.134107
_cell_angle_gamma                 90.284866
_cell_volume                      4494.05005552

loop_
_atom_site_label
_atom_site_type_symbol
_atom_type_description
_atom_site_fract_x
_atom_site_fract_y
_atom_site_fract_z
_atom_type_partial_charge
C1    C     C_R   0.500201 0.339636 0.499960 0.525671
C2    C     C_3   0.508911 0.972732 0.415229 0.153552
C3    C     C_3   0.499653 0.083991 0.501431 -0.011124
C4    C     C_3   0.499865 0.916076 0.500577 -0.011524
C5    C     C_1   0.499982 0.175235 0.500767 -0.065776
C6    C     C_1   0.499963 0.824814 0.500283 -0.057038
C7    C     C_3   0.534022 0.566738 0.969722 0.118519
C8    C     C_3   0.466703 0.432847 0.030078 0.129750
C9    C     C_3   0.468617 0.571288 0.030630 -0.167073
C10   C     C_3   0.532116 0.428276 0.969199 -0.141698
C11   C     C_3   0.565191 0.497725 0.030522 0.294028
C12   C     C_R   0.500114 0.660376 0.500065 0.535216
C13   C     C_3   0.435588 0.501785 0.969208 0.275505
C14   C     C_3   0.500188 0.500628 0.092026 -0.020257
C15   C     C_3   0.500630 0.498860 0.907852 -0.023227
C16   C     C_R   0.367314 0.500121 0.499905 0.582582
C17   C     C_R   0.632917 0.500496 0.500197 0.553620
C18   C     C_1   0.500138 0.500189 0.194330 0.165885
C19   C     C_1   0.500255 0.499535 0.805635 0.154387
C20   C     C_R   0.255654 0.441219 0.555299 0.212095
C21   C     C_R   0.744177 0.450371 0.433643 0.218073
C22   C     C_R   0.182943 0.442135 0.557961 0.097348
C23   C     C_3   0.551388 0.972655 0.554365 0.154090
C24   C     C_R   0.816922 0.450644 0.431204 0.097542
C25   C     C_R   0.146223 0.495522 0.498470 -0.008908
C26   C     C_R   0.854582 0.491765 0.500807 -0.020256
C27   C     C_R   0.182045 0.549566 0.438448 0.224504
C28   C     C_R   0.819722 0.533388 0.572175 0.253474
C29   C     C_R   0.254701 0.554029 0.441757 0.082794
C30   C     C_R   0.747328 0.539430 0.570354 0.091274
C31   C     C_R   0.291439 0.498891 0.499350 -0.028411
C32   C     C_R   0.709136 0.497423 0.501148 -0.056878
C33   C     C_R   0.930461 0.492869 0.498349 0.353269
C34   C     C_3   0.448078 0.027401 0.447730 0.151327
C35   C     C_R   0.070308 0.494634 0.498306 0.360662
C36   C     C_3   0.307609 0.313583 0.561167 -0.003095
C37   C     C_3   0.341887 0.250109 0.624059 -0.370691
C38   C     C_3   0.687964 0.329344 0.394880 -0.005665
C39   C     C_3   0.647628 0.285345 0.319099 -0.348488
C40   C     C_3   0.319864 0.526757 0.997132 -0.005589
C41   C     C_3   0.247162 0.507224 0.962762 -0.372296
C42   C     C_3   0.681153 0.481165 0.997901 -0.006198
C43   C     C_3   0.753895 0.495476 0.034953 -0.376196
C44   C     C_3   0.126419 0.433098 0.704465 -0.286039
C45   C     C_3   0.560457 0.028214 0.468979 0.154862
C46   C     C_3   0.871456 0.468742 0.284375 -0.283959
C47   C     C_3   0.130444 0.557880 0.299106 -0.011063
C48   C     C_3   0.091423 0.615431 0.234284 -0.367446
C49   C     C_3   0.877959 0.517097 0.706682 0.002001
C50   C     C_3   0.908504 0.564493 0.787713 -0.367342
C51   C     C_3   0.309994 0.690365 0.437377 -0.279557
C52   C     C_3   0.700370 0.558198 0.724089 -0.251846
C53   C     C_3   0.678425 0.001580 0.414083 -0.301734
C54   C     C_3   0.321105 0.997400 0.588967 -0.307350
C55   C     C_3   0.646528 0.000855 0.661987 -0.302498
C56   C     C_3   0.439005 0.971784 0.533135 0.152144
C57   C     C_3   0.352925 0.999296 0.340146 -0.305000
C58   C     C_3   0.531791 0.001654 0.253239 -0.305337
C59   C     C_3   0.468347 0.998861 0.749177 -0.305137
C60   C     C_3   0.597244 0.696585 0.003038 -0.300577
C61   C     C_3   0.404131 0.302432 0.996519 -0.291817
C62   C     C_1   0.500206 0.250421 0.500103 -0.051174
C63   C     C_1   0.500041 0.749613 0.500166 -0.034808
C64   C     C_3   0.490553 0.027375 0.586874 0.153202
Cu1   Cu    Cu3+1 0.500010 0.500000 0.590220 0.986687
Cu2   Cu    Cu3+1 0.499990 0.500000 0.409780 1.005466
H1    H     H_    0.443687 0.629877 0.054988 0.094244
H2    H     H_    0.680991 0.277607 0.257964 0.148534
H3    H     H_    0.630140 0.222431 0.342566 0.108360
H4    H     H_    0.601528 0.323020 0.300130 0.195389
H5    H     H_    0.324444 0.595874 0.007339 0.128173
H6    H     H_    0.327002 0.494327 0.063883 0.117685
H7    H     H_    0.240897 0.438399 0.952454 0.150197
H8    H     H_    0.208479 0.528817 0.013592 0.083876
H9    H     H_    0.237707 0.539914 0.896886 0.163206
H10   H     H_    0.673929 0.523098 0.937762 0.144888
H11   H     H_    0.676719 0.414451 0.975663 0.120024
H12   H     H_    0.557269 0.369798 0.944927 0.093598
H13   H     H_    0.763619 0.452982 0.093742 0.166596
H14   H     H_    0.792476 0.482358 0.980651 0.080840
H15   H     H_    0.760008 0.561743 0.057748 0.152972
H16   H     H_    0.169685 0.333256 0.634636 0.272571
H17   H     H_    0.173083 0.453462 0.743413 0.159740
H18   H     H_    0.095478 0.389730 0.747753 0.130073
H19   H     H_    0.094053 0.488757 0.688572 0.157373
H20   H     H_    0.828933 0.357798 0.332507 0.270025
H21   H     H_    0.824314 0.495427 0.252014 0.161306
H22   H     H_    0.901326 0.434272 0.231633 0.128197
H23   H     H_    0.344121 0.328217 0.504576 0.130174
H24   H     H_    0.904474 0.520668 0.311049 0.159523
H25   H     H_    0.097068 0.502090 0.313085 0.139498
H26   H     H_    0.178616 0.536725 0.264386 0.109998
H27   H     H_    0.123633 0.671429 0.217881 0.152406
H28   H     H_    0.079144 0.581284 0.169951 0.083588
H29   H     H_    0.042328 0.636224 0.266404 0.171198
H30   H     H_    0.918581 0.474816 0.679160 0.138682
H31   H     H_    0.834010 0.477995 0.731856 0.106310
H32   H     H_    0.868942 0.606686 0.817787 0.153745
H33   H     H_    0.925736 0.519206 0.840707 0.080425
H34   H     H_    0.260073 0.283891 0.531887 0.114652
H35   H     H_    0.953712 0.602615 0.765328 0.168949
H36   H     H_    0.268470 0.627795 0.325821 0.267183
H37   H     H_    0.262808 0.725232 0.458040 0.156576
H38   H     H_    0.341948 0.731440 0.392728 0.133313
H39   H     H_    0.340915 0.674947 0.499167 0.149875
H40   H     H_    0.675099 0.630215 0.608745 0.253477
H41   H     H_    0.733532 0.590017 0.775738 0.152982
H42   H     H_    0.710207 0.489393 0.726163 0.121012
H43   H     H_    0.645356 0.568626 0.742799 0.149206
H44   H     H_    0.642829 0.113614 0.470101 0.237405
H45   H     H_    0.305614 0.231417 0.679290 0.140543
H46   H     H_    0.720207 0.032734 0.374449 0.129410
H47   H     H_    0.657646 0.948662 0.372769 0.158587
H48   H     H_    0.701033 0.976571 0.478211 0.173001
H49   H     H_    0.356835 0.886122 0.531242 0.241366
H50   H     H_    0.277720 0.964748 0.623938 0.134446
H51   H     H_    0.300900 0.026666 0.525594 0.168976
H52   H     H_    0.341017 0.047136 0.635262 0.149222
H53   H     H_    0.593043 0.887561 0.647822 0.247420
H54   H     H_    0.693773 0.970587 0.689694 0.135773
H55   H     H_    0.615644 0.025112 0.720035 0.164405
H56   H     H_    0.356314 0.193450 0.584199 0.099156
H57   H     H_    0.662754 0.054224 0.618202 0.154058
H58   H     H_    0.406547 0.112503 0.354199 0.245650
H59   H     H_    0.305915 0.029734 0.311967 0.130717
H60   H     H_    0.336283 0.946245 0.384122 0.154771
H61   H     H_    0.383946 0.974607 0.282434 0.166745
H62   H     H_    0.549939 0.888502 0.320410 0.247504
H63   H     H_    0.526598 0.971469 0.185105 0.127227
H64   H     H_    0.585202 0.026831 0.260103 0.165389
H65   H     H_    0.494560 0.054375 0.256886 0.157750
H66   H     H_    0.449260 0.111539 0.681549 0.241862
H67   H     H_    0.389360 0.277746 0.655066 0.180662
H68   H     H_    0.473209 0.029502 0.817112 0.125964
H69   H     H_    0.506121 0.946709 0.745899 0.156815
H70   H     H_    0.415236 0.972763 0.742492 0.167354
H71   H     H_    0.544871 0.668873 0.882558 0.250593
H72   H     H_    0.628239 0.746679 0.969437 0.130188
H73   H     H_    0.631265 0.663369 0.052253 0.198406
H74   H     H_    0.553643 0.726240 0.040313 0.134805
H75   H     H_    0.393507 0.375215 0.114007 0.239836
H76   H     H_    0.381758 0.246233 0.030582 0.125698
H77   H     H_    0.446928 0.281403 0.951516 0.150583
H78   H     H_    0.654111 0.333018 0.456227 0.125641
H79   H     H_    0.363146 0.332520 0.954646 0.181748
H80   H     H_    0.734155 0.290632 0.411737 0.107487
N1    N     N_R   0.034515 0.567430 0.505777 -0.190078
N2    N     N_2   0.714403 0.593520 0.634647 -0.459021
N3    N     N_2   0.624940 0.062150 0.434104 -0.526403
N4    N     N_2   0.374665 0.937247 0.567867 -0.515296
N5    N     N_2   0.607028 0.939638 0.610184 -0.514382
N6    N     N_2   0.392484 0.060490 0.391890 -0.522240
N7    N     N_2   0.517884 0.940017 0.323552 -0.517822
N8    N     N_2   0.481617 0.060316 0.678463 -0.518278
N9    N     N_2   0.571137 0.638995 0.934520 -0.532742
N10   N     N_2   0.429715 0.360382 0.065020 -0.512555
N11   N     N_R   0.966246 0.420124 0.490259 -0.220868
N12   N     N_R   0.965674 0.566517 0.506228 -0.192315
N13   N     N_R   0.035093 0.420982 0.490466 -0.220769
N14   N     N_1   0.499980 0.500000 0.274190 -0.188896
N15   N     N_1   0.500020 0.500000 0.725810 -0.194299
N16   N     N_2   0.146638 0.390289 0.621461 -0.483457
N17   N     N_2   0.852336 0.411661 0.357088 -0.482381
N18   N     N_2   0.290946 0.614720 0.388131 -0.486876
O1    O     O_R   0.500010 0.379080 0.576170 -0.493811
O2    O     O_3   0.707721 0.410248 0.364503 -0.526723
O3    O     O_3   0.368260 0.499674 0.931527 -0.543625
O4    O     O_3   0.632765 0.498351 0.067467 -0.542179
O5    O     O_3   0.145981 0.602305 0.380385 -0.538256
O6    O     O_3   0.856280 0.575553 0.639865 -0.508811
O7    O     O_R   0.499990 0.620920 0.423830 -0.489157
O8    O     O_R   0.500000 0.379080 0.423800 -0.505667
O9    O     O_R   0.500000 0.620920 0.576200 -0.502795
O10   O     O_R   0.400150 0.499990 0.576210 -0.449241
O11   O     O_R   0.599850 0.500010 0.423790 -0.439468
O12   O     O_R   0.400140 0.499990 0.423840 -0.488282
O13   O     O_R   0.599860 0.500010 0.576160 -0.513346
O14   O     O_3   0.291636 0.386788 0.611599 -0.534221

loop_
_geom_bond_atom_site_label_1
_geom_bond_atom_site_label_2
_ccdc_geom_bond_type
C36   H23   S    
C55   H55   S    
C34   C56   S    
C8    C13   S    
C23   C45   S    
C48   H29   S    
C64   N8    S    
Cu1   O10   S    
C27   C29   A    
C39   H2    S    
C14   C18   S    
H44   N3    S    
C1    C62   S    
Cu2   N14   S    
C10   H12   S    
C54   N4    S    
C3    C64   S    
C53   H48   S    
C16   C31   S    
C15   C19   S    
C50   H33   S    
C48   H28   S    
Cu2   O8    S    
C36   C37   S    
C40   H5    S    
C24   C26   A    
C10   C15   S    
C57   H59   S    
C38   C39   S    
C22   N16   S    
C11   C14   S    
C13   O3    S    
C58   H63   S    
C51   H37   S    
C57   N6    S    
Cu1   O1    S    
C59   H70   S    
H40   N2    S    
H71   N9    S    
C38   O2    S    
C47   H26   S    
C59   H69   S    
C61   H79   S    
C38   H80   S    
C40   O3    S    
C9    C13   S    
C41   H8    S    
C61   H77   S    
C52   H41   S    
C53   H47   S    
C22   C25   A    
C54   H50   S    
H66   N8    S    
C56   C64   S    
C27   O5    S    
C51   H39   S    
C44   H17   S    
C7    C15   S    
H58   N6    S    
N11   N13   A    
C4    C56   S    
C53   N3    S    
C29   N18   S    
Cu2   O12   S    
C38   H78   S    
C29   C31   A    
C47   O5    S    
C59   N8    S    
C42   O4    S    
C7    C11   S    
C12   O7    A    
C46   H22   S    
C55   H54   S    
C2    C45   S    
H53   N5    S    
C21   C32   A    
C55   H57   S    
C50   H32   S    
C37   H45   S    
C48   H27   S    
Cu2   O7    S    
C36   O14   S    
C4    C6    S    
C57   H60   S    
C4    C23   S    
C34   N6    S    
C20   O14   S    
H16   N16   S    
C3    C34   S    
C3    C5    S    
C43   H14   S    
C49   H31   S    
C3    C45   S    
C21   O2    S    
C6    C63   T    
C2    C4    S    
C9    C14   S    
C9    H1    S    
C58   N7    S    
C41   H9    S    
C26   C33   S    
C47   C48   S    
C1    O1    A    
C58   H65   S    
C19   N15   T    
C39   H3    S    
C51   N18   S    
C36   H34   S    
C35   N1    A    
C30   N2    S    
H62   N7    S    
C60   H74   S    
C53   H46   S    
C28   O6    S    
C40   C41   S    
C25   C35   S    
Cu1   Cu2   S    
C2    N7    S    
C46   N17   S    
C13   C15   S    
C11   O4    S    
C43   H15   S    
C37   H67   S    
Cu2   O11   S    
C21   C24   A    
C24   N17   S    
C42   C43   S    
C56   N4    S    
C44   H19   S    
C61   N10   S    
C33   N12   A    
C46   H21   S    
C16   O10   A    
C7    C9    S    
C23   N5    S    
C23   C64   S    
C8    C14   S    
C40   H6    S    
Cu1   O9    S    
C2    C34   S    
C52   N2    S    
C47   H25   S    
C8    C10   S    
C20   C22   A    
C44   H18   S    
C57   H61   S    
H75   N10   S    
C55   N5    S    
C46   H24   S    
C25   C27   A    
C1    O8    A    
C26   C28   A    
C54   H52   S    
C51   H38   S    
C60   N9    S    
C44   N16   S    
C30   C32   A    
C16   O12   A    
C49   O6    S    
Cu1   O13   S    
C52   H43   S    
C58   H64   S    
H49   N4    S    
C28   C30   A    
C39   H4    S    
C42   H10   S    
C5    C62   T    
C45   N3    S    
C49   H30   S    
C8    N10   S    
C35   N13   A    
C33   N11   A    
C18   N14   T    
C10   C11   S    
C60   H73   S    
C41   H7    S    
C37   H56   S    
C61   H76   S    
C7    N9    S    
C52   H42   S    
C50   H35   S    
H36   N18   S    
C49   C50   S    
C54   H51   S    
Cu1   N15   S    
C17   C32   S    
C42   H11   S    
C17   O13   A    
H20   N17   S    
C12   C63   S    
N1    N12   A    
C43   H13   S    
C17   O11   A    
C60   H72   S    
C12   O9    A    
C59   H68   S    
C20   C31   A    
