data_mof_unit_40631.cif
_audit_creation_date              2012-12-10T16:50:09-0500
_audit_creation_method            fapswitch 2.2
_symmetry_space_group_name_H-M    P1
_symmetry_Int_Tables_number       1
_space_group_crystal_system       triclinic
_cell_length_a                    7.929729
_cell_length_b                    8.575496
_cell_length_c                    10.706767
_cell_angle_alpha                 93.237404
_cell_angle_beta                  83.831612
_cell_angle_gamma                 93.432552
_cell_volume                      721.641739639

loop_
_atom_site_label
_atom_site_type_symbol
_atom_type_description
_atom_site_fract_x
_atom_site_fract_y
_atom_site_fract_z
_atom_type_partial_charge
C1    C     C_R   0.544915 0.794021 0.496883 0.972631
C2    C     C_R   0.455078 0.205911 0.502366 0.949833
C3    C     C_R   0.502733 0.510529 0.261034 0.879136
C4    C     C_R   0.175681 0.541371 0.915559 -0.163227
C5    C     C_R   0.059809 0.636699 0.984295 -0.218462
C6    C     C_R   0.102702 0.715231 0.094364 0.483675
C7    C     C_R   0.251920 0.681429 0.143704 -0.237964
C8    C     C_R   0.366053 0.578344 0.076645 0.025056
C9    C     C_R   0.340598 0.529692 0.953330 0.097849
C10   C     C_R   0.483748 0.477343 0.873672 -0.085153
C11   C     C_R   0.629620 0.437274 0.923898 -0.195709
C12   C     C_R   0.637564 0.453576 0.051092 -0.186303
C13   C     C_R   0.505901 0.522384 0.127926 -0.032363
C14   C     C_2   0.568311 0.957609 0.495994 -0.280158
C15   C     C_2   0.431737 0.042181 0.501542 -0.349818
C16   C     C_R   0.495434 0.489829 0.739493 0.861009
H1    H     H_    0.737745 0.392723 0.864954 0.178103
H2    H     H_    0.871473 0.259904 0.235145 0.347739
H3    H     H_    0.119626 0.900418 0.717576 0.374111
H4    H     H_    0.131586 0.476624 0.834922 0.197870
H5    H     H_    0.939333 0.653328 0.949346 0.209243
H6    H     H_    0.800932 0.009837 0.095039 0.381763
H7    H     H_    0.281518 0.740167 0.231441 0.191479
H8    H     H_    0.747198 0.412490 0.088847 0.163129
H9    H     H_    0.697599 0.007975 0.492054 0.267988
H10   H     H_    0.302499 0.991732 0.505083 0.252199
N1    N     N_2   0.950330 0.457950 0.466250 0.077592
N2    N     N_2   0.049670 0.542050 0.533750 0.095689
O1    O     O_R   0.389250 0.738570 0.508280 -0.588912
O2    O     O_2   0.836199 0.721035 0.685511 -0.308938
O3    O     O_3   0.151201 0.793387 0.688310 -0.539512
O4    O     O_2   0.817732 0.778985 0.236650 -0.325055
O5    O     O_2   0.067697 0.957355 0.258602 -0.189637
O6    O     O_3   0.910510 0.969082 0.058012 -0.556627
O7    O     O_2   0.164104 0.277240 0.317706 -0.271918
O8    O     O_2   0.009474 0.167185 0.507284 -0.260668
O9    O     O_3   0.848448 0.205344 0.314731 -0.488248
O10   O     O_R   0.678390 0.711630 0.486650 -0.520368
O11   O     O_R   0.355400 0.513470 0.694050 -0.623362
O12   O     O_R   0.644540 0.486530 0.672420 -0.593639
O13   O     O_R   0.321610 0.288370 0.513350 -0.563769
O14   O     O_R   0.610750 0.261430 0.491720 -0.582566
O15   O     O_R   0.355460 0.513470 0.327580 -0.607165
O16   O     O_R   0.644600 0.486530 0.305950 -0.614453
O17   O     O_2   0.989011 0.834211 0.496793 -0.231027
S1    S     S_3+6 0.998051 0.724282 0.599669 0.134133
S2    S     S_3+6 0.971498 0.857661 0.167727 0.050967
S3    S     S_3+6 0.001536 0.275496 0.402899 0.171711
Zn1   Zn    Zn3+2 0.306930 0.517990 0.514440 1.117127
Zn2   Zn    Zn3+2 0.693070 0.482010 0.485560 1.134988

loop_
_geom_bond_atom_site_label_1
_geom_bond_atom_site_label_2
_ccdc_geom_bond_type
N1    S3    S    
C8    C9    A    
C11   C12   A    
C16   O12   A    
C8    C13   A    
O10   Zn2   S    
N2    Zn1   S    
C12   H8    S    
C3    C13   S    
N1    Zn2   S    
N2    S1    S    
H3    O3    S    
O6    S2    S    
O5    S2    D    
C1    O1    A    
C7    C8    A    
O1    Zn1   S    
O17   S1    D    
O9    S3    S    
C2    C15   S    
C3    O15   A    
C6    C7    A    
C1    O10   A    
C2    O14   A    
O12   Zn2   S    
O7    S3    D    
O13   Zn1   S    
C6    S2    S    
O11   Zn1   S    
H2    O9    S    
O14   Zn2   S    
O8    S3    D    
C14   H9    S    
C5    C6    A    
H6    O6    S    
O4    S2    D    
C7    H7    S    
C3    O16   A    
C10   C11   A    
C2    O13   A    
C4    H4    S    
C5    H5    S    
C12   C13   A    
C9    C10   A    
O16   Zn2   S    
N1    N2    D    
C14   C15   D    
O15   Zn1   S    
C15   H10   S    
C10   C16   S    
C1    C14   S    
C16   O11   A    
C4    C9    A    
O2    S1    D    
C11   H1    S    
C4    C5    A    
O3    S1    S    
