data_mof_unit_12423.cif
_audit_creation_date              2012-12-11T16:26:12-0500
_audit_creation_method            fapswitch 2.2
_symmetry_space_group_name_H-M    P1
_symmetry_Int_Tables_number       1
_space_group_crystal_system       triclinic
_cell_length_a                    14.036059
_cell_length_b                    14.046389
_cell_length_c                    31.847743
_cell_angle_alpha                 90.186879
_cell_angle_beta                  89.88798
_cell_angle_gamma                 119.948672
_cell_volume                      5440.53011606

loop_
_atom_site_label
_atom_site_type_symbol
_atom_type_description
_atom_site_fract_x
_atom_site_fract_y
_atom_site_fract_z
_atom_type_partial_charge
C1    C     C_R   0.567411 0.444276 0.810415 0.552629
C2    C     C_R   0.879838 0.433851 0.690362 0.546674
C3    C     C_R   0.555843 0.123389 0.810440 0.553269
C4    C     C_R   0.565841 0.445423 0.690260 0.546818
C5    C     C_R   0.876725 0.432616 0.810434 0.552610
C6    C     C_R   0.554878 0.120835 0.690047 0.547439
C7    C     C_R   0.444482 0.566854 0.310333 0.547302
C8    C     C_R   0.432564 0.876631 0.189558 0.552134
C9    C     C_R   0.124090 0.556458 0.310681 0.541877
C10   C     C_R   0.444234 0.567373 0.189578 0.551924
C11   C     C_R   0.433176 0.878294 0.310137 0.563130
C12   C     C_R   0.123294 0.555762 0.189573 0.548095
C13   C     C_1   0.003730 0.516932 0.018703 0.009858
C14   C     C_1   0.521868 0.002517 0.480866 -0.018188
C15   C     C_1   0.483125 0.485448 0.018781 0.009395
C16   C     C_1   0.008919 0.503149 0.482797 -0.007420
C17   C     C_1   0.513804 0.997637 0.018814 0.010041
C18   C     C_1   0.472626 0.494337 0.483422 -0.012937
C19   C     C_1   0.525041 0.008356 0.518525 -0.013630
C20   C     C_1   0.998066 0.514219 0.981171 0.009805
C21   C     C_1   0.476049 0.490257 0.521030 -0.013194
C22   C     C_1   0.516719 0.003645 0.981288 0.010096
C23   C     C_1   0.002021 0.500720 0.520329 -0.001096
C24   C     C_1   0.485741 0.482897 0.981240 0.009428
C25   C     C_R   0.933389 0.471499 0.851237 -0.023911
C26   C     C_R   0.535775 0.060594 0.649666 -0.007493
C27   C     C_R   0.528572 0.462347 0.851222 -0.024446
C28   C     C_R   0.942921 0.473380 0.650670 -0.007305
C29   C     C_R   0.538102 0.067266 0.851295 -0.023960
C30   C     C_R   0.523525 0.466923 0.650760 -0.009471
C31   C     C_R   0.472015 0.937410 0.350699 -0.014320
C32   C     C_R   0.066906 0.537838 0.148727 -0.023933
C33   C     C_R   0.460930 0.528605 0.351736 -0.005681
C34   C     C_R   0.471257 0.932972 0.148740 -0.023479
C35   C     C_R   0.071657 0.541529 0.352331 -0.027440
C36   C     C_R   0.462243 0.528422 0.148775 -0.024698
C37   C     C_R   0.942261 0.565676 0.871451 0.265264
C38   C     C_R   0.618514 0.044949 0.631107 0.289699
C39   C     C_R   0.433552 0.377662 0.871057 0.265576
C40   C     C_R   0.957004 0.568435 0.630201 0.286564
C41   C     C_R   0.623334 0.058156 0.871318 0.265552
C42   C     C_R   0.424024 0.386493 0.632285 0.289303
C43   C     C_R   0.574836 0.963007 0.367969 0.282868
C44   C     C_R   0.057174 0.622755 0.128836 0.267395
C45   C     C_R   0.374737 0.434564 0.371361 0.289352
C46   C     C_R   0.565292 0.941529 0.128512 0.265759
C47   C     C_R   0.094636 0.633797 0.377610 0.270835
C48   C     C_R   0.377391 0.433597 0.128815 0.265819
C49   C     C_R   0.965020 0.581067 0.914724 0.297977
C50   C     C_R   0.616882 0.027941 0.587139 0.303085
C51   C     C_R   0.418094 0.384562 0.914369 0.298418
C52   C     C_R   0.978275 0.580062 0.586451 0.303976
C53   C     C_R   0.616258 0.036051 0.914610 0.298026
C54   C     C_R   0.405849 0.392999 0.588872 0.303373
C55   C     C_R   0.593580 0.985140 0.411541 0.304809
C56   C     C_R   0.035140 0.615814 0.085528 0.297882
C57   C     C_R   0.376730 0.422637 0.415522 0.299216
C58   C     C_R   0.580519 0.964125 0.085246 0.297822
C59   C     C_R   0.075385 0.620503 0.420988 0.289758
C60   C     C_R   0.384434 0.418040 0.085514 0.298185
C61   C     C_R   0.988311 0.508447 0.936504 -0.002603
C62   C     C_R   0.527116 0.016916 0.563418 0.000937
C63   C     C_R   0.491506 0.479600 0.936558 -0.002493
C64   C     C_R   0.992530 0.499843 0.565016 -0.001233
C65   C     C_R   0.520625 0.013515 0.936625 -0.002505
C66   C     C_R   0.483602 0.484727 0.565747 0.000979
C67   C     C_R   0.513161 0.991626 0.436071 -0.010164
C68   C     C_R   0.013208 0.520544 0.063374 -0.002654
C69   C     C_R   0.468941 0.500096 0.438555 0.001735
C70   C     C_R   0.507915 0.987577 0.063474 -0.002701
C71   C     C_R   0.022213 0.514760 0.438287 -0.013354
C72   C     C_R   0.479715 0.491192 0.063462 -0.002491
C73   C     C_R   0.992579 0.423594 0.915396 -0.203799
C74   C     C_R   0.437551 0.014577 0.583462 -0.184792
C75   C     C_R   0.577126 0.568413 0.915823 -0.203662
C76   C     C_R   0.996792 0.416854 0.587181 -0.188858
C77   C     C_R   0.431574 0.009604 0.915733 -0.203660
C78   C     C_R   0.572402 0.571626 0.586087 -0.184247
C79   C     C_R   0.419455 0.982461 0.417204 -0.188989
C80   C     C_R   0.009679 0.431653 0.084140 -0.203917
C81   C     C_R   0.559738 0.583629 0.417855 -0.192644
C82   C     C_R   0.423127 0.991977 0.084586 -0.204067
C83   C     C_R   0.988149 0.422552 0.412633 -0.192492
C84   C     C_R   0.568635 0.576622 0.084325 -0.203852
C85   C     C_R   0.964834 0.404776 0.873126 -0.192144
C86   C     C_R   0.441115 0.034421 0.626343 -0.194194
C87   C     C_R   0.596037 0.559823 0.873510 -0.191955
C88   C     C_R   0.974628 0.405259 0.629863 -0.192878
C89   C     C_R   0.440265 0.036785 0.873433 -0.192740
C90   C     C_R   0.590963 0.563625 0.628388 -0.194949
C91   C     C_R   0.398308 0.954376 0.375091 -0.162498
C92   C     C_R   0.036859 0.440261 0.126457 -0.193263
C93   C     C_R   0.556300 0.596937 0.374781 -0.204099
C94   C     C_R   0.404459 0.964396 0.126852 -0.193010
C95   C     C_R   0.013000 0.435849 0.369872 -0.207488
C96   C     C_R   0.559944 0.595604 0.126626 -0.193083
Cr1   Cr    Cr6+3 0.504240 0.249200 0.750000 1.045159
Cr2   Cr    Cr6+3 0.744960 0.495760 0.750000 1.046879
Cr3   Cr    Cr6+3 0.750800 0.255040 0.750000 1.042950
Cr4   Cr    Cr6+3 0.249200 0.504240 0.250000 1.046153
Cr5   Cr    Cr6+3 0.495760 0.744960 0.250000 1.036843
Cr6   Cr    Cr6+3 0.255040 0.750800 0.250000 1.049053
H1    H     H_    0.040800 0.372695 0.140978 0.169149
H2    H     H_    0.321138 0.940630 0.362257 0.194388
H3    H     H_    0.627505 0.667214 0.141210 0.169370
H4    H     H_    0.991658 0.363699 0.350969 0.144731
H5    H     H_    0.333420 0.961326 0.141633 0.168747
H6    H     H_    0.627218 0.663641 0.359763 0.125680
H7    H     H_    0.371303 0.033872 0.640897 0.136310
H8    H     H_    0.961582 0.333653 0.858349 0.169697
H9    H     H_    0.661312 0.631712 0.643106 0.137204
H10   H     H_    0.372487 0.040301 0.858815 0.169042
H11   H     H_    0.976484 0.338751 0.646088 0.140268
H12   H     H_    0.667798 0.627255 0.859023 0.170522
H13   H     H_    0.991861 0.357725 0.067041 0.123651
H14   H     H_    0.359130 0.990882 0.435680 0.142242
H15   H     H_    0.642576 0.632576 0.067298 0.124147
H16   H     H_    0.946958 0.340756 0.425988 0.143730
H17   H     H_    0.367501 0.010835 0.067788 0.124691
H18   H     H_    0.632491 0.640752 0.435264 0.118571
H19   H     H_    0.366142 0.001169 0.565636 0.131453
H20   H     H_    0.011355 0.367984 0.932207 0.124857
H21   H     H_    0.629966 0.644322 0.568839 0.131323
H22   H     H_    0.357393 0.991394 0.932719 0.123983
H23   H     H_    0.013237 0.358330 0.571162 0.131817
H24   H     H_    0.633259 0.642180 0.932957 0.123867
O1    O     O_R   0.480350 0.140770 0.796330 -0.505499
O2    O     O_R   0.660420 0.519650 0.703670 -0.538720
O3    O     O_R   0.859230 0.339580 0.796330 -0.505678
O4    O     O_R   0.480350 0.140770 0.703670 -0.540288
O5    O     O_R   0.660420 0.519650 0.796330 -0.505024
O6    O     O_R   0.859230 0.339580 0.703670 -0.544200
O7    O     O_R   0.140770 0.480350 0.296330 -0.541733
O8    O     O_R   0.519650 0.660420 0.203670 -0.507476
O9    O     O_R   0.339580 0.859230 0.296330 -0.500981
O10   O     O_R   0.140770 0.480350 0.203670 -0.506271
O11   O     O_R   0.519650 0.660420 0.296330 -0.544961
O12   O     O_R   0.339580 0.859230 0.203670 -0.508388
O13   O     O_R   0.514930 0.348530 0.793250 -0.448426
O14   O     O_R   0.833600 0.485070 0.706750 -0.464652
O15   O     O_R   0.651470 0.166400 0.793250 -0.448472
O16   O     O_R   0.514930 0.348530 0.706750 -0.467578
O17   O     O_R   0.833600 0.485070 0.793250 -0.448877
O18   O     O_R   0.651470 0.166400 0.706750 -0.467822
O19   O     O_R   0.348530 0.514930 0.293250 -0.460973
O20   O     O_R   0.485070 0.833600 0.206750 -0.449228
O21   O     O_R   0.166400 0.651470 0.293250 -0.455366
O22   O     O_R   0.348530 0.514930 0.206750 -0.448022
O23   O     O_R   0.485070 0.833600 0.293250 -0.474763
O24   O     O_R   0.166400 0.651470 0.206750 -0.454734
O25   O     O_3   0.666667 0.333333 0.750000 -0.261284
O26   O     O_3   0.333333 0.666667 0.250000 -0.260450
O27   O     O_3   0.917885 0.636853 0.850482 -0.544528
C97   C     C_3   0.015758 0.720619 0.832536 -0.086428
H25   H     H_    0.050521 0.686654 0.809341 0.107514
H26   H     H_    0.077835 0.768886 0.857095 0.138283
H27   H     H_    0.996712 0.777883 0.815514 0.137319
O28   O     O_3   0.692428 0.034939 0.656969 -0.546232
C98   C     C_3   0.800400 0.120851 0.649628 -0.061335
H28   H     H_    0.803253 0.196951 0.638218 0.106501
H29   H     H_    0.842935 0.093708 0.627336 0.151729
H30   H     H_    0.846401 0.141112 0.679665 0.142927
O29   O     O_3   0.361417 0.283055 0.849645 -0.544479
C99   C     C_3   0.279368 0.299584 0.831468 -0.086681
H31   H     H_    0.315101 0.368373 0.808488 0.108303
H32   H     H_    0.231516 0.314626 0.855906 0.137357
H33   H     H_    0.221250 0.223984 0.814147 0.137565
O30   O     O_3   0.960966 0.652907 0.654166 -0.544731
C100  C     C_3   0.874154 0.671145 0.643423 -0.064903
H34   H     H_    0.800682 0.596068 0.631213 0.098884
H35   H     H_    0.902805 0.739170 0.620459 0.151254
H36   H     H_    0.848789 0.697796 0.672087 0.146077
O31   O     O_3   0.718568 0.081592 0.850120 -0.544123
C101  C     C_3   0.703710 0.983358 0.832073 -0.086426
H37   H     H_    0.634931 0.949014 0.809001 0.108059
H38   H     H_    0.689567 0.921279 0.856582 0.138080
H39   H     H_    0.779780 0.001641 0.814886 0.137123
O32   O     O_3   0.341807 0.309462 0.657873 -0.545155
C102  C     C_3   0.322450 0.203220 0.648523 -0.063897
H40   H     H_    0.396510 0.203420 0.635896 0.100831
H41   H     H_    0.252483 0.161408 0.626412 0.149209
H42   H     H_    0.298396 0.154540 0.677912 0.146251
O33   O     O_3   0.658672 0.975857 0.341317 -0.547763
C103  C     C_3   0.683340 0.891307 0.347755 -0.069424
H43   H     H_    0.611487 0.813985 0.359134 0.109493
H44   H     H_    0.753575 0.919245 0.369712 0.141395
H45   H     H_    0.709159 0.872602 0.317345 0.136362
O34   O     O_3   0.079915 0.717593 0.150194 -0.542487
C104  C     C_3   0.981352 0.701807 0.168265 -0.093352
H46   H     H_    0.947585 0.633016 0.191249 0.095648
H47   H     H_    0.918964 0.687205 0.143763 0.139520
H48   H     H_    0.999059 0.777576 0.185559 0.130335
O35   O     O_3   0.297152 0.350617 0.346290 -0.547138
C105  C     C_3   0.190173 0.330247 0.355195 -0.056636
H49   H     H_    0.188639 0.404489 0.366497 0.112446
H50   H     H_    0.149258 0.262083 0.378028 0.154977
H51   H     H_    0.141143 0.302417 0.325883 0.144728
O36   O     O_3   0.636473 0.917006 0.149455 -0.544085
C106  C     C_3   0.720457 0.014729 0.167494 -0.088063
H52   H     H_    0.686635 0.049560 0.190722 0.106806
H53   H     H_    0.768766 0.076738 0.142992 0.138162
H54   H     H_    0.777712 0.995557 0.184500 0.134382
O37   O     O_3   0.148857 0.738892 0.361401 -0.543901
C107  C     C_3   0.069733 0.768550 0.350723 -0.090707
H55   H     H_    0.024898 0.772196 0.378991 0.139122
H56   H     H_    0.010659 0.711312 0.326939 0.097886
H57   H     H_    0.112595 0.851774 0.336622 0.129515
O38   O     O_3   0.282507 0.361807 0.150085 -0.544207
C108  C     C_3   0.298347 0.279260 0.168112 -0.088047
H58   H     H_    0.367221 0.314434 0.191141 0.105418
H59   H     H_    0.312938 0.231273 0.143587 0.137657
H60   H     H_    0.222549 0.221456 0.185342 0.136186
O39   O     O_3   0.032186 0.701115 0.065121 -0.549582
C109  C     C_3   0.140248 0.779623 0.053316 -0.087294
H61   H     H_    0.176453 0.743762 0.031665 0.113673
H62   H     H_    0.193860 0.816025 0.081256 0.150134
H63   H     H_    0.137773 0.847201 0.036355 0.146271
O40   O     O_3   0.692838 0.006929 0.428960 -0.563613
C110  C     C_3   0.678359 0.913564 0.451205 -0.146271
H64   H     H_    0.620984 0.834377 0.435407 0.084754
H65   H     H_    0.649640 0.913213 0.483670 0.166820
H66   H     H_    0.759238 0.917857 0.453626 0.134473
O41   O     O_3   0.299252 0.329572 0.065007 -0.550162
C111  C     C_3   0.220370 0.358644 0.053194 -0.087632
H67   H     H_    0.256028 0.430571 0.031670 0.114207
H68   H     H_    0.183683 0.375695 0.081140 0.150039
H69   H     H_    0.152990 0.288478 0.036091 0.146245
O42   O     O_3   0.108474 0.711950 0.446322 -0.554860
C112  C     C_3   0.215226 0.745568 0.461347 -0.089076
H70   H     H_    0.274056 0.761701 0.435197 0.132617
H71   H     H_    0.215305 0.683798 0.483050 0.120741
H72   H     H_    0.244809 0.822922 0.479395 0.146704
O43   O     O_3   0.668179 0.966039 0.064514 -0.549334
C113  C     C_3   0.637267 0.857909 0.052177 -0.087583
H73   H     H_    0.565738 0.823434 0.030385 0.114005
H74   H     H_    0.618586 0.803381 0.079845 0.149516
H75   H     H_    0.707092 0.859454 0.035193 0.146079
O44   O     O_3   0.292445 0.331413 0.435133 -0.567951
C114  C     C_3   0.224126 0.361992 0.457215 -0.142945
H76   H     H_    0.216080 0.428680 0.441669 0.086934
H77   H     H_    0.253770 0.386632 0.489849 0.168332
H78   H     H_    0.140380 0.289274 0.459222 0.137067
O45   O     O_3   0.698998 0.015081 0.568460 -0.565780
C115  C     C_3   0.772435 0.112338 0.546762 -0.148090
H79   H     H_    0.786537 0.188837 0.562911 0.086428
H80   H     H_    0.743481 0.110759 0.514282 0.165963
H81   H     H_    0.853264 0.116462 0.544364 0.136364
O46   O     O_3   0.967246 0.668871 0.935460 -0.549537
C116  C     C_3   0.859121 0.638380 0.947690 -0.087657
H82   H     H_    0.824295 0.566823 0.969385 0.113989
H83   H     H_    0.804682 0.620035 0.919961 0.149467
H84   H     H_    0.860954 0.708256 0.964743 0.146195
O47   O     O_3   0.309105 0.313696 0.570393 -0.563987
C117  C     C_3   0.329865 0.241473 0.546081 -0.139358
H85   H     H_    0.393336 0.225376 0.559958 0.082228
H86   H     H_    0.353893 0.272798 0.513647 0.173491
H87   H     H_    0.252573 0.161305 0.543789 0.141237
O48   O     O_3   0.701825 0.033647 0.935132 -0.549126
C118  C     C_3   0.779730 0.141742 0.947179 -0.087337
H88   H     H_    0.743300 0.177175 0.968927 0.113432
H89   H     H_    0.815831 0.195694 0.919365 0.149885
H90   H     H_    0.847693 0.139759 0.964117 0.146262
O49   O     O_3   0.992662 0.673238 0.565956 -0.544662
C119  C     C_3   0.898687 0.647351 0.541476 -0.123926
H91   H     H_    0.820441 0.579917 0.554773 0.074688
H92   H     H_    0.909685 0.626473 0.508899 0.164995
H93   H     H_    0.889862 0.721426 0.539646 0.131713
O50   O     O_3   0.329450 0.299500 0.934749 -0.549796
C120  C     C_3   0.358234 0.220373 0.946420 -0.087479
H94   H     H_    0.430344 0.255737 0.967942 0.113808
H95   H     H_    0.374934 0.183607 0.918405 0.150116
H96   H     H_    0.287989 0.153165 0.963477 0.146367

loop_
_geom_bond_atom_site_label_1
_geom_bond_atom_site_label_2
_ccdc_geom_bond_type
C68   C80   A    
C105  H50   S    
O37   C107  S    
C111  H69   S    
C82   C94   A    
C21   C66   S    
C18   C21   T    
C33   C45   A    
C100  H34   S    
C39   C51   A    
O29   C99   S    
C3    O15   A    
C91   H2    S    
C6    O4    A    
C118  H90   S    
C35   C47   A    
C111  H67   S    
C29   C89   A    
O32   C102  S    
O49   C119  S    
C32   C92   A    
O39   C109  S    
Cr4   O26   S    
C15   C72   S    
C81   H18   S    
C45   C57   A    
C116  H82   S    
O38   C108  S    
C31   C43   A    
Cr3   O6    S    
C90   H9    S    
C83   H16   S    
C40   C52   A    
C99   H31   S    
C114  H76   S    
C42   O32   S    
Cr1   O4    S    
C112  H72   S    
C93   H6    S    
C4    O16   A    
O47   C117  S    
Cr2   O17   S    
C109  H62   S    
C5    O17   A    
C105  H51   S    
C108  H59   S    
C60   C72   A    
C19   C62   S    
O45   C115  S    
Cr6   O12   S    
C88   H11   S    
C108  H60   S    
C81   C93   A    
C115  H79   S    
C8    O12   A    
C84   C96   A    
Cr5   O23   S    
C20   C61   S    
C3    C29   S    
C44   C56   A    
Cr6   O9    S    
C46   C58   A    
C87   H12   S    
C117  H86   S    
C92   H1    S    
C25   C37   A    
C101  H37   S    
C15   C24   T    
C11   O23   A    
O41   C111  S    
C74   H19   S    
C27   C39   A    
C119  H91   S    
Cr2   O5    S    
C28   C88   A    
C106  H54   S    
C2    O6    A    
C14   C67   S    
C98   H29   S    
O36   C106  S    
C34   C46   A    
C114  H78   S    
C53   C65   A    
O43   C113  S    
C76   C88   A    
C97   H26   S    
C57   O44   S    
C1    O13   A    
C51   C63   A    
Cr1   O1    S    
C102  H42   S    
C1    C27   S    
C58   O43   S    
C18   C69   S    
Cr2   O2    S    
C105  H49   S    
C103  H43   S    
C11   C31   S    
C17   C70   S    
O31   C101  S    
C120  H94   S    
C12   C32   S    
C45   O35   S    
C76   H23   S    
C7    C33   S    
C16   C71   S    
C113  H74   S    
C82   H17   S    
C66   C78   A    
O42   C112  S    
C112  H70   S    
C48   C60   A    
C55   O40   S    
C71   C83   A    
Cr2   O25   S    
C64   C76   A    
Cr5   O20   S    
C8    O20   A    
C94   H5    S    
C116  H83   S    
C49   C61   A    
Cr3   O3    S    
C102  H41   S    
C12   O24   A    
Cr3   O18   S    
C86   H7    S    
C67   C79   A    
C38   O28   S    
C97   H27   S    
C50   O45   S    
C52   C64   A    
C110  H64   S    
C7    O11   A    
C4    O2    A    
C109  H61   S    
C26   C38   A    
C107  H55   S    
C117  H87   S    
C61   C73   A    
C56   C68   A    
Cr3   O25   S    
C9    O21   A    
C78   C90   A    
Cr2   O14   S    
O34   C104  S    
C10   C36   S    
C113  H75   S    
C80   C92   A    
C104  H48   S    
O33   C103  S    
C22   C65   S    
C117  H85   S    
C78   H21   S    
C95   H4    S    
C11   O9    A    
Cr6   O21   S    
C110  H65   S    
C65   C77   A    
C37   C49   A    
C36   C96   A    
C33   C93   A    
C98   H28   S    
C89   H10   S    
C80   H13   S    
Cr4   O19   S    
C26   C86   A    
C62   C74   A    
C83   C95   A    
C51   O50   S    
C48   O38   S    
C25   C85   A    
C108  H58   S    
Cr1   O25   S    
C98   H30   S    
C47   O37   S    
C114  H77   S    
C8    C34   S    
C74   C86   A    
C27   C87   A    
C59   O42   S    
C101  H39   S    
C41   C53   A    
C56   O39   S    
C72   C84   A    
C44   O34   S    
C69   C81   A    
C5    C25   S    
C43   C55   A    
O30   C100  S    
Cr6   O24   S    
C85   H8    S    
C16   C23   T    
C31   C91   A    
C120  H95   S    
O28   C98   S    
C50   C62   A    
C54   O47   S    
C5    O3    A    
C113  H73   S    
C39   O29   S    
C118  H88   S    
C60   O41   S    
O46   C116  S    
C96   H3    S    
C106  H53   S    
Cr6   O26   S    
C100  H35   S    
C75   C87   A    
C52   O49   S    
C41   O31   S    
O44   C114  S    
C23   C64   S    
C116  H84   S    
Cr5   O11   S    
C53   O48   S    
C13   C20   T    
C29   C41   A    
C77   C89   A    
C79   C91   A    
C14   C19   T    
Cr3   O15   S    
C99   H33   S    
C58   C70   A    
C34   C94   A    
C107  H56   S    
C1    O5    A    
C109  H63   S    
C111  H68   S    
C55   C67   A    
C103  H45   S    
C38   C50   A    
C35   C95   A    
C24   C63   S    
Cr5   O26   S    
C17   C22   T    
C103  H44   S    
C115  H81   S    
C75   H24   S    
C2    O14   A    
C37   O27   S    
C99   H32   S    
O48   C118  S    
C73   C85   A    
C112  H71   S    
C77   H22   S    
Cr5   O8    S    
O35   C105  S    
C42   C54   A    
C110  H66   S    
C79   H14   S    
O40   C110  S    
C6    C26   S    
Cr4   O7    S    
C63   C75   A    
Cr4   O22   S    
C119  H93   S    
C43   O33   S    
C100  H36   S    
C115  H80   S    
C36   C48   A    
C107  H57   S    
C3    O1    A    
C118  H89   S    
C104  H46   S    
C70   C82   A    
C101  H38   S    
Cr1   O16   S    
C40   O30   S    
C49   O46   S    
C46   O36   S    
C84   H15   S    
C47   C59   A    
C102  H40   S    
C97   H25   S    
C106  H52   S    
C10   O8    A    
O50   C120  S    
C32   C44   A    
C119  H92   S    
C73   H20   S    
C12   O10   A    
C120  H96   S    
C59   C71   A    
C9    C35   S    
C28   C40   A    
C30   C42   A    
C2    C28   S    
C57   C69   A    
O27   C97   S    
C54   C66   A    
C6    O18   A    
Cr1   O13   S    
C30   C90   A    
C4    C30   S    
Cr4   O10   S    
C10   O22   A    
C104  H47   S    
C7    O19   A    
C13   C68   S    
C9    O7    A    
