data_mof_unit_23608.cif
_audit_creation_date              2012-12-11T15:41:06-0500
_audit_creation_method            fapswitch 2.2
_symmetry_space_group_name_H-M    P1
_symmetry_Int_Tables_number       1
_space_group_crystal_system       triclinic
_cell_length_a                    19.129893
_cell_length_b                    11.003971
_cell_length_c                    18.81042
_cell_angle_alpha                 90.262051
_cell_angle_beta                  90.475741
_cell_angle_gamma                 89.699551
_cell_volume                      3959.45190227

loop_
_atom_site_label
_atom_site_type_symbol
_atom_type_description
_atom_site_fract_x
_atom_site_fract_y
_atom_site_fract_z
_atom_type_partial_charge
C1    C     C_R   0.724479 0.962157 0.855953 0.540736
C2    C     C_R   0.272862 0.955516 0.146282 0.564784
C3    C     C_R   0.224481 0.462151 0.855953 0.540557
C4    C     C_R   0.772860 0.455507 0.146284 0.558716
C5    C     C_R   0.692862 0.451106 0.040678 0.006840
C6    C     C_R   0.300016 0.461080 0.963199 0.000485
C7    C     C_R   0.192902 0.951223 0.040651 0.007123
C8    C     C_R   0.800012 0.961083 0.963196 0.000609
C9    C     C_R   0.682318 0.419372 0.969954 0.012303
C10   C     C_R   0.308294 0.448710 0.035929 0.011904
C11   C     C_R   0.182358 0.919488 0.969928 0.012726
C12   C     C_R   0.808288 0.948704 0.035925 0.012691
C13   C     C_R   0.773833 0.269314 0.979201 -0.164833
C14   C     C_R   0.183997 0.424223 0.048936 -0.164252
C15   C     C_R   0.273816 0.769313 0.979203 -0.164876
C16   C     C_R   0.684006 0.924169 0.048925 -0.166883
C17   C     C_R   0.783352 0.299162 0.050964 -0.126492
C18   C     C_R   0.175984 0.434175 0.975577 -0.162718
C19   C     C_R   0.283331 0.799161 0.050966 -0.124348
C20   C     C_R   0.676001 0.934119 0.975568 -0.161822
C21   C     C_3   0.676460 0.581923 0.026967 -0.256139
C22   C     C_3   0.367187 0.398259 0.947526 -0.289677
C23   C     C_3   0.176584 0.082075 0.026918 -0.257436
C24   C     C_3   0.867174 0.898259 0.947523 -0.289545
C25   C     C_3   0.664633 0.547105 0.949646 -0.256066
C26   C     C_3   0.376262 0.382895 0.027121 -0.259540
C27   C     C_3   0.164755 0.047254 0.949599 -0.255195
C28   C     C_3   0.876248 0.882888 0.027117 -0.259216
C29   C     C_R   0.726700 0.335679 0.936546 -0.001766
C30   C     C_R   0.251129 0.421418 0.079123 0.020875
C31   C     C_R   0.226710 0.835720 0.936539 -0.001053
C32   C     C_R   0.751128 0.921398 0.079117 0.018880
C33   C     C_R   0.504742 0.173909 0.422541 -0.000484
C34   C     C_R   0.516115 0.164486 0.569430 0.067328
C35   C     C_R   0.959549 0.677473 0.436067 0.029439
C36   C     C_R   0.990635 0.673346 0.580219 0.062883
C37   C     C_R   0.497206 0.278280 0.464335 0.046046
C38   C     C_R   0.499509 0.270955 0.535950 0.080513
C39   C     C_R   0.956879 0.784722 0.475146 0.027813
C40   C     C_R   0.972123 0.782908 0.546771 0.018663
C41   C     C_R   0.537026 0.063059 0.528100 -0.115824
C42   C     C_R   0.529593 0.066797 0.454022 -0.171080
C43   C     C_R   0.989152 0.565683 0.541654 -0.105334
C44   C     C_R   0.976725 0.568713 0.469448 -0.123352
C45   C     C_R   0.529893 0.178252 0.850476 0.553045
C46   C     C_R   0.468863 0.176352 0.148479 0.554245
C47   C     C_R   0.029900 0.678252 0.850482 0.551719
C48   C     C_R   0.968871 0.676351 0.148487 0.571416
C49   C     C_3   0.437268 0.365831 0.469018 -0.213991
C50   C     C_3   0.440157 0.354899 0.548717 -0.260245
C51   C     C_3   0.001773 0.893596 0.463013 -0.248251
C52   C     C_3   0.016386 0.894137 0.541091 -0.236800
C53   C     C_R   0.746060 0.390986 0.416040 -0.024891
C54   C     C_R   0.242939 0.429128 0.573034 -0.026636
C55   C     C_R   0.258043 0.928732 0.426813 -0.004646
C56   C     C_R   0.740382 0.934058 0.571861 -0.026716
C57   C     C_R   0.795006 0.324636 0.455460 0.063865
C58   C     C_R   0.198447 0.350073 0.536997 0.040669
C59   C     C_R   0.306402 0.858869 0.464497 0.039541
C60   C     C_R   0.688130 0.875364 0.533845 -0.060834
C61   C     C_R   0.785528 0.298788 0.526625 -0.004750
C62   C     C_R   0.204923 0.331139 0.465022 0.003540
C63   C     C_R   0.299951 0.840939 0.536054 -0.000603
C64   C     C_R   0.690397 0.864675 0.461513 0.010424
C65   C     C_R   0.673280 0.398501 0.522027 0.198220
C66   C     C_R   0.291315 0.490548 0.459406 0.180547
C67   C     C_R   0.201536 0.979713 0.538634 0.175707
C68   C     C_R   0.793309 0.990095 0.459046 0.190779
C69   C     C_R   0.682674 0.421154 0.448865 -0.136284
C70   C     C_R   0.288958 0.501841 0.533482 -0.152974
C71   C     C_R   0.204529 0.988677 0.464423 -0.146294
C72   C     C_R   0.791114 0.998878 0.533592 -0.131366
C73   C     C_3   0.867557 0.364962 0.469440 -0.206441
C74   C     C_3   0.121010 0.366114 0.529002 -0.206599
C75   C     C_3   0.384199 0.873824 0.470651 -0.180454
C76   C     C_3   0.659422 0.751866 0.544651 -0.175282
C77   C     C_3   0.857724 0.338126 0.546511 0.094387
C78   C     C_3   0.127948 0.331948 0.452015 0.093313
C79   C     C_3   0.377130 0.844250 0.548609 0.102145
C80   C     C_3   0.662285 0.737756 0.464678 0.137925
C81   C     C_R   0.725795 0.335148 0.561783 0.040397
C82   C     C_R   0.251466 0.400116 0.425831 0.071763
C83   C     C_R   0.249008 0.902889 0.574587 0.078316
C84   C     C_R   0.746036 0.913080 0.423170 0.022320
C85   C     C_R   0.724333 0.313458 0.859777 0.554677
C86   C     C_R   0.261971 0.363772 0.147523 0.550103
C87   C     C_R   0.224336 0.813470 0.859777 0.551656
C88   C     C_R   0.761972 0.863764 0.147519 0.540178
C89   C     C_R   0.726669 0.958810 0.646216 0.550667
C90   C     C_R   0.274275 0.960907 0.354391 0.566215
C91   C     C_R   0.225962 0.460641 0.645682 0.564891
C92   C     C_R   0.770840 0.451523 0.350983 0.529055
C93   C     C_R   0.533068 0.175402 0.643149 0.581294
C94   C     C_R   0.471725 0.176693 0.353848 0.533245
C95   C     C_R   0.028705 0.677250 0.646019 0.553481
C96   C     C_R   0.939940 0.681184 0.362644 0.563467
C97   C     C_R   0.724709 0.311932 0.638998 0.600116
C98   C     C_R   0.260846 0.361830 0.353278 0.618485
C99   C     C_R   0.239247 0.862416 0.646783 0.620964
C100  C     C_R   0.760341 0.862228 0.353383 0.563163
C101  C     C_2   0.497957 0.172197 0.920658 -0.133630
C102  C     C_2   0.498144 0.161043 0.076925 -0.138235
C103  C     C_2   0.997974 0.672196 0.920670 -0.132985
C104  C     C_2   0.998158 0.661042 0.076937 -0.136896
C105  C     C_2   0.478601 0.066274 0.034097 0.236918
C106  C     C_2   0.490088 0.067171 0.956140 0.230777
C107  C     C_2   0.978624 0.566267 0.034110 0.234648
C108  C     C_2   0.990109 0.567170 0.956153 0.231690
C109  C     C_R   0.747009 0.398293 0.080794 0.023206
C110  C     C_R   0.234942 0.443299 0.931493 0.014184
C111  C     C_R   0.247015 0.898333 0.080783 0.025549
C112  C     C_R   0.734947 0.943287 0.931488 0.014218
Cr1   Cr    Cr6+3 0.769260 0.163750 0.750730 1.015169
Cr2   Cr    Cr6+3 0.230740 0.163750 0.249270 1.038161
Cr3   Cr    Cr6+3 0.269260 0.663750 0.750730 1.022954
Cr4   Cr    Cr6+3 0.730740 0.663750 0.249270 1.043988
Cr5   Cr    Cr6+3 0.612640 0.009910 0.748780 1.064171
Cr6   Cr    Cr6+3 0.387360 0.009910 0.251220 1.062444
Cr7   Cr    Cr6+3 0.112640 0.509910 0.748780 1.062684
Cr8   Cr    Cr6+3 0.887360 0.509910 0.251220 1.070009
Cr9   Cr    Cr6+3 0.614190 0.322400 0.747710 1.069482
Cr10  Cr    Cr6+3 0.385810 0.322400 0.252290 1.069103
Cr11  Cr    Cr6+3 0.114190 0.822400 0.747710 1.060299
Cr12  Cr    Cr6+3 0.885810 0.822400 0.252290 1.064677
H1    H     H_    0.973164 0.975162 0.445469 0.216513
H2    H     H_    0.072196 0.874401 0.552525 0.201643
H3    H     H_    0.388934 0.326423 0.445949 0.153467
H4    H     H_    0.455782 0.440375 0.575991 0.203308
H5    H     H_    0.452709 0.456913 0.449675 0.238732
H6    H     H_    0.394036 0.308203 0.571398 0.147961
H7    H     H_    0.048992 0.872589 0.430905 0.162363
H8    H     H_    0.993435 0.973515 0.569502 0.182328
H9    H     H_    0.644126 0.474640 0.420256 0.199093
H10   H     H_    0.319693 0.571862 0.559242 0.156373
H11   H     H_    0.168744 0.049422 0.437212 0.151133
H12   H     H_    0.828582 0.055918 0.561123 0.148349
H13   H     H_    0.868270 0.462980 0.458004 0.155103
H14   H     H_    0.108471 0.463312 0.537122 0.155646
H15   H     H_    0.399956 0.969051 0.460367 0.165930
H16   H     H_    0.605675 0.755108 0.566643 0.213994
H17   H     H_    0.907658 0.307436 0.443076 0.175924
H18   H     H_    0.089646 0.301459 0.560384 0.181152
H19   H     H_    0.414251 0.804321 0.440655 0.216567
H20   H     H_    0.696709 0.691285 0.573394 0.175800
H21   H     H_    0.891250 0.262854 0.566723 0.144450
H22   H     H_    0.107234 0.240308 0.439044 0.155099
H23   H     H_    0.398943 0.753784 0.563109 0.163319
H24   H     H_    0.700763 0.668347 0.447024 0.144996
H25   H     H_    0.528616 0.235709 0.056331 0.052702
H26   H     H_    0.489138 0.258431 0.947185 0.057861
H27   H     H_    0.028628 0.735711 0.056343 0.052993
H28   H     H_    0.989160 0.758431 0.947199 0.057665
H29   H     H_    0.807456 0.201199 0.955730 0.140298
H30   H     H_    0.138462 0.407531 0.081017 0.124235
H31   H     H_    0.307420 0.701159 0.955741 0.140500
H32   H     H_    0.638477 0.907443 0.081000 0.120722
H33   H     H_    0.823881 0.252327 0.080777 0.143859
H34   H     H_    0.123781 0.430774 0.953332 0.188149
H35   H     H_    0.323838 0.752284 0.080790 0.145351
H36   H     H_    0.623808 0.930682 0.953322 0.188054
H37   H     H_    0.222592 0.142135 0.035061 0.154157
H38   H     H_    0.906085 0.960629 0.923930 0.145493
H39   H     H_    0.722430 0.642063 0.035106 0.155181
H40   H     H_    0.406099 0.460639 0.923934 0.145649
H41   H     H_    0.627919 0.612250 0.054025 0.139105
H42   H     H_    0.359634 0.310950 0.918478 0.136159
H43   H     H_    0.128051 0.112506 0.053959 0.138529
H44   H     H_    0.859617 0.810963 0.918477 0.136200
H45   H     H_    0.609207 0.556849 0.932280 0.146729
H46   H     H_    0.373124 0.286455 0.044009 0.145239
H47   H     H_    0.109336 0.057095 0.932217 0.147583
H48   H     H_    0.873111 0.786454 0.044006 0.144783
H49   H     H_    0.703567 0.587525 0.913191 0.155108
H50   H     H_    0.421130 0.434845 0.049381 0.148575
H51   H     H_    0.203727 0.087591 0.913147 0.155394
H52   H     H_    0.921112 0.934829 0.049376 0.147400
H53   H     H_    0.555692 0.980447 0.552913 0.183155
H54   H     H_    0.538088 0.985525 0.422631 0.188384
H55   H     H_    0.999748 0.479504 0.567013 0.157553
H56   H     H_    0.979174 0.485019 0.439902 0.185382
O1    O     O_R   0.784290 0.290360 0.830540 -0.527808
O2    O     O_R   0.215710 0.290360 0.169460 -0.522536
O3    O     O_R   0.284290 0.790360 0.830540 -0.532142
O4    O     O_R   0.715710 0.790360 0.169460 -0.525536
O5    O     O_R   0.554690 0.080440 0.673480 -0.488252
O6    O     O_R   0.445310 0.080440 0.326520 -0.513396
O7    O     O_R   0.054690 0.580440 0.673480 -0.507664
O8    O     O_R   0.945310 0.580440 0.326520 -0.478634
O9    O     O_R   0.543980 0.282110 0.666770 -0.489072
O10   O     O_R   0.456020 0.282110 0.333230 -0.504911
O11   O     O_R   0.043980 0.782110 0.666770 -0.517539
O12   O     O_R   0.956020 0.782110 0.333230 -0.491792
O13   O     O_R   0.679070 0.374030 0.674430 -0.421754
O14   O     O_R   0.320930 0.374030 0.325570 -0.467989
O15   O     O_R   0.179070 0.874030 0.674430 -0.454523
O16   O     O_R   0.820930 0.874030 0.325570 -0.457048
O17   O     O_3   0.665360 0.165350 0.749070 -0.326648
O18   O     O_3   0.334640 0.165350 0.250930 -0.282135
O19   O     O_3   0.165360 0.665350 0.749070 -0.300205
O20   O     O_3   0.834640 0.665350 0.250930 -0.298388
O21   O     O_R   0.762610 0.041070 0.825230 -0.516051
O22   O     O_R   0.237390 0.041070 0.174770 -0.505161
O23   O     O_R   0.262610 0.541070 0.825230 -0.516383
O24   O     O_R   0.737390 0.541070 0.174770 -0.502523
O25   O     O_R   0.667390 0.924160 0.829970 -0.502407
O26   O     O_R   0.332610 0.924160 0.170030 -0.485583
O27   O     O_R   0.167390 0.424160 0.829970 -0.500966
O28   O     O_R   0.832610 0.424160 0.170030 -0.489563
O29   O     O_R   0.553980 0.081420 0.821780 -0.446786
O30   O     O_R   0.446020 0.081420 0.178220 -0.455477
O31   O     O_R   0.053980 0.581420 0.821780 -0.451094
O32   O     O_R   0.946020 0.581420 0.178220 -0.444594
O33   O     O_R   0.543210 0.283170 0.826740 -0.532971
O34   O     O_R   0.456790 0.283170 0.173260 -0.524477
O35   O     O_R   0.043210 0.783170 0.826740 -0.530831
O36   O     O_R   0.956790 0.783170 0.173260 -0.522466
O37   O     O_R   0.678350 0.375000 0.822720 -0.486917
O38   O     O_R   0.321650 0.375000 0.177280 -0.493276
O39   O     O_R   0.178350 0.875000 0.822720 -0.488088
O40   O     O_R   0.821650 0.875000 0.177280 -0.497260
O41   O     O_R   0.785060 0.289300 0.670580 -0.462370
O42   O     O_R   0.214940 0.289300 0.329420 -0.488043
O43   O     O_R   0.285060 0.789300 0.670580 -0.497115
O44   O     O_R   0.714940 0.789300 0.329420 -0.494243
O45   O     O_R   0.763330 0.040090 0.676940 -0.529205
O46   O     O_R   0.236670 0.040090 0.323060 -0.518717
O47   O     O_R   0.263330 0.540090 0.676940 -0.515646
O48   O     O_R   0.736670 0.540090 0.323060 -0.505137
O49   O     O_R   0.668160 0.923110 0.670000 -0.505581
O50   O     O_R   0.331840 0.923110 0.330000 -0.487859
O51   O     O_R   0.168160 0.423110 0.670000 -0.490161
O52   O     O_R   0.831840 0.423110 0.330000 -0.507870
O53   O     O_3   0.439619 0.970814 0.060405 -0.533020
C113  C     C_3   0.485412 0.875652 0.080227 -0.069895
H57   H     H_    0.521326 0.904426 0.123859 0.117375
H58   H     H_    0.515830 0.840651 0.034327 0.134572
H59   H     H_    0.453903 0.799151 0.100502 0.131857
O54   O     O_3   0.492897 0.956495 0.920709 -0.568429
C114  C     C_3   0.426538 0.932655 0.890637 -0.059838
H60   H     H_    0.413381 0.998899 0.848008 0.139814
H61   H     H_    0.384897 0.932949 0.931598 0.154511
H62   H     H_    0.427703 0.840818 0.866116 0.155746
O55   O     O_3   0.939646 0.470801 0.060419 -0.534093
C115  C     C_3   0.985443 0.375650 0.080247 -0.070339
H63   H     H_    0.021313 0.404412 0.123923 0.124789
H64   H     H_    0.015908 0.340712 0.034359 0.134043
H65   H     H_    0.953931 0.299102 0.100468 0.129788
O56   O     O_3   0.992907 0.456496 0.920718 -0.568470
C116  C     C_3   0.926523 0.432618 0.890715 -0.061342
H66   H     H_    0.913308 0.498869 0.848109 0.138011
H67   H     H_    0.884923 0.432872 0.931717 0.156042
H68   H     H_    0.927683 0.340787 0.866185 0.153884
Cl1   Cl    Cl    0.603563 0.475811 0.562582 -0.622074
Cl2   Cl    Cl    0.340715 0.593134 0.409436 -0.635815
Cl3   Cl    Cl    0.144460 0.076170 0.585479 -0.677215
Cl4   Cl    Cl    0.855334 0.074317 0.412236 -0.681103
Cl5   Cl    Cl    0.857196 0.474168 0.600391 -0.630945
Cl6   Cl    Cl    0.101384 0.447229 0.390101 -0.624177
Cl7   Cl    Cl    0.402597 0.963515 0.607896 -0.643141
Cl8   Cl    Cl    0.577703 0.726059 0.424364 -0.613578

loop_
_geom_bond_atom_site_label_1
_geom_bond_atom_site_label_2
_ccdc_geom_bond_type
Cr8   O32   S    
C39   C51   S    
C4    C109  S    
C48   O36   A    
C67   C83   A    
C21   H39   S    
C71   H11   S    
C55   C59   A    
C73   H13   S    
C3    O23   A    
C41   C42   A    
C96   O8    A    
C35   C39   A    
C114  H60   S    
C2    O22   A    
C34   C93   S    
C107  O55   S    
C33   C94   S    
C44   H56   S    
C75   H19   S    
Cr12  O40   S    
Cr6   O6    S    
C68   C84   A    
C9    C25   S    
C73   H17   S    
C35   C96   S    
C15   C19   A    
C74   H14   S    
C43   H55   S    
C116  H66   S    
C81   C97   S    
Cr4   O48   S    
Cr7   O19   S    
C33   C42   A    
C46   C102  S    
C104  H27   S    
C13   C29   A    
Cr6   O26   S    
C14   C30   A    
C55   C90   S    
Cr5   O25   S    
C87   O39   A    
C8    C112  A    
C1    C112  S    
C87   O3    A    
Cr4   O20   S    
C46   O30   A    
C4    O24   A    
Cr2   O46   S    
C100  O44   A    
C3    C110  S    
C97   O13   A    
O55   C115  S    
C48   C104  S    
C99   O15   A    
C101  H26   S    
C37   C49   S    
C115  H63   S    
C98   O14   A    
C102  C105  D    
C47   O31   A    
C86   O38   A    
C57   C73   S    
C85   O37   A    
Cr10  O18   S    
C64   C84   A    
Cr11  O39   S    
C50   H6    S    
C8    C24   S    
C20   C112  A    
C65   C81   A    
C28   H48   S    
Cr1   O1    S    
C48   O32   A    
C61   C77   S    
C56   C72   A    
C65   Cl1   S    
C16   H32   S    
C45   O33   A    
C107  C108  S    
Cr2   O22   S    
Cr10  O10   S    
C103  C108  D    
C2    O26   A    
Cr1   O21   S    
C8    C12   A    
C30   C86   S    
C17   H33   S    
O53   C113  S    
C98   O42   A    
C15   H31   S    
C95   O11   A    
C88   O40   A    
C19   C111  A    
C10   C26   S    
C26   H50   S    
C76   H16   S    
C74   H18   S    
C1    O21   A    
C77   Cl5   S    
C12   C32   A    
C6    C110  A    
Cr8   O52   S    
C50   H4    S    
C59   C75   S    
C113  H58   S    
Cr10  O14   S    
C64   C80   S    
Cr8   O8    S    
Cr9   O13   S    
C94   O6    A    
Cr4   O24   S    
C62   C78   S    
C60   C64   A    
C4    O28   A    
Cr7   O7    S    
C23   C27   S    
C100  O16   A    
C49   H3    S    
C99   O43   A    
C2    C111  S    
C116  H67   S    
C31   C87   S    
C108  O56   S    
C82   C98   S    
C95   O7    A    
C51   C52   S    
C52   H8    S    
C79   Cl7   S    
C18   C110  A    
Cr11  O35   S    
C36   C40   A    
C47   C103  S    
C24   H44   S    
C93   O5    A    
C27   H51   S    
C39   C40   A    
C53   C57   A    
C28   H52   S    
C75   H15   S    
C79   H23   S    
C7    C111  A    
C46   O34   A    
C53   C69   A    
C40   C52   S    
C51   H1    S    
Cr3   O19   S    
C60   C76   S    
C45   O29   A    
Cr10  O34   S    
Cr3   O23   S    
C68   C72   A    
C113  H59   S    
Cr8   O28   S    
C61   C81   A    
Cr4   O44   S    
C7    C11   A    
C43   C44   A    
C94   O10   A    
C34   C41   A    
C37   C38   A    
C18   H34   S    
C25   H49   S    
C66   C82   A    
C22   H40   S    
C63   C83   A    
C68   Cl4   S    
Cr1   O45   S    
C54   C70   A    
C11   C27   S    
C16   C20   A    
Cr9   O17   S    
C49   H5    S    
C53   C92   S    
C54   C58   A    
C78   Cl6   S    
C114  H61   S    
Cr2   O42   S    
C57   C61   A    
C35   C44   A    
Cr1   O41   S    
C63   C79   S    
C45   C101  S    
C58   C62   A    
Cr3   O47   S    
C103  H28   S    
C26   H46   S    
C56   C89   S    
C12   C28   S    
Cr5   O5    S    
C67   Cl3   S    
C106  O54   S    
C23   H43   S    
C10   C30   A    
Cr7   O27   S    
C113  H57   S    
C13   H29   S    
C78   H22   S    
Cr11  O11   S    
Cr6   O18   S    
C6    C22   S    
C27   H47   S    
Cr12  O12   S    
C22   C26   S    
Cr5   O17   S    
O56   C116  S    
C58   C74   S    
C24   C28   S    
C70   H10   S    
Cr12  O36   S    
Cr11  O19   S    
C101  C106  D    
C65   C69   A    
C115  H64   S    
C21   C25   S    
O54   C114  S    
C116  H68   S    
C69   H9    S    
C93   O9    A    
Cr10  O38   S    
C91   O47   A    
C34   C38   A    
C105  O53   S    
C29   C85   S    
C14   C18   A    
C90   O46   A    
C24   H38   S    
C76   C80   S    
C89   O45   A    
C76   H20   S    
C72   H12   S    
C17   C109  A    
C6    C10   A    
C84   C100  S    
Cr3   O3    S    
C47   O35   A    
C15   C31   A    
C38   C50   S    
C85   O1    A    
Cr7   O51   S    
C16   C32   A    
Cr9   O37   S    
C105  C106  S    
Cr12  O20   S    
Cr7   O31   S    
C115  H65   S    
C13   C17   A    
Cr6   O30   S    
C66   Cl2   S    
C19   H35   S    
C96   O12   A    
Cr5   O29   S    
C25   H45   S    
C3    O27   A    
C54   C91   S    
Cr2   O2    S    
C14   H30   S    
Cr9   O9    S    
C9    C29   A    
Cr11  O15   S    
C36   C95   S    
C52   H2    S    
C102  H25   S    
C66   C70   A    
C77   H21   S    
C5    C109  A    
C42   H54   S    
C41   H53   S    
C7    C23   S    
Cr2   O18   S    
Cr4   O4    S    
Cr5   O49   S    
C1    O25   A    
Cr8   O20   S    
C97   O41   A    
C59   C63   A    
Cr1   O17   S    
C114  H62   S    
C67   C71   A    
C62   C82   A    
C80   Cl8   S    
Cr12  O16   S    
C33   C37   A    
C88   O4    A    
Cr3   O43   S    
C21   H41   S    
C11   C31   A    
C22   H42   S    
C56   C60   A    
C80   H24   S    
C5    C21   S    
C92   O48   A    
C73   C77   S    
C51   H7    S    
C49   C50   S    
C20   H36   S    
C91   O51   A    
C86   O2    A    
C92   O52   A    
C90   O50   A    
C36   C43   A    
C83   C99   S    
C5    C9    A    
C89   O49   A    
C75   C79   S    
C104  C107  D    
C55   C71   A    
Cr6   O50   S    
Cr9   O33   S    
C74   C78   S    
C23   H37   S    
C32   C88   S    
