data_mof_unit_39395.cif
_audit_creation_date              2012-12-10T19:11:24-0500
_audit_creation_method            fapswitch 2.2
_symmetry_space_group_name_H-M    P1
_symmetry_Int_Tables_number       1
_space_group_crystal_system       triclinic
_cell_length_a                    10.710014
_cell_length_b                    9.814154
_cell_length_c                    10.538552
_cell_angle_alpha                 88.658599
_cell_angle_beta                  88.11298
_cell_angle_gamma                 90.149848
_cell_volume                      1106.79386219

loop_
_atom_site_label
_atom_site_type_symbol
_atom_type_description
_atom_site_fract_x
_atom_site_fract_y
_atom_site_fract_z
_atom_type_partial_charge
C1    C     C_R   0.258319 0.499376 0.500890 0.916978
C2    C     C_3   0.932598 0.362872 0.438547 -0.393234
C3    C     C_3   0.382672 0.080737 0.447045 -0.230066
C4    C     C_3   0.376857 0.920193 0.461992 -0.228896
C5    C     C_3   0.609421 0.081533 0.422716 -0.132789
C6    C     C_3   0.600025 0.920694 0.410513 -0.134563
C7    C     C_3   0.509894 0.077881 0.627706 -0.274826
C8    C     C_3   0.522140 0.916577 0.625727 -0.270478
C9    C     C_R   0.498657 0.501374 0.257426 0.878431
C10   C     C_R   0.742105 0.500003 0.491898 0.853556
C11   C     C_R   0.497727 0.498832 0.742375 0.995831
C12   C     C_3   0.495622 0.503356 0.122376 -0.020843
C13   C     C_3   0.486352 0.630422 0.036753 -0.234241
C14   C     C_3   0.396859 0.428025 0.048738 -0.204912
C15   C     C_3   0.389724 0.554902 0.960801 0.015305
C16   C     C_3   0.494871 0.497837 0.877381 -0.030607
C17   C     C_3   0.592632 0.573329 0.951729 -0.148026
C18   C     C_3   0.503908 0.370398 0.963337 -0.083176
C19   C     C_3   0.602198 0.446117 0.039762 -0.056463
C20   C     C_2   0.273627 0.625557 0.920520 0.363917
C21   C     C_2   0.640197 0.152949 0.296144 0.967073
C22   C     C_2   0.588244 0.877318 0.274205 0.968917
C23   C     C_3   0.079227 0.612229 0.403276 -0.192991
C24   C     C_2   0.144806 0.601571 0.273246 0.431318
C25   C     C_2   0.117525 0.443382 0.744166 0.383180
C26   C     C_2   0.881575 0.619604 0.270444 0.595077
C27   C     C_2   0.865516 0.404517 0.717486 0.411750
C28   C     C_3   0.065233 0.527448 0.634259 -0.253676
C29   C     C_3   0.933728 0.617935 0.403008 -0.231051
C30   C     C_3   0.920001 0.517440 0.630566 -0.226392
C31   C     C_3   0.072970 0.356345 0.457268 -0.364569
C32   C     C_3   0.121987 0.497743 0.498867 0.064984
C33   C     C_3   0.879226 0.499177 0.490542 -0.050542
H1    H     H_    0.916306 0.356947 0.335587 0.236078
H2    H     H_    0.454368 0.871037 0.696848 0.221158
H3    H     H_    0.694655 0.100096 0.478074 0.104191
H4    H     H_    0.690907 0.878093 0.440816 0.115417
H5    H     H_    0.473176 0.737569 0.061977 0.216027
H6    H     H_    0.317065 0.368802 0.091584 0.196223
H7    H     H_    0.671735 0.634420 0.909811 0.183378
H8    H     H_    0.511544 0.264141 0.930043 0.173510
H9    H     H_    0.690965 0.404836 0.074969 0.149372
H10   H     H_    0.109777 0.712345 0.439611 0.100502
H11   H     H_    0.089089 0.634944 0.655325 0.150446
H12   H     H_    0.887746 0.271607 0.485032 0.196546
H13   H     H_    0.904352 0.716112 0.445756 0.141983
H14   H     H_    0.881473 0.615929 0.665008 0.160120
H15   H     H_    0.121263 0.322505 0.368564 0.214319
H16   H     H_    0.091774 0.276324 0.530456 0.205881
H17   H     H_    0.187228 0.610699 0.975471 0.120575
H18   H     H_    0.777830 0.224611 0.177191 0.334689
H19   H     H_    0.676965 0.804084 0.118589 0.342898
H20   H     H_    0.211136 0.679897 0.241183 0.073020
H21   H     H_    0.083236 0.463447 0.839845 0.098659
H22   H     H_    0.812772 0.544988 0.243853 0.017975
H23   H     H_    0.372826 0.111697 0.346024 0.211110
H24   H     H_    0.889930 0.298864 0.702136 0.086880
H25   H     H_    0.341421 0.872926 0.375804 0.185172
H26   H     H_    0.300404 0.124252 0.498545 0.162830
H27   H     H_    0.304603 0.892409 0.536671 0.161578
H28   H     H_    0.591843 0.121937 0.674570 0.161965
H29   H     H_    0.616396 0.885784 0.657135 0.149925
H30   H     H_    0.426690 0.106175 0.687403 0.192581
N1    N     N_3   0.499750 0.138610 0.497240 -0.087838
N2    N     N_3   0.499750 0.861390 0.497240 -0.088701
O1    O     O_R   0.314910 0.616040 0.499970 -0.655954
O2    O     O_2   0.562916 0.162351 0.213584 -0.607621
O3    O     O_R   0.763279 0.193103 0.268627 -0.855355
O4    O     O_2   0.494941 0.904649 0.215266 -0.653169
O5    O     O_R   0.689700 0.816621 0.212386 -0.789603
O6    O     O_2   0.125479 0.505745 0.204653 -0.629449
O7    O     O_2   0.193277 0.352102 0.728855 -0.592086
O8    O     O_2   0.915443 0.706867 0.192079 -0.536877
O9    O     O_2   0.795916 0.431573 0.806998 -0.628112
O10   O     O_R   0.314910 0.383960 0.499970 -0.603388
O11   O     O_R   0.500080 0.616020 0.313900 -0.631167
O12   O     O_R   0.500080 0.383980 0.313900 -0.603762
O13   O     O_R   0.685320 0.616040 0.499930 -0.644952
O14   O     O_R   0.685320 0.383960 0.499930 -0.629182
O15   O     O_R   0.500150 0.616060 0.686000 -0.608729
O16   O     O_R   0.500150 0.383940 0.686000 -0.617990
O17   O     O_2   0.277008 0.706060 0.830488 -0.596258
Zn1   Zn    Zn3+2 0.500150 0.654960 0.499940 0.946651
Zn2   Zn    Zn3+2 0.500150 0.345040 0.499940 0.964561

loop_
_geom_bond_atom_site_label_1
_geom_bond_atom_site_label_2
_ccdc_geom_bond_type
C20   O17   D    
C14   C18   S    
C26   H22   S    
C10   O13   A    
C7    C8    S    
C3    N1    S    
C11   O16   A    
C25   C28   S    
C23   C29   S    
O14   Zn2   S    
O10   Zn2   S    
N2    Zn1   S    
C15   C16   S    
C6    C22   S    
C5    H3    S    
C29   C33   S    
C26   O8    D    
C23   H10   S    
C18   C19   S    
C11   C16   S    
C4    N2    S    
C7    H28   S    
C20   H17   S    
C14   H6    S    
O13   Zn1   S    
C6    N2    S    
N1    Zn2   S    
C16   C17   S    
C23   C24   S    
C9    O11   A    
C27   O9    D    
C22   O4    D    
C19   H9    S    
C2    H1    S    
O1    Zn1   S    
C8    N2    S    
C21   O2    D    
C27   C30   S    
C31   H16   S    
O15   Zn1   S    
O11   Zn1   S    
C2    H12   S    
C15   C20   S    
C1    O10   A    
C30   H14   S    
C28   C32   S    
C25   H21   S    
C27   H24   S    
C18   H8    S    
O12   Zn2   S    
C24   H20   S    
C28   H11   S    
C1    C32   S    
C5    N1    S    
C2    C31   S    
C8    H2    S    
C3    H23   S    
C31   C32   S    
C4    H27   S    
C1    O1    A    
C6    H4    S    
C25   O7    D    
C9    O12   A    
C7    H30   S    
C13   H5    S    
C2    C33   S    
C12   C14   S    
C31   H15   S    
C13   C15   S    
C21   O3    S    
C3    C4    S    
O16   Zn2   S    
C30   C33   S    
C10   O14   A    
C13   C17   S    
C29   H13   S    
C23   C32   S    
C28   C30   S    
C5    C6    S    
C12   C19   S    
C17   C19   S    
C22   O5    S    
C10   C33   S    
H18   O3    S    
C9    C12   S    
C7    N1    S    
H19   O5    S    
C11   O15   A    
C5    C21   S    
C12   C13   S    
C26   C29   S    
C16   C18   S    
C4    H25   S    
C14   C15   S    
C17   H7    S    
C24   O6    D    
C8    H29   S    
C3    H26   S    
