data_mof_unit_32406.cif
_audit_creation_date              2012-12-10T17:59:49-0500
_audit_creation_method            fapswitch 2.2
_symmetry_space_group_name_H-M    P1
_symmetry_Int_Tables_number       1
_space_group_crystal_system       triclinic
_cell_length_a                    10.875096
_cell_length_b                    9.624599
_cell_length_c                    15.880191
_cell_angle_alpha                 89.244096
_cell_angle_beta                  92.631635
_cell_angle_gamma                 89.627386
_cell_volume                      1660.2152831

loop_
_atom_site_label
_atom_site_type_symbol
_atom_type_description
_atom_site_fract_x
_atom_site_fract_y
_atom_site_fract_z
_atom_type_partial_charge
C1    C     C_R   0.262080 0.500313 0.500843 0.836708
C2    C     C_R   0.932231 0.624146 0.489561 -0.220799
C3    C     C_R   0.870304 0.499623 0.501594 -0.059903
C4    C     C_R   0.127237 0.500643 0.502619 -0.013704
C5    C     C_R   0.430144 0.075058 0.441178 0.256825
C6    C     C_R   0.431745 0.928450 0.440470 0.210009
C7    C     C_R   0.499142 0.500779 0.340510 0.816166
C8    C     C_R   0.571833 0.921770 0.557406 0.249051
C9    C     C_R   0.574845 0.069994 0.556739 0.205077
C10   C     C_R   0.737187 0.499697 0.500545 0.807200
C11   C     C_R   0.500021 0.499119 0.659506 0.821529
C12   C     C_3   0.602348 0.561715 0.951384 -0.496494
C13   C     C_3   0.359222 0.562797 0.045363 0.331887
C14   C     C_3   0.503634 0.331742 0.054541 0.335140
C15   C     C_3   0.495957 0.327697 0.951586 0.376076
C16   C     C_3   0.365659 0.577462 0.943975 0.371546
C17   C     C_1   0.495210 0.496398 0.748753 -0.076114
C18   C     C_3   0.489774 0.494364 0.082918 -0.030452
C19   C     C_3   0.482320 0.486451 0.916160 -0.081395
C20   C     C_3   0.603492 0.579669 0.049071 0.228872
C21   C     C_1   0.488904 0.492144 0.823928 0.151464
C22   C     C_1   0.492983 0.500224 0.175443 0.123302
C23   C     C_1   0.496155 0.502015 0.251006 -0.094244
C24   C     C_R   0.063403 0.374924 0.516911 0.127213
C25   C     C_R   0.059682 0.626294 0.489854 0.128174
C26   C     C_R   0.935700 0.375868 0.515505 -0.222553
Cu1   Cu    Cu3+1 0.500020 0.640660 0.500000 0.981342
Cu2   Cu    Cu3+1 0.500020 0.359340 0.500000 0.971706
H1    H     H_    0.616998 0.662426 0.918436 0.192571
H2    H     H_    0.749874 0.104730 0.598209 0.176977
H3    H     H_    0.251214 0.387695 0.026356 0.311555
H4    H     H_    0.172818 0.517542 0.061978 0.310122
H5    H     H_    0.406754 0.254771 0.155320 0.231145
H6    H     H_    0.412726 0.145239 0.075554 0.321227
H7    H     H_    0.595736 0.038789 0.151613 0.367513
H8    H     H_    0.147417 0.854013 0.092874 0.389780
H9    H     H_    0.629657 0.171085 0.940448 0.316470
H10   H     H_    0.613124 0.272865 0.855899 0.223665
H11   H     H_    0.310128 0.786589 0.923754 0.318877
H12   H     H_    0.686397 0.504522 0.934191 0.236187
H13   H     H_    0.457787 0.773005 0.951596 0.280515
H14   H     H_    0.603491 0.740750 0.134389 0.243815
H15   H     H_    0.668419 0.781331 0.043611 0.252132
H16   H     H_    0.794309 0.583019 0.059614 0.239836
H17   H     H_    0.728530 0.549528 0.151092 0.233971
H18   H     H_    0.097850 0.174384 0.488640 0.218092
H19   H     H_    0.101420 0.208345 0.593005 0.239120
H20   H     H_    0.093535 0.824723 0.523867 0.230727
H21   H     H_    0.086042 0.798436 0.418638 0.227957
H22   H     H_    0.306953 0.223329 0.393418 0.265717
H23   H     H_    0.888079 0.279136 0.526170 0.151441
H24   H     H_    0.420603 0.173942 0.326711 0.245964
H25   H     H_    0.319452 0.778049 0.388953 0.285801
H26   H     H_    0.432494 0.838089 0.326012 0.261407
H27   H     H_    0.881949 0.720931 0.479107 0.159119
H28   H     H_    0.079476 0.388265 0.855995 0.382937
H29   H     H_    0.215767 0.092228 0.933056 0.399535
H30   H     H_    0.740228 0.863977 0.606496 0.196158
H31   H     H_    0.628776 0.875376 0.677795 0.241190
H32   H     H_    0.660257 0.238927 0.613401 0.281106
N1    N     N_R   0.500030 0.852070 0.500020 -0.211650
N2    N     N_3   0.722040 0.529440 0.086482 -0.459533
N3    N     N_3   0.126931 0.245898 0.534273 -0.547343
N4    N     N_3   0.118870 0.756915 0.476643 -0.566973
N5    N     N_3   0.361345 0.142657 0.373080 -0.551142
N6    N     N_3   0.368495 0.864251 0.370291 -0.522726
N7    N     N_R   0.500030 0.147930 0.500020 -0.216442
N8    N     N_3   0.647921 0.843464 0.617060 -0.510588
N9    N     N_3   0.661594 0.132329 0.615685 -0.579146
N10   N     N_3   0.258929 0.468786 0.067724 -0.524667
N11   N     N_3   0.403267 0.250331 0.089522 -0.541284
N12   N     N_3   0.614288 0.274377 0.921745 -0.526643
N13   N     N_3   0.387779 0.723640 0.917835 -0.503013
N14   N     N_3   0.595151 0.727578 0.069078 -0.521388
O1    O     O_R   0.319660 0.618740 0.500000 -0.564010
O2    O     O_2   0.236292 0.567181 0.791783 -0.267049
O3    O     O_3   0.154174 0.385507 0.894122 -0.467892
O4    O     O_2   0.337652 0.254025 0.818358 -0.228700
O5    O     O_2   0.443371 0.066103 0.894307 -0.298278
O6    O     O_3   0.257460 0.171208 0.961461 -0.487696
O7    O     O_2   0.760649 0.273429 0.058474 -0.202691
O8    O     O_2   0.663482 0.277234 0.193481 -0.322240
O9    O     O_3   0.624429 0.068627 0.095927 -0.515385
O10   O     O_2   0.305257 0.703615 0.189588 -0.305515
O11   O     O_2   0.392913 0.852157 0.082997 -0.287891
O12   O     O_R   0.319660 0.381260 0.500000 -0.566150
O13   O     O_3   0.170951 0.773027 0.059114 -0.494084
O14   O     O_R   0.500020 0.618840 0.379440 -0.600195
O15   O     O_R   0.500020 0.381160 0.379440 -0.585685
O16   O     O_R   0.680370 0.618830 0.500010 -0.570540
O17   O     O_R   0.680370 0.381170 0.500010 -0.607738
O18   O     O_R   0.500010 0.618730 0.620560 -0.537477
O19   O     O_R   0.500010 0.381270 0.620560 -0.573774
O20   O     O_2   0.123708 0.645425 0.910283 -0.255588
S1    S     S_3+6 0.218333 0.542150 0.884024 0.034669
S2    S     S_3+6 0.381236 0.204527 0.904818 0.023232
S3    S     S_3+6 0.643845 0.241862 0.101941 0.002267
S4    S     S_3+6 0.313138 0.727939 0.096349 -0.005310

loop_
_geom_bond_atom_site_label_1
_geom_bond_atom_site_label_2
_ccdc_geom_bond_type
C12   H1    S    
C14   N11   S    
C14   C18   S    
C5    N7    A    
C4    C25   A    
C15   C19   S    
C15   N12   S    
C13   C18   S    
C6    N1    A    
C19   C21   S    
C9    N9    S    
C2    H27   S    
O2    S1    D    
H19   N3    S    
C5    C6    A    
C4    C24   A    
H20   N4    S    
C13   N10   S    
C7    O15   A    
H17   N2    S    
Cu1   O16   S    
C13   S4    S    
O11   S4    D    
Cu1   N1    S    
C11   O18   A    
H3    N10   S    
O4    S2    D    
C8    C9    A    
Cu2   O15   S    
O6    S2    S    
C8    N1    A    
O13   S4    S    
C11   O19   A    
H15   N14   S    
H21   N4    S    
H29   O6    S    
Cu1   O14   S    
Cu1   O1    S    
H8    O13   S    
H10   N12   S    
H14   N14   S    
C16   N13   S    
C1    O1    A    
Cu2   N7    S    
C5    N5    S    
C15   S2    S    
H7    O9    S    
H4    N10   S    
H16   N2    S    
O3    S1    S    
C17   C21   T    
H28   O3    S    
Cu2   O19   S    
C25   N4    S    
C12   H12   S    
C9    N7    A    
H31   N8    S    
C7    O14   A    
C14   C15   S    
C12   C20   S    
C20   N14   S    
Cu1   O18   S    
H25   N6    S    
H30   N8    S    
C10   O17   A    
C8    N8    S    
C24   N3    S    
Cu2   O12   S    
O8    S3    D    
H9    N12   S    
H2    N9    S    
C14   S3    S    
C1    O12   A    
C11   C17   S    
C16   S1    S    
C18   C22   S    
C3    C26   A    
C24   C26   A    
H26   N6    S    
H18   N3    S    
C1    C4    S    
O10   S4    D    
C2    C3    A    
O5    S2    D    
C3    C10   S    
C26   H23   S    
C2    C25   A    
O7    S3    D    
H32   N9    S    
C16   C19   S    
C7    C23   S    
C12   C19   S    
Cu2   O17   S    
C18   C20   S    
H11   N13   S    
C20   N2    S    
O20   S1    D    
H22   N5    S    
H5    N11   S    
H13   N13   S    
C6    N6    S    
C10   O16   A    
O9    S3    S    
C13   C16   S    
Cu1   Cu2   S    
C22   C23   T    
H6    N11   S    
H24   N5    S    
