data_mof_unit_11084.cif
_audit_creation_date              2012-12-10T19:42:57-0500
_audit_creation_method            fapswitch 2.2
_symmetry_space_group_name_H-M    P1
_symmetry_Int_Tables_number       1
_space_group_crystal_system       triclinic
_cell_length_a                    10.898442
_cell_length_b                    12.977192
_cell_length_c                    11.684845
_cell_angle_alpha                 99.798117
_cell_angle_beta                  95.717374
_cell_angle_gamma                 90.800235
_cell_volume                      1619.58870248

loop_
_atom_site_label
_atom_site_type_symbol
_atom_type_description
_atom_site_fract_x
_atom_site_fract_y
_atom_site_fract_z
_atom_type_partial_charge
C1    C     C_R   0.496311 0.299165 0.478716 0.840531
C2    C     C_R   0.564638 0.983940 0.649412 0.429081
C3    C     C_R   0.434077 0.125236 0.363407 -0.275701
C4    C     C_R   0.554859 0.875605 0.639227 -0.274890
C5    C     C_R   0.528066 0.139475 0.562786 -0.267875
C6    C     C_R   0.460834 0.861017 0.439671 -0.245835
C7    C     C_R   0.519839 0.031355 0.554415 0.017057
C8    C     C_R   0.466272 0.969453 0.448995 0.021588
C9    C     C_R   0.467753 0.364857 0.021470 0.337340
C10   C     C_R   0.544009 0.633137 0.978829 0.326167
C11   C     C_R   0.458731 0.382908 0.143135 0.037192
C12   C     C_R   0.502134 0.700901 0.521406 0.835636
C13   C     C_R   0.549788 0.615380 0.857102 0.038540
C14   C     C_R   0.505260 0.563272 0.157032 0.031563
C15   C     C_R   0.495944 0.436701 0.843094 0.033029
C16   C     C_R   0.262199 0.506225 0.499053 0.838334
C17   C     C_R   0.738068 0.497438 0.501273 0.838624
C18   C     C_R   0.512610 0.549864 0.034461 -0.087702
C19   C     C_R   0.491561 0.449767 0.965947 -0.079708
C20   C     C_R   0.133505 0.521493 0.106024 -0.148776
C21   C     C_R   0.874845 0.586238 0.914520 -0.143787
C22   C     C_R   0.105895 0.535944 0.221750 -0.106578
C23   C     C_R   0.872412 0.497048 0.503875 -0.170063
C24   C     C_R   0.904952 0.539520 0.804536 -0.092512
C25   C     C_R   0.094120 0.449419 0.278184 0.198512
C26   C     C_R   0.898923 0.596705 0.712356 0.188366
C27   C     C_R   0.113988 0.348732 0.218675 -0.101167
C28   C     C_R   0.859051 0.700127 0.730558 -0.110052
C29   C     C_R   0.136092 0.334364 0.101477 -0.179665
C30   C     C_R   0.829997 0.746764 0.841159 -0.174471
C31   C     C_R   0.146204 0.420571 0.045153 -0.117022
C32   C     C_R   0.839711 0.690326 0.933306 -0.099396
C33   C     C_R   0.925034 0.449597 0.403126 0.121006
C34   C     C_R   0.127904 0.512919 0.496378 -0.169742
C35   C     C_R   0.075805 0.560819 0.597166 0.120906
C36   C     C_3   0.358237 0.212408 0.947138 0.001763
C37   C     C_3   0.360564 0.111164 0.859333 -0.258344
C38   C     C_3   0.236101 0.052352 0.839830 -0.964225
C39   C     C_3   0.487837 0.801675 0.036110 0.048484
C40   C     C_3   0.544437 0.911521 0.043011 -0.312055
C41   C     C_3   0.644572 0.940538 0.145329 -0.691882
C42   C     C_3   0.237762 0.976410 0.238231 0.022910
C43   C     C_3   0.177282 0.899725 0.133286 -0.328055
C44   C     C_3   0.040181 0.919754 0.110263 -0.928488
C45   C     C_R   0.948380 0.551541 0.601752 -0.089357
C46   C     C_3   0.736457 0.050633 0.767095 0.013716
C47   C     C_3   0.780917 0.105955 0.890673 -0.266502
C48   C     C_3   0.920990 0.118756 0.909030 -0.960742
C49   C     C_R   0.050752 0.465817 0.395879 -0.094752
C50   C     C_R   0.505700 0.814209 0.533947 -0.115243
C51   C     C_R   0.487459 0.186115 0.467234 -0.112863
C52   C     C_R   0.418433 0.017152 0.355177 0.437121
Cu1   Cu    Cu3+1 0.509250 0.507730 0.615930 0.961580
Cu2   Cu    Cu3+1 0.490750 0.492270 0.384070 0.965495
H1    H     H_    0.162947 0.409457 0.954227 0.126767
H2    H     H_    0.936367 0.459945 0.791916 0.122609
H3    H     H_    0.105520 0.281286 0.261003 0.120610
H4    H     H_    0.854635 0.745340 0.660506 0.114925
H5    H     H_    0.142600 0.256034 0.054060 0.120708
H6    H     H_    0.801441 0.826986 0.856175 0.129514
H7    H     H_    0.421070 0.812619 0.359258 0.189540
H8    H     H_    0.568343 0.187686 0.643085 0.196949
H9    H     H_    0.587464 0.839768 0.713379 0.152568
H10   H     H_    0.402506 0.161587 0.289387 0.146652
H11   H     H_    0.285459 0.261395 0.912089 0.136081
H12   H     H_    0.819579 0.727116 0.019290 0.172973
H13   H     H_    0.336971 0.192322 0.032006 0.135392
H14   H     H_    0.384135 0.129774 0.774621 0.243876
H15   H     H_    0.432017 0.060284 0.892042 0.247026
H16   H     H_    0.207724 0.036490 0.923964 0.260142
H17   H     H_    0.243040 0.976656 0.780394 0.280050
H18   H     H_    0.164944 0.099123 0.799244 0.260778
H19   H     H_    0.431726 0.800668 0.110140 0.184167
H20   H     H_    0.424213 0.784459 0.953642 0.113340
H21   H     H_    0.584855 0.916222 0.960298 0.197094
H22   H     H_    0.470105 0.969095 0.052585 0.201489
H23   H     H_    0.474359 0.360828 0.789876 0.169130
H24   H     H_    0.611179 0.925436 0.227750 0.262673
H25   H     H_    0.670687 0.024863 0.155400 0.224433
H26   H     H_    0.728001 0.894377 0.128965 0.246457
H27   H     H_    0.223059 0.057464 0.221325 0.139721
H28   H     H_    0.192735 0.965121 0.317078 0.151489
H29   H     H_    0.223529 0.908050 0.054657 0.220040
H30   H     H_    0.188619 0.818231 0.149480 0.211704
H31   H     H_    0.990275 0.903180 0.183824 0.254433
H32   H     H_    0.001219 0.867979 0.028972 0.268404
H33   H     H_    0.026370 0.002238 0.099306 0.259813
H34   H     H_    0.525248 0.639421 0.210096 0.167846
H35   H     H_    0.768453 0.096999 0.703137 0.151662
H36   H     H_    0.777044 0.971712 0.752611 0.133496
H37   H     H_    0.739930 0.184442 0.906909 0.257376
H38   H     H_    0.749789 0.059620 0.954730 0.222275
H39   H     H_    0.963835 0.041224 0.891942 0.265413
H40   H     H_    0.949457 0.155827 0.000768 0.270300
H41   H     H_    0.953949 0.169455 0.850058 0.257405
H42   H     H_    0.575479 0.680296 0.817034 0.147882
H43   H     H_    0.443165 0.316201 0.183894 0.136665
H44   H     H_    0.141637 0.588236 0.062581 0.144026
H45   H     H_    0.880757 0.542367 0.985690 0.158308
H46   H     H_    0.091246 0.614223 0.266782 0.117114
I1    I     I_    0.819703 0.344475 0.262184 -0.405530
I2    I     I_    0.184062 0.662927 0.738408 -0.455237
N1    N     N_R   0.523180 0.519350 0.790130 -0.206937
N2    N     N_R   0.476820 0.480650 0.209870 -0.201274
O1    O     O_R   0.506570 0.354460 0.582000 -0.603924
O2    O     O_3   0.582549 0.729196 0.043572 -0.620582
O3    O     O_3   0.364986 0.956877 0.252714 -0.648111
O4    O     O_3   0.606548 0.043504 0.756073 -0.638169
O5    O     O_R   0.493430 0.645540 0.418000 -0.605758
O6    O     O_R   0.490940 0.341410 0.386200 -0.588927
O7    O     O_R   0.509060 0.658590 0.613800 -0.589135
O8    O     O_R   0.327460 0.506540 0.597900 -0.546334
O9    O     O_R   0.672540 0.493460 0.402100 -0.540486
O10   O     O_R   0.311830 0.493480 0.402100 -0.585746
O11   O     O_R   0.688170 0.506520 0.597900 -0.582685
O12   O     O_3   0.474688 0.263922 0.960678 -0.609573

loop_
_geom_bond_atom_site_label_1
_geom_bond_atom_site_label_2
_ccdc_geom_bond_type
C39   O2    S    
C38   H16   S    
C23   C45   A    
C48   H41   S    
C37   H15   S    
C27   C29   A    
C43   H29   S    
C47   H38   S    
C14   C18   A    
C2    C7    A    
C42   H28   S    
C35   I2    S    
C41   H26   S    
C36   H13   S    
C17   O9    A    
C7    C8    A    
C46   H35   S    
Cu1   Cu2   S    
C15   C19   A    
C4    H9    S    
C16   O8    A    
C17   C23   S    
C48   H40   S    
C33   I1    S    
C6    H7    S    
Cu2   N2    S    
C36   C37   S    
C24   C26   A    
C18   C19   A    
C21   H45   S    
C33   C49   A    
Cu2   O9    S    
Cu2   O6    S    
C34   C35   A    
C39   H20   S    
C26   C45   S    
C16   C34   S    
C46   C47   S    
C9    C19   A    
C29   H5    S    
C52   O3    S    
C23   C33   A    
C22   C25   A    
C30   H6    S    
C11   N2    A    
C13   N1    A    
C44   H33   S    
C42   O3    S    
C8    C52   A    
Cu1   O7    S    
C43   H30   S    
C42   H27   S    
C44   H32   S    
C12   O5    A    
C10   C18   A    
C21   C32   A    
C38   H18   S    
C22   H46   S    
C48   H39   S    
C13   H42   S    
C37   H14   S    
C27   H3    S    
C41   H24   S    
C5    C7    A    
C3    C51   A    
C36   H11   S    
C6    C8    A    
C3    H10   S    
C40   H22   S    
Cu2   O5    S    
C46   O4    S    
C2    C4    A    
C43   C44   S    
C37   C38   S    
C1    O6    A    
C9    C11   A    
C14   N2    A    
C47   C48   S    
C6    C50   A    
C1    C51   S    
Cu1   O8    S    
C40   C41   S    
C20   C22   A    
C10   O2    S    
C24   H2    S    
C42   C43   S    
C44   H31   S    
C35   C45   A    
C39   C40   S    
C17   O11   A    
C32   H12   S    
C38   H17   S    
C34   C49   A    
C9    O12   S    
C47   H37   S    
C10   C13   A    
C16   O10   A    
C41   H25   S    
C12   C50   S    
C3    C52   A    
C46   H36   S    
C28   H4    S    
C25   C27   A    
C26   C28   A    
C40   H21   S    
C11   H43   S    
C31   H1    S    
C28   C30   A    
C14   H34   S    
C29   C31   A    
C30   C32   A    
C15   H23   S    
Cu1   N1    S    
Cu2   O10   S    
C2    O4    S    
C5    H8    S    
C39   H19   S    
C25   C49   S    
Cu1   O1    S    
C20   H44   S    
C21   C24   A    
C4    C50   A    
C5    C51   A    
C15   N1    A    
C12   O7    A    
Cu1   O11   S    
C1    O1    A    
C20   C31   A    
C36   O12   S    
