data_mof_unit_22444.cif
_audit_creation_date              2013-03-05T15:44:23-0500
_audit_creation_method            fapswitch 2.2
_symmetry_space_group_name_H-M    P1
_symmetry_Int_Tables_number       1
_space_group_crystal_system       triclinic
_cell_length_a                    19.060641
_cell_length_b                    11.514656
_cell_length_c                    18.825335
_cell_angle_alpha                 90.181659
_cell_angle_beta                  90.523291
_cell_angle_gamma                 90.06101
_cell_volume                      4131.52729975

loop_
_atom_site_label
_atom_site_type_symbol
_atom_site_description
_atom_site_fract_x
_atom_site_fract_y
_atom_site_fract_z
_atom_type_partial_charge
O1    O     O_R   0.784320 0.290430 0.830510 -0.465749
O2    O     O_R   0.215680 0.290430 0.169490 -0.430289
O3    O     O_R   0.284320 0.790430 0.830510 -0.463258
O4    O     O_R   0.715680 0.790430 0.169490 -0.452002
O5    O     O_R   0.762640 0.040960 0.825200 -0.441992
O6    O     O_R   0.237360 0.040960 0.174800 -0.468955
O7    O     O_R   0.262640 0.540960 0.825200 -0.437167
O8    O     O_R   0.737360 0.540960 0.174800 -0.433442
C1    C     C_R   0.729041 0.953690 0.851191 0.596077
C2    C     C_R   0.270384 0.953328 0.149150 0.597940
C3    C     C_R   0.227982 0.454655 0.852431 0.602379
C4    C     C_R   0.769659 0.449894 0.150261 0.625397
O9    O     O_R   0.667400 0.923970 0.829950 -0.437271
O10   O     O_R   0.332600 0.923970 0.170050 -0.440272
O11   O     O_R   0.167400 0.423970 0.829950 -0.439875
O12   O     O_R   0.832600 0.423970 0.170050 -0.470929
O13   O     O_R   0.553960 0.081340 0.821780 -0.529083
O14   O     O_R   0.446040 0.081340 0.178220 -0.536087
O15   O     O_R   0.053960 0.581340 0.821780 -0.529566
O16   O     O_R   0.946040 0.581340 0.178220 -0.529437
C5    C     C_R   0.529276 0.176565 0.849243 0.552593
C6    C     C_R   0.468007 0.176454 0.148923 0.571203
C7    C     C_R   0.028966 0.676669 0.848981 0.559074
C8    C     C_R   0.967079 0.676553 0.148361 0.574816
O17   O     O_R   0.543180 0.283240 0.826740 -0.412060
O18   O     O_R   0.456820 0.283240 0.173260 -0.402615
O19   O     O_R   0.043180 0.783240 0.826740 -0.407878
O20   O     O_R   0.956820 0.783240 0.173260 -0.417656
O21   O     O_R   0.678360 0.375140 0.822710 -0.430827
O22   O     O_R   0.321640 0.375140 0.177290 -0.449035
O23   O     O_R   0.178360 0.875140 0.822710 -0.433966
O24   O     O_R   0.821640 0.875140 0.177290 -0.429997
C9    C     C_R   0.725510 0.317045 0.861561 0.550268
C10   C     C_R   0.263757 0.357292 0.144725 0.618130
C11   C     C_R   0.226405 0.820954 0.861272 0.553351
C12   C     C_R   0.774318 0.821998 0.138899 0.573390
O25   O     O_R   0.785050 0.289380 0.670560 -0.542714
O26   O     O_R   0.214950 0.289380 0.329440 -0.508281
O27   O     O_R   0.285050 0.789380 0.670560 -0.518028
O28   O     O_R   0.714950 0.789380 0.329440 -0.542646
O29   O     O_R   0.763320 0.039990 0.676930 -0.449381
O30   O     O_R   0.236680 0.039990 0.323070 -0.472530
O31   O     O_R   0.263320 0.539990 0.676930 -0.469204
O32   O     O_R   0.736680 0.539990 0.323070 -0.454368
C13   C     C_R   0.726485 0.960355 0.645990 0.593803
C14   C     C_R   0.271917 0.956329 0.352275 0.568368
C15   C     C_R   0.228064 0.456293 0.647670 0.569835
C16   C     C_R   0.773543 0.460579 0.354071 0.590326
O33   O     O_R   0.668130 0.922920 0.670000 -0.438142
O34   O     O_R   0.331870 0.922920 0.330000 -0.437886
O35   O     O_R   0.168130 0.422920 0.670000 -0.437852
O36   O     O_R   0.831870 0.422920 0.330000 -0.437157
O37   O     O_R   0.554640 0.080370 0.673500 -0.492819
O38   O     O_R   0.445360 0.080370 0.326500 -0.499758
O39   O     O_R   0.054640 0.580370 0.673500 -0.500253
O40   O     O_R   0.945360 0.580370 0.326500 -0.486562
C17   C     C_R   0.532423 0.176044 0.643379 0.541412
C18   C     C_R   0.471507 0.175653 0.353631 0.533952
C19   C     C_R   0.028330 0.675402 0.646480 0.533360
C20   C     C_R   0.967155 0.676261 0.356841 0.545607
O41   O     O_R   0.543920 0.282180 0.666790 -0.427225
O42   O     O_R   0.456080 0.282180 0.333210 -0.436194
O43   O     O_R   0.043920 0.782180 0.666790 -0.435396
O44   O     O_R   0.956080 0.782180 0.333210 -0.427712
O45   O     O_R   0.679040 0.374160 0.674430 -0.433965
O46   O     O_R   0.320960 0.374160 0.325570 -0.412831
O47   O     O_R   0.179040 0.874160 0.674430 -0.412399
O48   O     O_R   0.820960 0.874160 0.325570 -0.434350
C21   C     C_R   0.738911 0.356915 0.645890 0.566734
C22   C     C_R   0.273862 0.317425 0.361032 0.537736
C23   C     C_R   0.226405 0.818003 0.638853 0.540449
C24   C     C_R   0.761146 0.856996 0.354154 0.568822
Cr1   Cr    Cr6+3 0.769270 0.163730 0.750710 1.157975
Cr2   Cr    Cr6+3 0.230730 0.163730 0.249290 1.178106
Cr3   Cr    Cr6+3 0.269270 0.663730 0.750710 1.157989
Cr4   Cr    Cr6+3 0.730730 0.663730 0.249290 1.172038
Cr5   Cr    Cr6+3 0.612620 0.009790 0.748780 1.130713
Cr6   Cr    Cr6+3 0.387380 0.009790 0.251220 1.106680
Cr7   Cr    Cr6+3 0.112620 0.509790 0.748780 1.110868
Cr8   Cr    Cr6+3 0.887380 0.509790 0.251220 1.129557
Cr9   Cr    Cr6+3 0.614160 0.322500 0.747710 1.224468
Cr10  Cr    Cr6+3 0.385840 0.322500 0.252290 1.235044
Cr11  Cr    Cr6+3 0.114160 0.822500 0.747710 1.225440
Cr12  Cr    Cr6+3 0.885840 0.822500 0.252290 1.231871
O49   O     O_3   0.665350 0.165340 0.749070 -0.375903
O50   O     O_3   0.334650 0.165340 0.250930 -0.377212
O51   O     O_3   0.165350 0.665340 0.749070 -0.383096
O52   O     O_3   0.834650 0.665340 0.250930 -0.377205
C25   C     C_2   0.486797 0.158137 0.913870 0.321467
C26   C     C_2   0.501411 0.157120 0.079006 0.321755
C27   C     C_2   0.985054 0.658904 0.912578 0.327694
C28   C     C_2   0.999778 0.656885 0.078134 0.320728
C29   C     C_2   0.478337 0.071290 0.033929 0.241631
C30   C     C_2   0.500470 0.067421 0.958310 0.236816
C31   C     C_2   0.974239 0.572997 0.032558 0.249299
C32   C     C_2   0.996595 0.567569 0.956963 0.230271
C33   C     C_R   0.672417 0.388860 0.979200 0.145911
C34   C     C_R   0.319045 0.421462 0.028611 0.138365
C35   C     C_R   0.177660 0.912223 0.973702 0.124191
C36   C     C_R   0.826562 0.905468 0.023824 0.174054
C37   C     C_R   0.676078 0.405741 0.054530 0.204395
C38   C     C_R   0.313888 0.427831 0.953609 0.159262
C39   C     C_R   0.182728 0.936968 0.047556 0.133896
C40   C     C_R   0.819665 0.923622 0.949177 0.172627
C41   C     C_R   0.739562 0.381103 0.089634 -0.047956
C42   C     C_R   0.248503 0.405509 0.921720 -0.090038
C43   C     C_R   0.241800 0.896190 0.085359 -0.063394
C44   C     C_R   0.754392 0.898421 0.916625 -0.093273
C45   C     C_R   0.780251 0.294334 0.060574 0.143279
C46   C     C_R   0.195195 0.352291 0.961319 0.124407
C47   C     C_R   0.281969 0.808719 0.056435 0.168979
C48   C     C_R   0.707167 0.826340 0.951020 0.129062
C49   C     C_R   0.783553 0.282427 0.986341 0.123169
C50   C     C_R   0.194529 0.368899 0.034646 0.140872
C51   C     C_R   0.285810 0.797347 0.983163 0.105774
C52   C     C_R   0.711703 0.812621 0.023347 0.133881
C53   C     C_R   0.729348 0.334697 0.942110 -0.118629
C54   C     C_R   0.258020 0.395314 0.069737 -0.054419
C55   C     C_R   0.232258 0.849074 0.939100 -0.126029
C56   C     C_R   0.769746 0.854601 0.062107 -0.062089
C57   C     C_R   0.510200 0.268307 0.529706 0.112705
C58   C     C_R   0.524347 0.263928 0.457982 0.114910
C59   C     C_R   0.973637 0.763009 0.543148 0.115667
C60   C     C_R   0.987511 0.768127 0.471380 0.111744
C61   C     C_R   0.509358 0.162294 0.421380 -0.080670
C62   C     C_R   0.508745 0.166295 0.568917 -0.079500
C63   C     C_R   0.989713 0.666440 0.431616 -0.080912
C64   C     C_R   0.989723 0.661569 0.579118 -0.079985
C65   C     C_R   0.506107 0.056278 0.458799 0.245965
C66   C     C_R   0.500969 0.059291 0.533501 0.252734
C67   C     C_R   0.998140 0.559341 0.466430 0.251357
C68   C     C_R   0.993269 0.555824 0.541139 0.246318
C69   C     C_R   0.793978 0.326656 0.532692 -0.180686
C70   C     C_R   0.222958 0.287874 0.477090 -0.180118
C71   C     C_R   0.277882 0.789164 0.522791 -0.180524
C72   C     C_R   0.706199 0.826306 0.467142 -0.180922
H1    H     H_    0.827465 0.264549 0.558057 0.219109
H2    H     H_    0.191594 0.223324 0.451729 0.205474
H3    H     H_    0.309401 0.724898 0.547922 0.206286
H4    H     H_    0.672538 0.764345 0.441506 0.219943
C73   C     C_R   0.806766 0.353452 0.463559 0.157433
C74   C     C_R   0.205838 0.324930 0.544260 0.168543
C75   C     C_R   0.294485 0.825405 0.455424 0.168734
C76   C     C_R   0.693300 0.853202 0.536259 0.157497
C77   C     C_R   0.757425 0.428014 0.427156 -0.023599
C78   C     C_R   0.250587 0.408264 0.579341 -0.031421
C79   C     C_R   0.249592 0.908376 0.420605 -0.030422
C80   C     C_R   0.742710 0.927662 0.572975 -0.023769
C81   C     C_R   0.704459 0.488382 0.468565 0.128567
C82   C     C_R   0.305943 0.462156 0.539628 0.135568
C83   C     C_R   0.194373 0.962171 0.460549 0.134851
C84   C     C_R   0.795895 0.988039 0.531961 0.128146
C85   C     C_R   0.709674 0.478737 0.543066 0.179580
C86   C     C_R   0.305426 0.443024 0.465681 0.185530
C87   C     C_R   0.194937 0.943432 0.534515 0.186608
C88   C     C_R   0.790781 0.978344 0.457457 0.177959
C89   C     C_R   0.748613 0.391008 0.573064 -0.076662
C90   C     C_R   0.268812 0.349177 0.436137 -0.084951
C91   C     C_R   0.231850 0.850156 0.563902 -0.083997
C92   C     C_R   0.751668 0.890748 0.427108 -0.077200
O53   O     O_3   0.441417 0.977311 0.059886 -0.588022
C93   C     C_3   0.490491 0.896396 0.087363 0.051924
H5    H     H_    0.537675 0.935856 0.112765 0.072592
H6    H     H_    0.506595 0.835540 0.044995 0.253439
H7    H     H_    0.466505 0.847661 0.131008 0.216614
O54   O     O_3   0.525187 0.962676 0.931902 -0.560345
C94   C     C_3   0.469815 0.907058 0.893867 0.002093
H8    H     H_    0.463784 0.941841 0.839357 0.108217
H9    H     H_    0.418453 0.915190 0.920846 0.141355
H10   H     H_    0.481470 0.813476 0.888175 0.244513
O55   O     O_3   0.924738 0.492979 0.054543 -0.623986
C95   C     C_3   0.960435 0.393685 0.079819 0.024527
H11   H     H_    0.991332 0.351004 0.037735 0.235239
H12   H     H_    0.922109 0.330103 0.099212 0.223543
H13   H     H_    0.994053 0.413014 0.126379 0.188863
O56   O     O_3   0.024596 0.464426 0.931752 -0.568826
C96   C     C_3   0.971311 0.404271 0.893385 -0.009917
H14   H     H_    0.956219 0.449669 0.843611 0.091585
H15   H     H_    0.923708 0.391596 0.925907 0.162967
H16   H     H_    0.990574 0.317545 0.877363 0.232982
N1    N     N_R   0.876043 0.319128 0.438954 0.137713
O57   O     O_R   0.886074 0.262892 0.380103 -0.143776
O58   O     O_R   0.927537 0.317502 0.484419 -0.200462
N2    N     N_R   0.135825 0.294707 0.566972 0.140303
O59   O     O_R   0.123776 0.244503 0.627412 -0.166457
O60   O     O_R   0.084281 0.302193 0.521666 -0.191833
N3    N     N_R   0.363986 0.793818 0.431794 0.140637
O61   O     O_R   0.374944 0.743637 0.370930 -0.164118
O62   O     O_R   0.416182 0.800776 0.476403 -0.190001
N4    N     N_R   0.623783 0.819522 0.560446 0.137400
O63   O     O_R   0.613332 0.763191 0.618970 -0.147539
O64   O     O_R   0.572524 0.818074 0.514689 -0.201054
N5    N     N_R   0.646512 0.558329 0.440374 0.076040
O65   O     O_R   0.601174 0.601984 0.483927 -0.175938
O66   O     O_R   0.627971 0.561185 0.373957 -0.216212
N6    N     N_R   0.359458 0.540082 0.569665 0.084207
O67   O     O_R   0.402637 0.592620 0.527622 -0.178155
O68   O     O_R   0.378257 0.538508 0.636240 -0.204472
N7    N     N_R   0.140710 0.039154 0.430463 0.084768
O69   O     O_R   0.097733 0.092504 0.472460 -0.176238
O70   O     O_R   0.121636 0.035732 0.363969 -0.202165
N8    N     N_R   0.853751 0.058375 0.560545 0.075871
O71   O     O_R   0.899110 0.102400 0.517265 -0.178062
O72   O     O_R   0.872276 0.061190 0.626983 -0.215681
N9    N     N_R   0.683952 0.566139 0.589765 0.120534
O73   O     O_R   0.729880 0.633111 0.621084 -0.328270
O74   O     O_R   0.623939 0.549374 0.620372 -0.160538
N10   N     N_R   0.326199 0.533535 0.419294 0.120927
O75   O     O_R   0.276862 0.587980 0.384595 -0.320716
O76   O     O_R   0.388895 0.530233 0.392931 -0.152392
N11   N     N_R   0.173501 0.033623 0.581142 0.121421
O77   O     O_R   0.222361 0.088808 0.616407 -0.328497
O78   O     O_R   0.110618 0.029572 0.606996 -0.153207
N12   N     N_R   0.816611 0.065689 0.411095 0.120782
O79   O     O_R   0.770650 0.131791 0.379507 -0.323788
O80   O     O_R   0.876738 0.048972 0.380687 -0.157848
O81   O     O_3   0.558520 0.223165 0.061021 -0.536737
C97   C     C_3   0.619607 0.155300 0.070833 -0.100161
H17   H     H_    0.612444 0.059624 0.068818 0.105544
H18   H     H_    0.644641 0.179005 0.122317 0.195675
H19   H     H_    0.655601 0.172970 0.026640 0.138551
O82   O     O_3   0.427866 0.225303 0.924141 -0.508395
C98   C     C_3   0.368046 0.156301 0.908002 -0.092930
H20   H     H_    0.373333 0.108357 0.856778 0.110434
H21   H     H_    0.321579 0.212160 0.901753 0.181278
H22   H     H_    0.356481 0.095332 0.952015 0.112927
O83   O     O_3   0.054296 0.728122 0.058230 -0.518783
C99   C     C_3   0.116680 0.663525 0.062325 -0.059839
H23   H     H_    0.114263 0.581904 0.031044 0.139055
H24   H     H_    0.131335 0.648579 0.118769 0.214017
H25   H     H_    0.158701 0.712133 0.037115 0.124971
O84   O     O_3   0.928703 0.731359 0.923621 -0.522403
C100  C     C_3   0.865165 0.667818 0.914458 -0.088820
H26   H     H_    0.870542 0.578210 0.892936 0.085913
H27   H     H_    0.831163 0.713354 0.875688 0.189415
H28   H     H_    0.837643 0.662732 0.966038 0.149803
N13   N     N_R   0.610151 0.422379 0.941789 0.127545
O85   O     O_R   0.609670 0.515102 0.902963 -0.165864
O86   O     O_R   0.550977 0.373269 0.956536 -0.183998
N14   N     N_R   0.387008 0.429293 0.061205 0.132344
O87   O     O_R   0.402191 0.511429 0.106040 -0.159171
O88   O     O_R   0.436629 0.361322 0.040097 -0.214913
N15   N     N_R   0.112728 0.934229 0.937470 0.135067
O89   O     O_R   0.105619 0.022197 0.895223 -0.170715
O90   O     O_R   0.057614 0.874963 0.954075 -0.187962
N16   N     N_R   0.891976 0.930138 0.058862 0.136531
O91   O     O_R   0.898782 0.018123 0.101703 -0.152951
O92   O     O_R   0.947630 0.873929 0.040629 -0.192631
N17   N     N_R   0.617448 0.448671 0.095284 0.172715
O93   O     O_R   0.611490 0.420032 0.161800 -0.276363
O94   O     O_R   0.568118 0.511159 0.066490 -0.104506
N18   N     N_R   0.375292 0.443827 0.909419 0.178824
O95   O     O_R   0.375668 0.405877 0.844167 -0.274181
O96   O     O_R   0.430262 0.500057 0.932475 -0.102374
N19   N     N_R   0.123436 0.982180 0.086232 0.149748
O97   O     O_R   0.111567 0.945996 0.150470 -0.251411
O98   O     O_R   0.074292 0.040800 0.054270 -0.120307
N20   N     N_R   0.879811 0.948974 0.904934 0.174484
O99   O     O_R   0.880260 0.916872 0.838534 -0.269763
O100  O     O_R   0.935199 0.001503 0.930009 -0.099279
N21   N     N_R   0.797393 0.196096 0.104375 0.117449
O101  O     O_R   0.826440 0.207781 0.166741 -0.238048
O102  O     O_R   0.766804 0.098290 0.089748 -0.382672
N22   N     N_R   0.149980 0.268713 0.926897 0.133357
O103  O     O_R   0.087661 0.245461 0.950116 -0.208898
O104  O     O_R   0.173743 0.210031 0.872999 -0.285183
N23   N     N_R   0.308035 0.718475 0.102096 0.132010
O105  O     O_R   0.371493 0.723146 0.127224 -0.220034
O106  O     O_R   0.263633 0.649357 0.132512 -0.352370
N24   N     N_R   0.660469 0.752452 0.910827 0.148222
O107  O     O_R   0.595354 0.740991 0.929428 -0.212593
O108  O     O_R   0.683028 0.698091 0.854721 -0.276328
N25   N     N_R   0.843465 0.218219 0.960876 0.074772
O109  O     O_R   0.842295 0.160675 0.902316 -0.273964
O110  O     O_R   0.898269 0.203969 0.001362 -0.279587
N26   N     N_R   0.131085 0.355768 0.074572 0.083226
O111  O     O_R   0.117258 0.433153 0.122878 -0.412189
O112  O     O_R   0.105020 0.252762 0.083219 -0.228702
N27   N     N_R   0.344755 0.733575 0.956805 0.076616
O113  O     O_R   0.336410 0.656081 0.908351 -0.285643
O114  O     O_R   0.404038 0.734086 0.991377 -0.267750
N28   N     N_R   0.673569 0.718857 0.050496 0.139127
O115  O     O_R   0.613732 0.731885 0.082006 -0.278431
O116  O     O_R   0.705037 0.620382 0.048993 -0.376056
N29   N     N_R   0.478005 0.367342 0.560017 0.128507
O117  O     O_R   0.427089 0.348001 0.603996 -0.304035
O118  O     O_R   0.511378 0.465383 0.562689 -0.122534
N30   N     N_R   0.548807 0.362457 0.420098 0.121985
O119  O     O_R   0.593275 0.345251 0.368995 -0.286191
O120  O     O_R   0.511965 0.457029 0.420478 -0.132117
N31   N     N_R   0.949686 0.861357 0.581836 0.121069
O121  O     O_R   0.905488 0.844039 0.633117 -0.286191
O122  O     O_R   0.986962 0.955612 0.581949 -0.133088
N32   N     N_R   0.020683 0.866887 0.442165 0.128852
O123  O     O_R   0.072316 0.847175 0.399097 -0.304606
O124  O     O_R   0.988092 0.965481 0.439729 -0.121411
O125  O     O_3   0.503030 0.950912 0.423195 -0.435945
C101  C     C_3   0.562993 0.937171 0.379948 0.013474
H29   H     H_    0.571083 0.843112 0.370223 0.202024
H30   H     H_    0.611532 0.972462 0.405291 0.098762
H31   H     H_    0.555723 0.978247 0.327269 0.120401
O126  O     O_3   0.486368 0.958993 0.570747 -0.440354
C102  C     C_3   0.418452 0.967093 0.599791 0.004101
H32   H     H_    0.378470 0.991315 0.558907 0.118277
H33   H     H_    0.417012 0.029507 0.644860 0.114419
H34   H     H_    0.403877 0.880720 0.620888 0.201521
O127  O     O_3   0.013487 0.459602 0.428601 -0.441484
C103  C     C_3   0.081638 0.469078 0.400257 0.014821
H35   H     H_    0.096703 0.383270 0.378416 0.206832
H36   H     H_    0.121186 0.493106 0.441743 0.116056
H37   H     H_    0.083282 0.532275 0.355851 0.128689
O128  O     O_3   0.997205 0.450397 0.576188 -0.434823
C104  C     C_3   0.937760 0.435373 0.619997 0.012112
H38   H     H_    0.888907 0.471161 0.595808 0.097538
H39   H     H_    0.945699 0.475057 0.673142 0.114770
H40   H     H_    0.929760 0.341062 0.628585 0.202180

loop_
_geom_bond_atom_site_label_1
_geom_bond_atom_site_label_2
_geom_bond_distance
_ccdc_geom_bond_type
C74   N2    1.447466 S    
O4    C12   1.313469 A    
C69   H1    1.069767 S    
O39   C19   1.306779 A    
C13   C80   1.459941 S    
C74   C78   1.438175 A    
C35   C39   1.420738 A    
N31   O121  1.302762 A    
C72   H4    1.069943 S    
Cr7   O51   2.052864 S    
C98   H22   1.111137 S    
C102  H33   1.110709 S    
C1    C44   1.466496 S    
C71   H3    1.063170 S    
N28   O115  1.298975 A    
C86   C90   1.396997 A    
O25   C21   1.260988 A    
O21   C9    1.335091 A    
C36   C40   1.426275 A    
C25   C30   1.364213 D    
C1    O9    1.283411 A    
O44   Cr12  2.072950 S    
C26   O81   1.372759 S    
C27   C32   1.362107 D    
C78   C82   1.439885 A    
C3    O11   1.275396 A    
C4    O12   1.288596 A    
C95   H12   1.099265 S    
C83   C87   1.409678 A    
C95   H13   1.102992 S    
C73   C77   1.443933 A    
O2    C10   1.287792 A    
C15   C78   1.466565 S    
N7    O69   1.297428 A    
O17   Cr9   2.070738 S    
C99   H23   1.108195 S    
C93   H6    1.105785 S    
N1    O58   1.296558 A    
O31   Cr3   1.989057 S    
C71   C91   1.368314 A    
N8    O71   1.297235 A    
O16   Cr8   1.962335 S    
C34   C38   1.416586 A    
O13   C5    1.301099 A    
O28   Cr4   2.110865 S    
O12   Cr8   2.088248 S    
O22   Cr10  1.957992 S    
O15   C7    1.302336 A    
O46   Cr10  1.952884 S    
C93   H7    1.099202 S    
C102  H32   1.114465 S    
C29   O53   1.383118 S    
O14   Cr6   1.962335 S    
C60   C63   1.388606 A    
N24   O108  1.302674 A    
C101  H29   1.109018 S    
C17   C62   1.472611 S    
C26   C29   1.370117 D    
C86   N10   1.420117 S    
Cr12  O52   2.054988 S    
N6    O67   1.297558 A    
C17   O41   1.315323 A    
C33   N13   1.428640 S    
C19   O43   1.319223 A    
C20   O44   1.316137 A    
C47   N23   1.436836 S    
N29   O118  1.295812 A    
N32   O123  1.300493 A    
C65   O125  1.385153 S    
C73   N1    1.457908 S    
N27   O114  1.298844 A    
C33   C53   1.437535 A    
C63   C67   1.407034 A    
C35   C55   1.430753 A    
C61   C65   1.412919 A    
C16   O36   1.279977 A    
Cr8   O52   2.054761 S    
N5    O65   1.297282 A    
O27   C23   1.305477 A    
C39   C43   1.408298 A    
O31   C15   1.293172 A    
C99   H25   1.089826 S    
O32   C16   1.291374 A    
N18   O95   1.302572 A    
C10   C54   1.482447 S    
O47   Cr11  1.954745 S    
N4    O63   1.297113 A    
C59   C60   1.380484 A    
C94   H9    1.110901 S    
O46   C22   1.300315 A    
N17   O93   1.301824 A    
O24   C12   1.301718 A    
N31   O122  1.296560 A    
N21   O101  1.299991 A    
N12   O80   1.299985 A    
C104  H39   1.107619 S    
O8    Cr4   1.992958 S    
O128  C104  1.418265 S    
O32   Cr4   1.995529 S    
C81   C85   1.409853 A    
C81   N5    1.464291 S    
O11   Cr7   2.093877 S    
C28   O83   1.378521 S    
N22   O103  1.297401 A    
C96   H15   1.108976 S    
C21   C89   1.440756 S    
O27   Cr3   2.116977 S    
O3    Cr3   2.108277 S    
C100  H26   1.112486 S    
C46   C50   1.393179 A    
N19   O98   1.299493 A    
C71   C75   1.375878 A    
Cr5   O49   2.052864 S    
N13   O85   1.295803 A    
C35   N15   1.430918 S    
C60   N32   1.415721 S    
C8    C28   1.483578 S    
C103  H36   1.114514 S    
C34   C54   1.435358 A    
N9    O74   1.299997 A    
O22   C10   1.273445 A    
C87   C91   1.397475 A    
C84   C88   1.409130 A    
C88   C92   1.373515 A    
C2    O10   1.291720 A    
C49   N25   1.445691 S    
O81   C97   1.414006 S    
Cr2   O50   1.980807 S    
C52   C56   1.404260 A    
N30   O120  1.296425 A    
C79   C83   1.438684 A    
O5    C1    1.291046 A    
C97   H18   1.109567 S    
O3    C11   1.299491 A    
O8    C4    1.302099 A    
C16   C77   1.462435 S    
C40   N20   1.453099 S    
Cr1   O49   1.980848 S    
C85   N9    1.424562 S    
Cr3   O51   1.980848 S    
C70   C90   1.367835 A    
C51   C55   1.440035 A    
C49   C53   1.453216 A    
C48   C52   1.373175 A    
C97   H19   1.102466 S    
C65   C66   1.410898 A    
O26   Cr2   2.110865 S    
C5    O17   1.327833 A    
N16   O91   1.298577 A    
O29   C13   1.288725 A    
O28   C24   1.259655 A    
O14   C6    1.298475 A    
C43   C47   1.379462 A    
C37   N17   1.447850 S    
C80   C84   1.457161 A    
N23   O105  1.295728 A    
C98   H21   1.100797 S    
N28   O116  1.283695 A    
O40   Cr8   1.962742 S    
C58   C61   1.384387 A    
N20   O99   1.302493 A    
O41   Cr9   2.070148 S    
O54   C94   1.420784 S    
C76   N4    1.457563 S    
N14   O87   1.296354 A    
N25   O110  1.298310 A    
O33   Cr5   2.083509 S    
C69   C89   1.372650 A    
O5    Cr1   1.999064 S    
C100  H28   1.109534 S    
O35   Cr7   2.083509 S    
C36   N16   1.432970 S    
O29   Cr1   1.989057 S    
C72   C92   1.372509 A    
N26   O111  1.300050 A    
Cr9   O49   2.056959 S    
C18   O42   1.319299 A    
Cr11  O51   2.056959 S    
O26   C22   1.305641 A    
O20   Cr12  2.069304 S    
C39   N19   1.446451 S    
C52   N28   1.401352 S    
C30   O54   1.387607 S    
C99   H24   1.110202 S    
O53   C93   1.416568 S    
C50   N26   1.437734 S    
C5    C25   1.483265 S    
N1    O57   1.297265 A    
C95   H11   1.105742 S    
N8    O72   1.296793 A    
O38   C18   1.305232 A    
C4    C41   1.496816 S    
C34   N14   1.430939 S    
C62   C66   1.406127 A    
N15   O89   1.296272 A    
O30   C14   1.295914 A    
C67   O127  1.382395 S    
N10   O75   1.302571 A    
N27   O113  1.282749 A    
C59   N31   1.422399 S    
O42   Cr10  2.072950 S    
O18   Cr10  2.069304 S    
C66   O126  1.382351 S    
C84   N8    1.464962 S    
C101  H30   1.112939 S    
O34   Cr6   2.086940 S    
O6    Cr2   1.992958 S    
C102  H34   1.108151 S    
O24   Cr12  1.957992 S    
O30   Cr2   1.995529 S    
O127  C103  1.413073 S    
O48   Cr12  1.952884 S    
C8    O20   1.328764 A    
C98   H20   1.115061 S    
N6    O68   1.300549 A    
C48   N24   1.438970 S    
C94   H8    1.107785 S    
O37   C17   1.309611 A    
C15   O35   1.279957 A    
Cr10  O50   2.054988 S    
C44   C48   1.389540 A    
O43   Cr11  2.070148 S    
C22   C90   1.463306 S    
C101  H31   1.107706 S    
O7    C3    1.301837 A    
O21   Cr9   1.954409 S    
N29   O117  1.300869 A    
C70   C74   1.375456 A    
O39   Cr7   1.967432 S    
O45   Cr9   1.954745 S    
C14   C79   1.467851 S    
C13   O33   1.279324 A    
C3    C42   1.473249 S    
O13   Cr5   1.959674 S    
C6    C26   1.483617 S    
C57   N29   1.416464 S    
O15   Cr7   1.959674 S    
C57   C58   1.380066 A    
O9    Cr5   2.093877 S    
O23   C11   1.321691 A    
C45   N21   1.438071 S    
C67   C68   1.411035 A    
C40   C44   1.411307 A    
N18   O96   1.301484 A    
C93   H5    1.110796 S    
C51   N27   1.434347 S    
N4    O64   1.296677 A    
C32   O56   1.386730 S    
C20   C63   1.472831 S    
O6    C2    1.285062 A    
C69   C73   1.362557 A    
O1    Cr1   2.108277 S    
O19   Cr11  2.070738 S    
N3    O61   1.300289 A    
C72   C76   1.361183 A    
N23   O106  1.299179 A    
C104  H38   1.112892 S    
C41   C45   1.380187 A    
O45   C21   1.281175 A    
O84   C100  1.423114 S    
N2    O60   1.298255 A    
O47   C23   1.300487 A    
C85   C89   1.373972 A    
C12   C56   1.496521 S    
O40   C20   1.307166 A    
C103  H37   1.110694 S    
N22   O104  1.302282 A    
C96   H14   1.110169 S    
C6    O18   1.328936 A    
N7    O70   1.300763 A    
N24   O107  1.299353 A    
O36   Cr8   2.086940 S    
C31   O55   1.384988 S    
C77   C81   1.456888 A    
O38   Cr6   1.962742 S    
O55   C95   1.412721 S    
C9    C53   1.530371 S    
C29   C30   1.488974 S    
O125  C101  1.417983 S    
C11   C55   1.502616 S    
C31   C32   1.490385 S    
C76   C80   1.443057 A    
C59   C64   1.385228 A    
O1    C9    1.305263 A    
N9    O73   1.301887 A    
N2    O59   1.300078 A    
C75   C79   1.438783 A    
C38   N18   1.454009 S    
O23   Cr11  1.954409 S    
O83   C99   1.404872 S    
C58   N30   1.422401 S    
O16   C8    1.298393 A    
N15   O90   1.293366 A    
C36   C56   1.432067 A    
C7    O19   1.326338 A    
Cr4   O52   1.980807 S    
C46   N22   1.439755 S    
O2    Cr2   2.115282 S    
O48   C24   1.280562 A    
Cr6   O50   2.054761 S    
C2    C43   1.467686 S    
C64   C68   1.412052 A    
C94   H10   1.105538 S    
C37   C41   1.403109 A    
N16   O92   1.291784 A    
N17   O94   1.300091 A    
O4    Cr4   2.115282 S    
C83   N7    1.465359 S    
C25   O82   1.379167 S    
N21   O102  1.295303 A    
N12   O79   1.301987 A    
C104  H40   1.109015 S    
O7    Cr3   1.999064 S    
N5    O66   1.296740 A    
C19   C64   1.468471 S    
C28   C31   1.375592 D    
N20   O100  1.300366 A    
N11   O77   1.302545 A    
C96   H16   1.106305 S    
N14   O88   1.292860 A    
N25   O109  1.284428 A    
C68   O128  1.385292 S    
C100  H27   1.105526 S    
C82   N6    1.466161 S    
C50   C54   1.405970 A    
O56   C96   1.419500 S    
N11   O78   1.298602 A    
N26   O112  1.296756 A    
N13   O86   1.293956 A    
C88   N12   1.424092 S    
O37   Cr5   1.967432 S    
C7    C27   1.481638 S    
N19   O97   1.302000 A    
C103  H35   1.108125 S    
C42   C46   1.406794 A    
O25   Cr1   2.116977 S    
O126  C102  1.412893 S    
C75   N3    1.447703 S    
C70   H2    1.062712 S    
C45   C49   1.405729 A    
C23   C91   1.464448 S    
C14   O34   1.279976 A    
C24   C92   1.439147 S    
C27   O84   1.377617 S    
N30   O119  1.302764 A    
C87   N11   1.420424 S    
C57   C62   1.389693 A    
N32   O124  1.295435 A    
C97   H17   1.110451 S    
C38   C42   1.401547 A    
O10   Cr6   2.088248 S    
O82   C98   1.419122 S    
N3    O62   1.298309 A    
C18   C61   1.468149 S    
N10   O76   1.298705 A    
C82   C86   1.408662 A    
C47   C51   1.387766 A    
C33   C37   1.431817 A    
