data_mof_unit_10272.cif
_audit_creation_date              2013-03-05T15:53:42-0500
_audit_creation_method            fapswitch 2.2
_symmetry_space_group_name_H-M    P1
_symmetry_Int_Tables_number       1
_space_group_crystal_system       triclinic
_cell_length_a                    12.960566
_cell_length_b                    13.306888
_cell_length_c                    27.7347
_cell_angle_alpha                 94.335395
_cell_angle_beta                  90.362398
_cell_angle_gamma                 119.422066
_cell_volume                      4149.21136158

loop_
_atom_site_label
_atom_site_type_symbol
_atom_site_description
_atom_site_fract_x
_atom_site_fract_y
_atom_site_fract_z
_atom_type_partial_charge
O1    O     O_R   0.296680 0.802170 0.437540 -0.527006
O2    O     O_R   0.525380 0.838530 0.443500 -0.501911
C1    C     C_R   0.604247 0.925196 0.422338 0.559787
O3    O     O_R   0.702130 0.995190 0.446810 -0.515062
O4    O     O_R   0.661770 0.181390 0.458760 -0.506874
C2    C     C_R   0.601682 0.223523 0.440955 0.535510
O5    O     O_R   0.499820 0.198480 0.455280 -0.515290
O6    O     O_R   0.311660 0.976250 0.449080 -0.506995
C3    C     C_R   0.270284 0.877790 0.425870 0.535882
O7    O     O_R   0.297580 0.804960 0.544440 -0.495146
O8    O     O_R   0.526220 0.841130 0.542590 -0.483411
C4    C     C_R   0.627391 0.898209 0.564843 0.558407
O9    O     O_R   0.703030 0.997990 0.553710 -0.507891
O10   O     O_R   0.662610 0.183990 0.557860 -0.501858
C5    C     C_R   0.604135 0.227787 0.578084 0.546468
O11   O     O_R   0.500730 0.201280 0.562180 -0.513567
O12   O     O_R   0.312500 0.978850 0.548170 -0.495662
C6    C     C_R   0.271574 0.878930 0.563303 0.545154
Cr1   Cr    Cr6+3 0.416430 0.829200 0.492370 1.031951
Cr2   Cr    Cr6+3 0.674630 0.087020 0.504170 1.022124
Cr3   Cr    Cr6+3 0.408920 0.083740 0.503490 1.021405
O13   O     O_3   0.499990 0.999990 0.500010 -0.266076
C7    C     C_1   0.639322 0.282639 0.397769 -0.011008
C8    C     C_R   0.752786 0.315497 0.281450 0.288224
C9    C     C_R   0.755267 0.325978 0.231502 -0.113185
C10   C     C_R   0.652432 0.437670 0.241207 0.243220
C11   C     C_R   0.644493 0.420639 0.290656 -0.111430
C12   C     C_R   0.690947 0.356902 0.310530 -0.015815
C13   C     C_R   0.703889 0.385022 0.210802 -0.013889
C14   C     C_1   0.706688 0.392903 0.158946 -0.054303
C15   C     C_1   0.664856 0.322159 0.359071 -0.031809
C16   C     C_1   0.709775 0.408010 0.116407 -0.009098
H1    H     H_    0.797633 0.288127 0.208947 0.164843
H2    H     H_    0.598576 0.454424 0.313275 0.139560
C17   C     C_R   0.137612 0.757469 0.356193 -0.136231
C18   C     C_R   0.108894 0.745567 0.306984 0.029850
C19   C     C_R   0.071106 0.717968 0.207080 -0.002149
C20   C     C_R   0.015544 0.622016 0.234078 -0.111403
C21   C     C_R   0.033050 0.636194 0.283942 -0.124882
C22   C     C_R   0.054885 0.702071 0.157591 -0.174856
H3    H     H_    0.997941 0.614981 0.140735 0.144379
H4    H     H_    0.102353 0.682108 0.376707 0.111797
H5    H     H_    0.959871 0.535901 0.216471 0.113198
H6    H     H_    0.989846 0.561730 0.304413 0.094294
C23   C     C_R   0.103551 0.796654 0.129803 0.005563
C24   C     C_R   0.264991 0.964524 0.352348 -0.128095
C25   C     C_R   0.239227 0.953527 0.303048 -0.037601
C26   C     C_R   0.162423 0.843583 0.279957 0.052275
C27   C     C_R   0.295887 0.049638 0.276383 -0.136474
C28   C     C_R   0.275092 0.039131 0.225863 0.288916
C29   C     C_R   0.197510 0.928039 0.202140 0.029177
C30   C     C_R   0.143057 0.830350 0.229722 -0.028756
C31   C     C_R   0.171474 0.910449 0.151531 0.275175
C32   C     C_R   0.218171 0.866106 0.378302 0.007123
H7    H     H_    0.359805 0.132011 0.295008 0.106660
H8    H     H_    0.329083 0.048788 0.369725 0.138098
C33   C     C_R   0.712874 0.982576 0.347883 -0.108757
C34   C     C_R   0.722123 0.966040 0.298496 -0.017288
C35   C     C_R   0.736888 0.938736 0.198653 0.020653
C36   C     C_R   0.825611 0.038636 0.225457 0.282211
C37   C     C_R   0.819608 0.048198 0.275835 -0.065446
C38   C     C_R   0.747757 0.919988 0.149647 -0.108196
H9    H     H_    0.821547 0.986382 0.132059 0.182422
H10   H     H_    0.781187 0.060227 0.368244 0.143041
H11   H     H_    0.889322 0.120917 0.297451 0.129053
C39   C     C_R   0.675581 0.810947 0.124818 -0.020352
C40   C     C_R   0.525002 0.802354 0.344074 -0.130364
C41   C     C_R   0.534172 0.783778 0.294447 0.023887
C42   C     C_R   0.632192 0.867376 0.271488 0.046392
C43   C     C_R   0.447950 0.683218 0.267432 -0.106590
C44   C     C_R   0.460771 0.664298 0.218120 -0.088189
C45   C     C_R   0.557735 0.747634 0.195021 0.031448
C46   C     C_R   0.641694 0.851575 0.221654 0.020277
C47   C     C_R   0.576723 0.726610 0.146598 -0.131141
C48   C     C_R   0.614804 0.901615 0.370889 -0.002145
H12   H     H_    0.519170 0.643150 0.126987 0.126279
H13   H     H_    0.395561 0.584334 0.198173 0.109152
H14   H     H_    0.372265 0.618141 0.284657 0.101611
H15   H     H_    0.448237 0.739726 0.361661 0.134424
C49   C     C_R   0.738749 0.288540 0.651103 -0.125510
C50   C     C_R   0.758347 0.321732 0.700623 -0.032580
C51   C     C_R   0.777056 0.361887 0.802178 0.034938
C52   C     C_R   0.852759 0.328124 0.777750 0.268700
C53   C     C_R   0.840168 0.305761 0.727442 -0.060541
C54   C     C_R   0.775558 0.372671 0.853042 -0.116926
H16   H     H_    0.831900 0.355047 0.875714 0.127982
H17   H     H_    0.786330 0.248755 0.633834 0.136271
H18   H     H_    0.894507 0.274916 0.709262 0.133328
C55   C     C_R   0.699882 0.406612 0.875638 -0.001509
C56   C     C_R   0.590258 0.348883 0.647141 -0.103301
C57   C     C_R   0.608814 0.383368 0.696739 0.039230
C58   C     C_R   0.689933 0.364720 0.723953 0.004248
C59   C     C_R   0.541077 0.427536 0.719878 0.282334
C60   C     C_R   0.551143 0.446904 0.770631 -0.113420
C61   C     C_R   0.624422 0.419906 0.797638 -0.032374
C62   C     C_R   0.698074 0.383175 0.774585 0.014828
C63   C     C_R   0.625188 0.430297 0.847678 -0.128945
C64   C     C_R   0.649101 0.294654 0.625108 -0.016431
H19   H     H_    0.569713 0.461096 0.864880 0.136805
H20   H     H_    0.501345 0.482222 0.789336 0.101105
H21   H     H_    0.523183 0.355562 0.626313 0.180146
C65   C     C_1   0.219179 0.859670 0.609475 0.007587
C66   C     C_R   0.129507 0.728138 0.719961 0.271380
C67   C     C_R   0.121521 0.722094 0.770777 0.286139
C68   C     C_R   0.167600 0.923356 0.781043 -0.183125
C69   C     C_R   0.179901 0.930628 0.731274 -0.185969
C70   C     C_R   0.161369 0.833856 0.700765 0.034547
C71   C     C_R   0.139316 0.819974 0.800989 0.008374
C72   C     C_1   0.122127 0.811798 0.852166 -0.016624
C73   C     C_1   0.187494 0.846827 0.650417 0.011812
C74   C     C_1   0.099159 0.796887 0.893970 0.000816
H22   H     H_    0.180865 0.998681 0.804048 0.134576
H23   H     H_    0.205296 0.012362 0.716580 0.127960
C75   C     C_1   0.647651 0.857934 0.608654 -0.010570
C76   C     C_R   0.782452 0.825155 0.715185 -0.094644
C77   C     C_R   0.795281 0.810211 0.763868 -0.091994
C78   C     C_R   0.585652 0.740998 0.772996 -0.101914
C79   C     C_R   0.572773 0.755661 0.724331 -0.072720
C80   C     C_R   0.671444 0.799509 0.695472 0.053150
C81   C     C_R   0.697320 0.770121 0.793110 0.040324
C82   C     C_1   0.712634 0.763821 0.844095 -0.059822
C83   C     C_1   0.660198 0.828690 0.647426 -0.046191
C84   C     C_1   0.727689 0.759968 0.886751 -0.016186
H24   H     H_    0.859564 0.859834 0.693390 0.115986
H25   H     H_    0.882048 0.832728 0.779002 0.121915
H26   H     H_    0.509201 0.709536 0.795163 0.090872
H27   H     H_    0.486593 0.736078 0.709609 0.120072
O14   O     O_R   0.820790 0.857990 0.068830 -0.531698
O15   O     O_R   0.016700 0.827330 0.062850 -0.491159
C85   C     C_R   0.062899 0.771172 0.079414 0.581381
O16   O     O_R   0.041970 0.673520 0.060040 -0.522509
O17   O     O_R   0.817980 0.483660 0.048840 -0.497308
C86   C     C_R   0.717905 0.443258 0.068129 0.551945
O18   O     O_R   0.637200 0.461990 0.052510 -0.501555
O19   O     O_R   0.664790 0.681920 0.057970 -0.494665
C87   C     C_R   0.719103 0.783120 0.080223 0.556805
O20   O     O_R   0.815840 0.852920 0.961840 -0.497109
O21   O     O_R   0.012100 0.822630 0.963670 -0.512814
C88   C     C_R   0.056198 0.766288 0.941149 0.542610
O22   O     O_R   0.037010 0.668460 0.953040 -0.499427
O23   O     O_R   0.813390 0.478970 0.949660 -0.498278
C89   C     C_R   0.712484 0.440241 0.927664 0.541280
O24   O     O_R   0.632250 0.456930 0.945520 -0.524987
O25   O     O_R   0.660200 0.677230 0.958780 -0.496976
C90   C     C_R   0.749479 0.754421 0.937062 0.563007
Cr4   Cr    Cr6+3 0.914010 0.832750 0.013970 1.019248
Cr5   Cr    Cr6+3 0.922310 0.578600 0.003000 1.026554
Cr6   Cr    Cr6+3 0.656280 0.574630 0.003870 1.025045
O26   O     O_3   0.830870 0.661990 0.006950 -0.275666
O27   O     O_3   0.801523 0.254956 0.300961 -0.562761
C91   C     C_3   0.912507 0.335000 0.324019 -0.141402
H28   H     H_    0.907213 0.399853 0.350157 0.114669
H29   H     H_    0.978823 0.378382 0.296626 0.113583
H30   H     H_    0.944450 0.287861 0.345491 0.119024
O28   O     O_3   0.340204 0.131876 0.198492 -0.513972
C92   C     C_3   0.347157 0.235286 0.219426 -0.107614
H31   H     H_    0.262290 0.220909 0.234556 0.062965
H32   H     H_    0.368842 0.296056 0.190997 0.161636
H33   H     H_    0.419259 0.277498 0.247943 0.146339
O29   O     O_3   0.911486 0.127896 0.201124 -0.579840
C93   C     C_3   0.026137 0.168574 0.221969 -0.148955
H34   H     H_    0.041103 0.096451 0.231143 0.105838
H35   H     H_    0.043921 0.230796 0.254116 0.116447
H36   H     H_    0.091221 0.217082 0.195136 0.127380
O30   O     O_3   0.937675 0.313001 0.801194 -0.708639
H37   H     H_    0.969101 0.368330 0.830443 0.328406
O31   O     O_3   0.471834 0.456484 0.691675 -0.572432
C94   C     C_3   0.359560 0.421435 0.710730 -0.121608
H38   H     H_    0.364860 0.487503 0.739134 0.110921
H39   H     H_    0.320722 0.334497 0.724784 0.110779
H40   H     H_    0.298036 0.415236 0.681199 0.154784
O32   O     O_3   0.109094 0.633823 0.688463 -0.701916
H41   H     H_    0.079048 0.563891 0.706351 0.355077
O33   O     O_3   0.604941 0.502273 0.224406 -0.719264
H42   H     H_    0.619219 0.512000 0.189659 0.331984
O34   O     O_3   0.092139 0.619704 0.790731 -0.575113
C95   C     C_3   0.197899 0.618165 0.801451 -0.131766
H43   H     H_    0.255897 0.690171 0.828937 0.121840
H44   H     H_    0.247225 0.621995 0.768284 0.112637
H45   H     H_    0.174943 0.535687 0.816927 0.152635
O35   O     O_3   0.213907 0.002134 0.122799 -0.514741
C96   C     C_3   0.136185 0.048597 0.122783 -0.048501
H46   H     H_    0.052087 0.999232 0.141639 0.100615
H47   H     H_    0.112043 0.052139 0.084753 0.144909
H48   H     H_    0.183267 0.138930 0.139524 0.134510

loop_
_geom_bond_atom_site_label_1
_geom_bond_atom_site_label_2
_geom_bond_distance
_ccdc_geom_bond_type
O6    C3    1.263483 A    
C94   H38   1.110638 S    
O11   Cr3   2.067340 S    
C8    C12   1.404012 A    
C43   H14   1.083625 S    
C61   C62   1.406339 A    
C44   H13   1.083570 S    
O25   Cr6   1.902966 S    
C93   H36   1.107991 S    
C93   H34   1.114737 S    
C56   C57   1.397366 A    
C74   C88   1.433514 S    
O19   C87   1.275697 A    
C67   O34   1.383687 S    
O4    Cr2   1.906044 S    
O35   C96   1.417349 S    
O32   H41   0.989948 S    
C52   O30   1.379432 S    
O8    Cr1   1.926009 S    
C10   C11   1.403107 A    
C19   C20   1.399116 A    
C47   H12   1.084112 S    
C52   C53   1.395921 A    
O20   C90   1.295663 A    
C92   H31   1.110737 S    
Cr5   O26   1.980692 S    
O7    Cr1   2.042726 S    
O7    C6    1.267481 A    
C49   H17   1.084490 S    
O2    C1    1.292697 A    
O14   C87   1.261815 A    
C16   C86   1.439498 S    
C69   C70   1.400271 A    
C10   O33   1.382673 S    
C55   C89   1.461705 S    
C39   C47   1.401973 A    
C58   C62   1.401385 A    
C71   C72   1.442108 S    
C6    C65   1.433978 S    
C91   H30   1.108166 S    
C17   H4    1.085128 S    
C79   C80   1.402485 A    
C86   O18   1.269107 A    
C66   C67   1.419276 A    
C93   H35   1.109902 S    
O33   H42   0.988592 S    
C50   C58   1.407748 A    
C94   H40   1.109200 S    
C84   C90   1.436412 S    
O17   C86   1.274632 A    
C95   H44   1.113551 S    
C91   H28   1.113189 S    
C42   C46   1.397632 A    
C43   C44   1.397641 A    
C1    C48   1.459530 S    
C78   H26   1.083558 S    
C35   C46   1.410764 A    
C57   C58   1.418161 A    
C45   C46   1.414006 A    
C34   C37   1.394046 A    
C94   H39   1.114528 S    
C23   C31   1.405954 A    
C23   C85   1.445409 S    
Cr3   O13   1.980408 S    
C17   C32   1.389585 A    
O24   Cr6   2.073684 S    
C35   C36   1.407145 A    
O22   Cr5   2.022330 S    
C63   H19   1.084824 S    
O6    Cr3   1.946860 S    
C4    C75   1.437095 S    
C18   C21   1.392383 A    
C11   H2    1.083861 S    
C9    C13   1.402742 A    
C22   C23   1.395967 A    
C68   C71   1.398242 A    
O1    Cr1   2.046868 S    
C51   C62   1.421812 A    
C5    O11   1.272651 A    
C38   C39   1.400680 A    
C69   H23   1.083683 S    
C29   C30   1.424412 A    
O10   Cr2   1.953610 S    
O20   Cr4   2.037686 S    
Cr1   O13   1.972049 S    
C20   C21   1.383558 A    
Cr6   O26   1.969021 S    
C25   C27   1.396056 A    
C78   C81   1.400736 A    
O31   C94   1.412254 S    
C19   C30   1.407431 A    
C54   C55   1.399617 A    
C41   C42   1.409155 A    
C28   C29   1.418964 A    
C54   H16   1.080896 S    
O12   Cr3   1.900738 S    
C77   C81   1.402597 A    
C55   C63   1.401802 A    
C36   C37   1.399540 A    
C29   C31   1.416177 A    
C17   C18   1.388983 A    
C53   H18   1.084377 S    
C40   C41   1.396132 A    
C56   H21   1.083811 S    
C13   C14   1.449307 S    
C31   O35   1.385380 S    
C57   C59   1.408920 A    
Cr4   O26   1.971588 S    
C25   C26   1.400312 A    
C60   H20   1.082556 S    
C28   O28   1.392128 S    
O8    C4    1.271836 A    
C95   H45   1.108741 S    
C27   H7    1.082325 S    
C24   C32   1.403137 A    
C38   H9    1.083544 S    
O12   C6    1.272671 A    
O1    C3    1.272958 A    
C59   C60   1.405210 A    
C8    C9    1.401755 A    
O16   Cr5   2.060473 S    
O15   Cr4   1.923711 S    
C21   H6    1.077810 S    
C8    O27   1.379251 S    
C95   H43   1.113078 S    
C39   C87   1.459410 S    
C45   C47   1.399111 A    
C22   H3    1.086148 S    
C68   H22   1.083487 S    
Cr2   O13   1.969460 S    
C51   C52   1.420914 A    
C76   C80   1.401695 A    
C77   H25   1.083758 S    
C12   C15   1.444574 S    
C66   O32   1.383242 S    
C70   C73   1.441976 S    
C65   C73   1.205625 T    
C40   C48   1.408024 A    
C79   H27   1.083690 S    
C5    C64   1.462126 S    
C1    O3    1.292364 A    
C67   C71   1.410369 A    
C50   C53   1.399412 A    
C81   C82   1.441089 S    
C33   H10   1.084946 S    
O15   C85   1.271234 A    
C80   C83   1.441900 S    
C24   C25   1.385099 A    
O34   C95   1.411040 S    
C35   C38   1.383858 A    
C76   H24   1.083457 S    
O9    Cr2   2.023602 S    
C49   C64   1.402694 A    
O2    Cr1   1.929720 S    
O27   C91   1.411604 S    
O17   Cr5   1.904481 S    
C92   H33   1.105466 S    
C36   O29   1.391707 S    
C49   C50   1.392654 A    
C88   O22   1.270101 A    
C61   C63   1.383749 A    
C34   C42   1.407163 A    
O19   Cr6   1.954776 S    
C2    O5    1.267370 A    
O3    Cr2   2.071775 S    
C19   C22   1.371713 A    
C51   C54   1.408371 A    
O18   Cr6   2.018273 S    
C68   C69   1.395671 A    
O25   C90   1.300544 A    
O29   C93   1.409555 S    
C33   C48   1.397210 A    
C72   C74   1.205553 T    
C85   O16   1.263787 A    
C20   H5    1.082035 S    
O5    Cr3   2.017000 S    
C78   C79   1.398779 A    
C14   C16   1.209329 T    
O14   Cr4   2.057237 S    
C33   C34   1.386151 A    
O4    C2    1.276967 A    
O21   Cr4   1.934618 S    
C2    C7    1.436728 S    
C92   H32   1.109302 S    
C56   C64   1.398453 A    
C18   C26   1.417638 A    
C91   H29   1.111871 S    
C60   C61   1.399650 A    
C96   H47   1.109253 S    
C82   C84   1.206812 T    
O21   C88   1.278122 A    
O23   Cr5   1.943525 S    
C7    C15   1.207007 T    
C75   C83   1.207256 T    
C37   H11   1.076393 S    
O30   H37   0.988417 S    
C26   C30   1.396507 A    
C44   C45   1.402820 A    
C4    O9    1.267416 A    
C59   O31   1.393534 S    
C10   C13   1.422512 A    
C41   C43   1.403358 A    
C27   C28   1.408568 A    
C24   H8    1.085217 S    
O28   C92   1.412623 S    
C89   O24   1.262028 A    
O10   C5    1.272217 A    
C66   C70   1.406508 A    
C3    C32   1.440622 S    
C76   C77   1.400174 A    
O23   C89   1.276039 A    
C96   H48   1.106461 S    
C40   H15   1.084107 S    
C96   H46   1.117458 S    
C9    H1    1.083947 S    
C11   C12   1.397786 A    
