data_mof_unit_62433.cif
_audit_creation_date              2012-12-10T16:57:51-0500
_audit_creation_method            fapswitch 2.2
_symmetry_space_group_name_H-M    P1
_symmetry_Int_Tables_number       1
_space_group_crystal_system       triclinic
_cell_length_a                    13.018086
_cell_length_b                    13.096544
_cell_length_c                    15.197291
_cell_angle_alpha                 86.989539
_cell_angle_beta                  99.852478
_cell_angle_gamma                 90.611912
_cell_volume                      2549.27546362

loop_
_atom_site_label
_atom_site_type_symbol
_atom_type_description
_atom_site_fract_x
_atom_site_fract_y
_atom_site_fract_z
_atom_type_partial_charge
C1    C     C_R   0.466286 0.773359 0.465203 0.509077
C2    C     C_2   0.528736 0.059874 0.465173 0.055360
C3    C     C_2   0.460967 0.885089 0.447884 -0.106516
C4    C     C_R   0.535191 0.227018 0.531816 0.543752
C5    C     C_2   0.540925 0.948166 0.478007 -0.044270
C6    C     C_2   0.109457 0.459074 0.468098 0.115760
C7    C     C_2   0.066457 0.463610 0.542518 -0.084394
C8    C     C_2   0.893240 0.539840 0.542861 0.107923
C9    C     C_2   0.952994 0.455367 0.539069 0.065999
C10   C     C_R   0.778181 0.533448 0.528209 0.559075
C11   C     C_R   0.222876 0.465344 0.474751 0.546284
C12   C     C_R   0.489845 0.375296 0.133415 -0.135517
C13   C     C_R   0.514434 0.517172 0.741010 0.502039
C14   C     C_R   0.486778 0.481968 0.259265 0.517532
C15   C     C_R   0.516521 0.525297 0.836850 0.016480
C16   C     C_R   0.484446 0.473062 0.163862 0.009092
C17   C     C_R   0.497486 0.360259 0.045033 -0.024029
C18   C     C_1   0.544334 0.340422 0.860824 0.230779
C19   C     C_1   0.494223 0.254821 0.020814 0.211484
C20   C     C_1   0.479886 0.660629 0.139321 0.208790
C21   C     C_1   0.641779 0.911120 0.523751 0.242531
C22   C     C_R   0.484919 0.559417 0.105433 -0.022778
C23   C     C_R   0.495556 0.546633 0.015708 0.014041
C24   C     C_R   0.504157 0.446192 0.984512 0.009785
C25   C     C_R   0.518858 0.437049 0.894528 -0.021693
C26   C     C_R   0.508788 0.622053 0.868837 -0.134824
C27   C     C_R   0.499275 0.632856 0.957007 -0.125336
C28   C     C_2   0.543083 0.115822 0.538168 -0.033552
H1    H     H_    0.555367 0.078018 0.604543 0.092080
H2    H     H_    0.983703 0.657728 0.509190 0.228838
H3    H     H_    0.996176 0.519009 0.370976 0.236024
H4    H     H_    0.002288 0.389357 0.377610 0.247195
H5    H     H_    0.483368 0.050864 0.330162 0.237085
H6    H     H_    0.566041 0.145583 0.360817 0.253566
H7    H     H_    0.115399 0.472520 0.607167 0.115137
H8    H     H_    0.507491 0.689877 0.824603 0.141673
H9    H     H_    0.493028 0.709821 0.978216 0.143219
H10   H     H_    0.487529 0.309527 0.179698 0.135546
H11   H     H_    0.389174 0.917045 0.409830 0.123405
H12   H     H_    0.862972 0.340483 0.581257 0.242343
H13   H     H_    0.866303 0.346032 0.468897 0.258824
H14   H     H_    0.991054 0.632896 0.620755 0.231869
N1    N     N_1   0.565075 0.264092 0.832967 -0.255961
N2    N     N_3   0.910036 0.353843 0.532532 -0.602688
N3    N     N_3   0.940231 0.638274 0.559469 -0.604474
N4    N     N_3   0.046756 0.456375 0.380675 -0.602171
N5    N     N_1   0.491227 0.170022 0.002485 -0.252107
N6    N     N_1   0.475900 0.741193 0.166429 -0.275278
N7    N     N_1   0.722314 0.881882 0.560167 -0.244132
N8    N     N_3   0.500260 0.107261 0.376717 -0.604202
O1    O     O_3   0.500000 0.500000 0.500000 -0.455698
O2    O     O_R   0.563230 0.581310 0.697440 -0.542717
O3    O     O_R   0.421030 0.536630 0.288090 -0.518048
O4    O     O_R   0.459330 0.447650 0.700640 -0.532284
O5    O     O_R   0.556410 0.434400 0.313840 -0.543213
O6    O     O_R   0.733070 0.467190 0.476550 -0.571380
O7    O     O_R   0.261010 0.525210 0.419080 -0.516304
O8    O     O_R   0.532760 0.736590 0.530220 -0.525996
O9    O     O_R   0.473150 0.271000 0.574150 -0.519391
O10   O     O_R   0.407210 0.713280 0.414580 -0.526837
O11   O     O_R   0.586880 0.279120 0.481060 -0.540436
O12   O     O_R   0.723250 0.592730 0.566440 -0.495760
O13   O     O_R   0.282660 0.414860 0.537920 -0.547365
Zn1   Zn    Zn3+2 0.592480 0.421540 0.443840 0.937537
Zn2   Zn    Zn3+2 0.578450 0.600910 0.572270 0.973202
Zn3   Zn    Zn3+2 0.430000 0.409940 0.576840 0.966557
Zn4   Zn    Zn3+2 0.399070 0.567610 0.407050 0.979463

loop_
_geom_bond_atom_site_label_1
_geom_bond_atom_site_label_2
_ccdc_geom_bond_type
C12   C17   A    
O11   Zn1   S    
C2    C28   D    
C23   C24   A    
O6    Zn1   S    
C6    C7    D    
O4    Zn3   S    
C23   C27   A    
C13   O2    A    
C10   O6    A    
O8    Zn2   S    
C6    N4    S    
O5    Zn1   S    
C21   N7    T    
C14   O5    A    
O13   Zn3   S    
C3    H11   S    
O1    Zn4   S    
C1    O8    A    
C1    O10   A    
C9    N2    S    
C6    C11   S    
C20   N6    T    
C26   C27   A    
C10   O12   A    
C18   C25   S    
C7    H7    S    
C27   H9    S    
C4    O9    A    
C26   H8    S    
C28   H1    S    
C17   C19   S    
O7    Zn4   S    
C11   O13   A    
C13   C15   S    
O9    Zn3   S    
C12   H10   S    
O3    Zn4   S    
H13   N2    S    
C14   C16   S    
H6    N8    S    
C2    C5    S    
C15   C25   A    
C8    N3    S    
O1    Zn1   S    
C17   C24   A    
C3    C5    D    
H12   N2    S    
C14   O3    A    
C5    C21   S    
C24   C25   A    
H3    N4    S    
C8    C10   S    
C13   O4    A    
O1    Zn2   S    
C19   N5    T    
C18   N1    T    
C2    N8    S    
C7    C9    S    
C22   C23   A    
C15   C26   A    
C16   C22   A    
H2    N3    S    
O12   Zn2   S    
C4    C28   S    
H5    N8    S    
C11   O7    A    
H4    N4    S    
C4    O11   A    
H14   N3    S    
O2    Zn2   S    
C12   C16   A    
O10   Zn4   S    
C20   C22   S    
C8    C9    D    
C1    C3    S    
O1    Zn3   S    
