data_mof_unit_45366.cif
_audit_creation_date              2012-12-10T17:19:54-0500
_audit_creation_method            fapswitch 2.2
_symmetry_space_group_name_H-M    P1
_symmetry_Int_Tables_number       1
_space_group_crystal_system       triclinic
_cell_length_a                    9.649462
_cell_length_b                    10.816383
_cell_length_c                    15.427133
_cell_angle_alpha                 88.645606
_cell_angle_beta                  74.307389
_cell_angle_gamma                 88.513036
_cell_volume                      1549.39569869

loop_
_atom_site_label
_atom_site_type_symbol
_atom_type_description
_atom_site_fract_x
_atom_site_fract_y
_atom_site_fract_z
_atom_type_partial_charge
C1    C     C_R   0.007088 0.263796 0.489761 0.856093
C2    C     C_R   0.676272 0.475135 0.908279 0.070352
C3    C     C_R   0.765648 0.416541 0.955419 0.101252
C4    C     C_R   0.527541 0.493807 0.952249 -0.005414
C5    C     C_R   0.483505 0.495097 0.048079 -0.048795
C6    C     C_R   0.592129 0.472189 0.094777 -0.088651
C7    C     C_R   0.723352 0.416087 0.049118 -0.185818
C8    C     C_R   0.422502 0.504270 0.902789 -0.058301
C9    C     C_R   0.281591 0.544083 0.946059 0.280444
C10   C     C_R   0.233946 0.539757 0.040527 0.096470
C11   C     C_R   0.333164 0.510974 0.091979 0.040690
C12   C     C_R   0.918544 0.492195 0.672006 0.871747
C13   C     C_R   0.085626 0.552200 0.084350 -0.089156
C14   C     C_R   0.034422 0.534091 0.176865 -0.122406
C15   C     C_R   0.276503 0.490129 0.185116 -0.099617
C16   C     C_R   0.197617 0.110670 0.332875 0.214841
C17   C     C_R   0.245524 0.041113 0.253361 -0.126914
C18   C     C_R   0.205548 0.917553 0.253904 0.336822
C19   C     C_R   0.128251 0.862030 0.333527 -0.230934
C20   C     C_R   0.075086 0.930462 0.412581 -0.002473
C21   C     C_R   0.097502 0.059702 0.410717 0.007317
C22   C     C_R   0.015750 0.129359 0.486141 -0.018266
C23   C     C_R   0.997250 0.737436 0.500943 0.796595
C24   C     C_R   0.924560 0.070195 0.560129 -0.226942
C25   C     C_R   0.912969 0.943088 0.564193 -0.176585
C26   C     C_R   0.994318 0.872041 0.492435 -0.063617
C27   C     C_R   0.662949 0.709557 0.422888 0.425872
C28   C     C_R   0.585518 0.816789 0.412217 -0.145147
C29   C     C_R   0.452549 0.804480 0.396854 -0.186996
C30   C     C_R   0.390113 0.689377 0.408615 -0.045470
C31   C     C_R   0.441042 0.594617 0.456625 0.178885
C32   C     C_R   0.588282 0.598814 0.459459 0.163744
C33   C     C_R   0.559628 0.407179 0.538769 0.012070
C34   C     C_R   0.082154 0.499476 0.327658 0.825815
C35   C     C_R   0.411643 0.408238 0.540027 0.066975
C36   C     C_R   0.872925 0.467291 0.770348 -0.147252
C37   C     C_R   0.129963 0.506367 0.228375 -0.029681
C38   C     C_R   0.899749 0.367424 0.908132 -0.204925
C39   C     C_R   0.949089 0.383210 0.814072 -0.109110
C40   C     C_R   0.740934 0.518825 0.820499 0.309660
Cu1   Cu    Cu3+1 0.140660 0.499990 0.500010 1.044827
Cu2   Cu    Cu3+1 0.859340 0.500010 0.499990 1.050681
H1    H     H_    0.800245 0.386590 0.085736 0.165026
H2    H     H_    0.006504 0.571682 0.047600 0.191211
H3    H     H_    0.859309 0.124563 0.615293 0.162127
H4    H     H_    0.105400 0.765076 0.331763 0.185931
H5    H     H_    0.602364 0.330776 0.570612 0.125268
H6    H     H_    0.640424 0.903294 0.391906 0.195757
H7    H     H_    0.343402 0.454377 0.225372 0.204238
H8    H     H_    0.404645 0.881122 0.368233 0.181508
H9    H     H_    0.304242 0.677033 0.378595 0.195609
H10   H     H_    0.344882 0.333083 0.573420 0.173222
H11   H     H_    0.919816 0.540550 0.207430 0.220196
H12   H     H_    0.961350 0.311817 0.944395 0.156882
N1    N     N_R   0.648320 0.501210 0.499140 -0.188347
N2    N     N_R   0.352470 0.501290 0.499110 -0.192027
O1    O     O_R   0.118810 0.319640 0.500010 -0.512621
O2    O     O_R   0.881240 0.319660 0.500000 -0.610014
O3    O     O_R   0.055570 0.499980 0.629840 -0.547699
O4    O     O_R   0.818000 0.500010 0.629830 -0.544096
O5    O     O_R   0.118760 0.680340 0.500000 -0.610239
O6    O     O_R   0.881190 0.680360 0.499990 -0.532466
O7    O     O_R   0.182000 0.499990 0.370170 -0.581436
O8    O     O_R   0.944430 0.500020 0.370160 -0.534532
Cl1   Cl    Cl    0.296370 0.243334 0.338057 -0.609100
C41   C     C_2   0.339523 0.096880 0.170013 1.014202
O9    O     O_2   0.447999 0.041491 0.127781 -0.513478
O10   O     O_R   0.303223 0.212593 0.139482 -0.748343
H13   H     H_    0.374091 0.239651 0.081173 0.336888
Cl2   Cl    Cl    0.249759 0.828370 0.155726 -0.549626
C42   C     C_2   0.805334 0.889377 0.641776 0.934203
O11   O     O_2   0.707895 0.829303 0.628625 -0.475031
O12   O     O_R   0.806825 0.914017 0.730089 -0.647633
H14   H     H_    0.892871 0.963694 0.733282 0.318846
Cl3   Cl    Cl    0.820942 0.711306 0.335063 -0.614511
Cl4   Cl    Cl    0.161773 0.590546 0.881479 -0.557053
C43   C     C_2   0.073385 0.305566 0.763755 0.931919
O13   O     O_2   0.070776 0.260451 0.692492 -0.585695
O14   O     O_R   0.190803 0.276872 0.797963 -0.694853
H15   H     H_    0.187903 0.320951 0.855505 0.307772
Cl5   Cl    Cl    0.671429 0.655504 0.781904 -0.457692
C44   C     C_2   0.585447 0.522496 0.184708 0.855890
O15   O     O_2   0.628450 0.459527 0.239271 -0.532850
O16   O     O_R   0.533956 0.642618 0.207449 -0.714741
H16   H     H_    0.511542 0.690322 0.155477 0.353218
C45   C     C_2   0.451903 0.449877 0.811415 0.920641
O17   O     O_2   0.413495 0.503690 0.750980 -0.494309
O18   O     O_R   0.524426 0.335557 0.795224 -0.755386
H17   H     H_    0.537559 0.306679 0.731493 0.334544

loop_
_geom_bond_atom_site_label_1
_geom_bond_atom_site_label_2
_ccdc_geom_bond_type
C33   N1    A    
C41   O10   S    
C30   H9    S    
C18   Cl2   S    
C16   C21   A    
C6    C44   S    
C34   C37   S    
Cu1   Cu2   S    
C19   C20   A    
Cu1   O5    S    
C4    C8    A    
Cu2   O2    S    
C19   H4    S    
C43   O13   D    
C17   C41   S    
C5    C6    A    
C24   H3    S    
C39   C43   S    
C28   C29   A    
C5    C11   A    
C3    C7    A    
C38   C39   A    
C45   O18   S    
C16   C17   A    
C18   C19   A    
O12   H14   S    
C23   C26   S    
C15   C37   A    
C12   O3    A    
C11   C15   A    
C23   O6    A    
C3    C38   A    
C8    C9    A    
C25   C42   S    
C9    Cl4   S    
C7    H1    S    
C31   N2    A    
C12   C36   S    
C9    C10   A    
Cu2   O6    S    
C32   N1    A    
O18   H17   S    
C41   O9    D    
C35   N2    A    
C1    C22   S    
C21   C22   A    
C27   Cl3   S    
C29   H8    S    
C43   O14   S    
C36   C40   A    
C24   C25   A    
Cu1   O3    S    
Cu2   O4    S    
C42   O12   S    
C45   O17   D    
O10   H13   S    
C25   C26   A    
C2    C4    A    
Cu1   N2    S    
C29   C30   A    
C1    O1    A    
Cu2   N1    S    
C31   C32   A    
C38   H12   S    
C34   O8    A    
C17   C18   A    
O16   H16   S    
C44   O16   S    
C33   H5    S    
C22   C24   A    
Cu1   O7    S    
Cu2   O8    S    
C35   H10   S    
C28   H6    S    
C27   C32   A    
C40   Cl5   S    
C36   C39   A    
C4    C5    A    
C10   C13   A    
C6    C7    A    
C2    C3    A    
Cu1   O1    S    
C42   O11   D    
C1    O2    A    
C14   C37   A    
C30   C31   A    
C20   C26   A    
C34   O7    A    
C33   C35   A    
C8    C45   S    
C15   H7    S    
C10   C11   A    
O14   H15   S    
C12   O4    A    
C2    C40   A    
C23   O5    A    
C14   H11   S    
C20   C21   A    
C44   O15   D    
C27   C28   A    
C16   Cl1   S    
C13   C14   A    
C13   H2    S    
