data_mof_unit_23845.cif
_audit_creation_date              2012-12-10T17:56:44-0500
_audit_creation_method            fapswitch 2.2
_symmetry_space_group_name_H-M    P1
_symmetry_Int_Tables_number       1
_space_group_crystal_system       triclinic
_cell_length_a                    10.828188
_cell_length_b                    9.553545
_cell_length_c                    10.777537
_cell_angle_alpha                 89.903722
_cell_angle_beta                  90.802034
_cell_angle_gamma                 90.021449
_cell_volume                      1114.7992625

loop_
_atom_site_label
_atom_site_type_symbol
_atom_type_description
_atom_site_fract_x
_atom_site_fract_y
_atom_site_fract_z
_atom_type_partial_charge
C1    C     C_R   0.262158 0.499933 0.499901 0.806340
C2    C     C_R   0.737821 0.499963 0.500106 0.776461
C3    C     C_R   0.936174 0.627059 0.502644 -0.142258
C4    C     C_R   0.063904 0.627040 0.502779 -0.149397
C5    C     C_R   0.421427 0.075304 0.424245 -0.037153
C6    C     C_R   0.578369 0.074986 0.576093 -0.035007
C7    C     C_R   0.420874 0.926988 0.424035 0.063909
C8    C     C_R   0.578605 0.926571 0.576611 0.055977
C9    C     C_R   0.503817 0.500061 0.262617 0.794719
C10   C     C_R   0.504237 0.499918 0.737384 0.795594
C11   C     C_R   0.704903 0.360543 0.132593 -0.369146
C12   C     C_R   0.704866 0.360115 0.873577 -0.378188
C13   C     C_R   0.798896 0.292626 0.069174 0.598577
C14   C     C_R   0.798839 0.292350 0.939957 0.592675
C15   C     C_R   0.607716 0.427966 0.935943 0.021487
C16   C     C_R   0.607699 0.428165 0.067190 0.013711
C17   C     C_R   0.512302 0.500097 0.128943 -0.037833
C18   C     C_R   0.512467 0.499869 0.871141 -0.027253
C19   C     C_R   0.422413 0.574394 0.062423 -0.177712
C20   C     C_R   0.422650 0.574636 0.934505 -0.178340
C21   C     C_R   0.063731 0.372735 0.497098 -0.123848
C22   C     C_R   0.935970 0.372749 0.497255 -0.114019
C23   C     C_R   0.871687 0.499929 0.500019 -0.037507
C24   C     C_R   0.128231 0.499896 0.499904 -0.039525
Cu1   Cu    Cu3+1 0.500000 0.640660 0.500000 0.976740
Cu2   Cu    Cu3+1 0.500000 0.359340 0.500000 0.962355
H1    H     H_    0.349778 0.629675 0.109741 0.175976
H2    H     H_    0.350538 0.630772 0.884476 0.157245
H3    H     H_    0.710620 0.361435 0.232795 0.194479
H4    H     H_    0.710578 0.360789 0.773519 0.186431
H5    H     H_    0.111686 0.273303 0.494742 0.160096
H6    H     H_    0.887850 0.273330 0.495075 0.166824
H7    H     H_    0.888264 0.726508 0.504707 0.165590
H8    H     H_    0.111947 0.726472 0.505262 0.164866
H9    H     H_    0.358465 0.132623 0.363984 0.139228
H10   H     H_    0.640788 0.132051 0.636978 0.138525
N1    N     N_R   0.500000 0.852070 0.500000 -0.205010
N2    N     N_R   0.500000 0.147940 0.500000 -0.170592
O1    O     O_R   0.319640 0.618740 0.499990 -0.586426
O2    O     O_R   0.680360 0.618740 0.500010 -0.582847
O3    O     O_R   0.319620 0.381170 0.499990 -0.584836
O4    O     O_R   0.680380 0.381170 0.500010 -0.599754
O5    O     O_R   0.500000 0.618810 0.319650 -0.573324
O6    O     O_R   0.500000 0.618810 0.680350 -0.577511
O7    O     O_R   0.499970 0.381240 0.319640 -0.579394
O8    O     O_R   0.500030 0.381240 0.680360 -0.579165
F1    F     F_    0.891379 0.228563 0.133640 -0.624426
F2    F     F_    0.891209 0.227937 0.878394 -0.625654
C25   C     C_1   0.333496 0.857450 0.343654 0.289115
N3    N     N_1   0.262143 0.803015 0.278989 -0.295057
C26   C     C_1   0.662349 0.856086 0.660533 0.299710
N4    N     N_1   0.729916 0.800252 0.728483 -0.265447

loop_
_geom_bond_atom_site_label_1
_geom_bond_atom_site_label_2
_ccdc_geom_bond_type
C10   O8    A    
C15   C18   A    
C14   F2    S    
C6    N2    A    
C9    O7    A    
C19   H1    S    
C11   C16   A    
C3    C23   A    
C19   C20   A    
C12   C15   A    
C12   C14   A    
Cu1   N1    S    
C21   C22   A    
Cu1   O5    S    
C7    N1    A    
C7    C25   S    
C26   N4    T    
C13   C14   A    
Cu1   O1    S    
C11   C13   A    
C8    C26   S    
Cu2   O4    S    
C21   H5    S    
C22   H6    S    
C2    O4    A    
C5    H9    S    
Cu1   O6    S    
C1    O3    A    
C17   C19   A    
C10   C18   S    
C18   C20   A    
Cu1   O2    S    
C4    C24   A    
C4    H8    S    
C9    O5    A    
C8    N1    A    
C1    O1    A    
C10   O6    A    
C15   C16   A    
C2    O2    A    
C11   H3    S    
C1    C24   S    
C13   F1    S    
C25   N3    T    
C21   C24   A    
C9    C17   S    
C2    C23   S    
C5    C7    A    
C3    H7    S    
C22   C23   A    
Cu2   N2    S    
C6    C8    A    
C20   H2    S    
Cu2   O7    S    
C12   H4    S    
Cu1   Cu2   S    
C5    N2    A    
Cu2   O8    S    
C3    C4    A    
Cu2   O3    S    
C6    H10   S    
C16   C17   A    
