data_mof_unit_55786.cif
_audit_creation_date              2013-03-05T15:43:18-0500
_audit_creation_method            fapswitch 2.2
_symmetry_space_group_name_H-M    P1
_symmetry_Int_Tables_number       1
_space_group_crystal_system       triclinic
_cell_length_a                    8.294823
_cell_length_b                    15.057238
_cell_length_c                    26.814475
_cell_angle_alpha                 96.672115
_cell_angle_beta                  93.259344
_cell_angle_gamma                 80.088985
_cell_volume                      3274.40101101

loop_
_atom_site_label
_atom_site_type_symbol
_atom_site_description
_atom_site_fract_x
_atom_site_fract_y
_atom_site_fract_z
_atom_type_partial_charge
P1    P     P_3+3 0.070480 0.574800 0.610950 0.552402
O1    O     O_2   0.905540 0.548000 0.618290 -0.309555
O2    O     O_3   0.137550 0.547930 0.558110 -0.329003
O3    O     O_3   0.688580 0.383890 0.587540 -0.287867
O4    O     O_2   0.854324 0.421899 0.673534 -0.451563
O5    O     O_3   0.008246 0.692559 0.612471 -0.555564
O6    O     O_3   0.638801 0.314226 0.677867 -0.603505
H1    H     H_    0.890179 0.262601 0.669734 0.087157
C1    C     C_3   0.778448 0.184122 0.714394 -0.804741
H2    H     H_    0.879445 0.125306 0.709379 0.285703
H3    H     H_    0.802244 0.225759 0.750181 0.219520
P2    P     P_3+3 0.668430 0.292880 0.460530 0.564217
P3    P     P_3+3 0.152692 0.220802 0.564036 0.579105
O7    O     O_2   0.848360 0.279400 0.474970 -0.402514
O8    O     O_3   0.104690 0.337720 0.562900 -0.315092
O9    O     O_2   0.011617 0.178153 0.536048 -0.294837
O10   O     O_3   0.662802 0.270176 0.395117 -0.507137
O11   O     O_3   0.147152 0.198943 0.626376 -0.491196
C2    C     C_3   0.272712 0.236883 0.653971 0.259132
H4    H     H_    0.260122 0.310758 0.650376 0.074441
H5    H     H_    0.394492 0.201756 0.640976 0.136445
C3    C     C_3   0.263231 0.225836 0.709386 -0.096306
H6    H     H_    0.144493 0.262584 0.723900 0.128327
C4    C     C_3   0.180871 0.245431 0.400133 0.690464
H7    H     H_    0.166480 0.276089 0.439721 -0.001591
C5    C     C_3   0.070737 0.172711 0.387054 0.280287
H8    H     H_    0.942965 0.203515 0.392108 0.095511
Ba1   Ba    Ba6+2 0.860900 0.457020 0.523210 1.703440
C6    C     C_3   0.131600 0.739736 0.634045 0.818201
H9    H     H_    0.254957 0.700062 0.628290 0.042822
C7    C     C_3   0.107329 0.766399 0.690063 -0.795170
H10   H     H_    0.993141 0.816203 0.696217 0.314634
H11   H     H_    0.212405 0.797365 0.707209 0.226410
H12   H     H_    0.099285 0.706059 0.709082 0.253434
C8    C     C_3   0.700662 0.342608 0.372580 0.384888
H13   H     H_    0.821475 0.357980 0.386906 0.041916
H14   H     H_    0.605774 0.403687 0.380051 0.117939
C9    C     C_3   0.706624 0.314406 0.316071 -0.817487
H15   H     H_    0.759880 0.241582 0.308386 0.298721
H16   H     H_    0.784457 0.353369 0.298104 0.207272
H17   H     H_    0.580943 0.325323 0.298730 0.262372
P4    P     P_3+3 0.119230 0.425130 0.389040 0.518222
O12   O     O_2   0.284150 0.451970 0.381680 -0.347337
O13   O     O_3   0.052160 0.451990 0.441880 -0.395850
O14   O     O_3   0.501140 0.616030 0.412450 -0.399927
O15   O     O_3   0.146041 0.309211 0.365041 -0.569648
P5    P     P_3+3 0.040835 0.780747 0.440001 0.505132
O16   O     O_3   0.615020 0.608480 0.525380 -0.344383
O17   O     O_3   0.085020 0.662210 0.437090 -0.373596
O18   O     O_2   0.187609 0.820575 0.466126 -0.343735
O19   O     O_3   0.041594 0.807293 0.378264 -0.504504
Ba2   Ba    Ba6+2 0.328940 0.542910 0.476780 1.666856
P6    P     P_3+3 0.679146 0.411066 0.653154 0.519521
C10   C     C_3   0.769553 0.241174 0.670706 0.908847
H18   H     H_    0.661154 0.158883 0.716681 0.287807
O20   O     O_3   0.574690 0.391440 0.474610 -0.330351
C11   C     C_3   0.624566 0.780133 0.635447 0.653155
H19   H     H_    0.729429 0.783300 0.612169 0.090010
C12   C     C_3   0.534698 0.876006 0.651181 0.050150
H20   H     H_    0.453117 0.875580 0.682558 0.179950
H21   H     H_    0.457609 0.902756 0.619462 0.119809
P7    P     P_3+3 0.523917 0.719285 0.545802 0.481643
O21   O     O_2   0.341330 0.720570 0.525000 -0.300135
O22   O     O_3   0.513998 0.726561 0.611266 -0.619301
H22   H     H_    0.363849 0.254719 0.730885 0.173051
C13   C     C_3   0.893427 0.791665 0.353822 0.319888
H23   H     H_    0.867143 0.723201 0.358700 0.076332
H24   H     H_    0.792327 0.844807 0.368469 0.064587
C14   C     C_3   0.903640 0.797385 0.297940 -0.747437
H25   H     H_    0.001712 0.743538 0.281971 0.259733
H26   H     H_    0.784858 0.788003 0.278602 0.250407
H27   H     H_    0.930914 0.864780 0.291573 0.262754
P8    P     P_3+3 0.510234 0.606361 0.346971 0.464452
C15   C     C_3   0.465352 0.779898 0.369390 0.418505
H28   H     H_    0.575811 0.775345 0.395023 -0.004391
O23   O     O_2   0.351407 0.572862 0.325671 -0.384720
O24   O     O_3   0.492007 0.714963 0.327368 -0.519997
H29   H     H_    0.359114 0.770006 0.389996 0.189330
H30   H     H_    0.526308 0.885588 0.328649 0.242960
C16   C     C_3   0.427627 0.874383 0.352279 -0.791156
H31   H     H_    0.417618 0.926034 0.385570 0.250864
H32   H     H_    0.309855 0.882501 0.330059 0.291151
C17   C     C_R   0.038472 0.437414 0.180422 0.595859
O25   O     O_2   0.078729 0.371168 0.203325 -0.497648
N1    N     N_R   0.943652 0.514008 0.204067 -0.171520
C18   C     C_R   0.891072 0.588384 0.177894 0.530909
C19   C     C_2   0.740202 0.537451 0.270045 -0.139639
C20   C     C_3   0.696986 0.528679 0.323471 0.136806
C21   C     C_1   0.986740 0.490810 0.344113 0.297883
C22   C     C_2   0.028188 0.491019 0.296804 -0.150737
C23   C     C_2   0.899152 0.515777 0.256439 0.084826
C24   C     C_R   0.030145 0.510271 0.102827 -0.108173
C25   C     C_R   0.086339 0.434585 0.129770 -0.225308
C26   C     C_R   0.187042 0.358635 0.104750 0.567023
C27   C     C_R   0.931429 0.586999 0.127200 -0.026858
C28   C     C_2   0.843133 0.534041 0.359233 -0.480330
H33   H     H_    0.154778 0.470266 0.286615 0.185836
C29   C     C_2   0.377721 0.519591 0.642235 -0.335935
C30   C     C_R   0.222875 0.434479 0.976763 0.073752
C31   C     C_R   0.046161 0.582917 0.972705 0.038318
C32   C     C_R   0.155136 0.508363 0.949344 0.085001
C33   C     C_R   0.336243 0.363851 0.952253 -0.190510
C34   C     C_R   0.377565 0.364619 0.902600 -0.072556
C35   C     C_R   0.308478 0.435776 0.874707 -0.057414
C36   C     C_R   0.196939 0.507796 0.898016 -0.069104
C37   C     C_R   0.127465 0.579419 0.870025 -0.066810
C38   C     C_R   0.170105 0.578316 0.819473 0.544295
N2    N     N_R   0.279864 0.507157 0.796724 -0.166394
C39   C     C_R   0.349281 0.436382 0.824035 0.517110
C40   C     C_2   0.479743 0.502408 0.731599 -0.165371
C41   C     C_3   0.524743 0.510317 0.677980 0.280950
C42   C     C_1   0.225977 0.532025 0.658061 0.141169
C43   C     C_2   0.189958 0.518686 0.703844 -0.252319
C44   C     C_2   0.321795 0.507567 0.744357 0.131226
O26   O     O_2   0.445807 0.373427 0.804196 -0.596360
C45   C     C_R   0.176270 0.433782 0.027462 -0.018259
C46   C     C_R   0.072196 0.509646 0.051434 0.094533
C47   C     C_R   0.009613 0.585111 0.024479 0.055662
C48   C     C_R   0.229713 0.359117 0.055116 -0.296452
H34   H     H_    0.577107 0.497001 0.760452 0.155185
H35   H     H_    0.465012 0.308569 0.886047 0.177891
H36   H     H_    0.398425 0.306973 0.970572 0.141664
H37   H     H_    0.304032 0.298073 0.038859 0.174622
O27   O     O_2   0.809724 0.656446 0.198862 -0.594002
C49   C     C_R   0.875495 0.661796 0.100600 -0.069308
H38   H     H_    0.642560 0.552045 0.241986 0.167156
H39   H     H_    0.801073 0.722113 0.118443 0.177499
C50   C     C_R   0.976477 0.652806 0.943040 -0.198850
C51   C     C_R   0.016404 0.651005 0.893106 -0.058890
O28   O     O_2   0.110870 0.641674 0.795963 -0.577226
C52   C     C_R   0.913135 0.660991 0.050635 -0.196691
H40   H     H_    0.887705 0.709855 0.956942 0.136590
H41   H     H_    0.959068 0.706636 0.872481 0.182985
H42   H     H_    0.063436 0.522134 0.713193 0.199805
H43   H     H_    0.866468 0.722342 0.033901 0.137421
H44   H     H_    0.829870 0.569539 0.396792 0.163839
H45   H     H_    0.402015 0.529510 0.604099 0.196770
C53   C     C_R   0.770520 0.768090 0.493864 -0.353226
C54   C     C_R   0.850537 0.827412 0.472578 0.225196
C55   C     C_R   0.783406 0.919714 0.474912 -0.229567
C56   C     C_R   0.631236 0.953796 0.497644 0.136133
C57   C     C_R   0.551187 0.890455 0.517524 -0.250681
C58   C     C_R   0.622151 0.799522 0.516660 0.151792
C59   C     C_R   0.410325 0.087064 0.526799 -0.198025
C60   C     C_R   0.352023 0.179701 0.535539 0.094900
C61   C     C_R   0.582080 0.211869 0.493556 0.307946
C62   C     C_R   0.640042 0.118599 0.484076 -0.199468
C63   C     C_R   0.560015 0.053871 0.502705 0.119433
C64   C     C_R   0.445021 0.241998 0.522576 0.144603
H46   H     H_    0.334740 0.043444 0.539327 0.176745
H47   H     H_    0.852206 0.962491 0.458442 0.173032
H48   H     H_    0.745922 0.098942 0.461421 0.166756
H49   H     H_    0.433916 0.908889 0.534192 0.156992
H50   H     H_    0.824103 0.697099 0.492686 0.162912
Br1   Br    Br    0.085444 0.119829 0.317270 -0.344891
Br2   Br    Br    0.117045 0.074658 0.429517 -0.512407
Cl1   Cl    Cl    0.117914 0.840808 0.604255 -0.575259
Cl2   Cl    Cl    0.735096 0.172259 0.613827 -0.579490
Cl3   Cl    Cl    0.705547 0.728876 0.690291 -0.608984
Cl4   Cl    Cl    0.676926 0.950988 0.670085 -0.517749
Cl5   Cl    Cl    0.268287 0.259191 0.132969 -0.511614
Cl6   Cl    Cl    0.395656 0.357120 0.545165 -0.568466
Br3   Br    Br    0.285475 0.098812 0.719627 -0.401270
Cl7   Cl    Cl    0.383617 0.188366 0.390678 -0.585536

loop_
_geom_bond_atom_site_label_1
_geom_bond_atom_site_label_2
_geom_bond_distance
_ccdc_geom_bond_type
C37   C51   1.400560 A    
C13   H24   1.109603 S    
C19   C20   1.522130 S    
C20   C28   1.509703 S    
C25   C26   1.418552 A    
C19   C23   1.362676 D    
O3    P6    1.762489 S    
O1    Ba1   2.787382 S    
C5    Br2   1.941518 S    
C2    H4    1.114142 S    
P3    C60   1.839085 S    
P7    C58   1.834361 S    
C59   C63   1.418269 A    
C50   C51   1.393602 A    
N1    C23   1.468307 S    
C28   H44   1.085988 S    
N1    C18   1.384432 Am   
C45   C46   1.419964 A    
P8    C20   1.865704 S    
C5    H8    1.090539 S    
C6    H9    1.101725 S    
P3    O11   1.745433 S    
P2    Ba1   3.401449 S    
O4    P6    1.551531 D    
O2    Ba1   2.924879 S    
C2    H5    1.111233 S    
C4    C5    1.541155 S    
O11   C2    1.406248 S    
C52   H43   1.076127 S    
C53   C58   1.389270 A    
P1    C42   1.841772 S    
C9    H15   1.109541 S    
O12   Ba2   2.787795 S    
C11   C12   1.530162 S    
C13   C14   1.518850 S    
C37   C38   1.417776 A    
N2    C44   1.466672 S    
C17   C25   1.430460 A    
N2    C39   1.387676 Am   
O14   P8    1.749736 S    
P1    O1    1.520701 D    
P4    O15   1.769655 S    
P2    C61   1.846364 S    
C14   H26   1.110136 S    
C27   C49   1.400574 A    
C40   C41   1.528665 S    
C35   C36   1.409083 A    
P7    O22   1.751793 S    
C47   C52   1.414437 A    
C56   C63   1.514327 S    
C33   C34   1.395389 A    
C56   C57   1.418117 A    
C62   C63   1.419016 A    
C15   O24   1.404437 S    
P2    O10   1.747143 S    
P1    Ba1   3.365870 S    
C59   H46   1.074376 S    
C38   N2    1.387264 Am   
C7    H11   1.110392 S    
C12   Cl4   1.783536 S    
C1    H18   1.110978 S    
C1    H2    1.110833 S    
C40   C44   1.359891 D    
C22   H33   1.083838 S    
C17   N1    1.387527 Am   
P6    C41   1.877167 S    
C13   H23   1.113240 S    
C11   Cl3   1.783951 S    
C12   H20   1.110567 S    
C15   C16   1.521372 S    
C5    Br1   1.948494 S    
C4    Cl7   1.769535 S    
P4    O13   1.536109 S    
C38   O28   1.221513 D    
C50   H40   1.076150 S    
C42   C43   1.325283 D    
O3    Ba1   2.737642 S    
P5    O18   1.545742 D    
C11   H19   1.109687 S    
C3    H6    1.110687 S    
C32   C36   1.437029 A    
C12   H21   1.106164 S    
C29   C42   1.326870 D    
C15   H28   1.111018 S    
C61   C62   1.402345 A    
C29   H45   1.085318 S    
P1    O5    1.755743 S    
C2    C3    1.522194 S    
C55   C56   1.421243 A    
C9    H17   1.110726 S    
C16   H32   1.110813 S    
C53   C54   1.389173 A    
H1    C10   1.105419 S    
C30   C45   1.436041 A    
C16   H31   1.110634 S    
P5    O19   1.748179 S    
O14   Ba2   2.736932 S    
Ba1   O13   2.755408 S    
C24   C27   1.411423 A    
P1    O2    1.536123 S    
C8    H13   1.104900 S    
C14   H27   1.110767 S    
C24   C46   1.439235 A    
C3    H22   1.109052 S    
P7    O21   1.581666 D    
C10   Cl2   1.780278 S    
C61   C64   1.394591 A    
C26   C48   1.397626 A    
C49   C52   1.391072 A    
O16   P7    1.747931 S    
C17   O25   1.219841 D    
C55   H47   1.075576 S    
C54   C55   1.401033 A    
O17   Ba2   2.720546 S    
C8    C9    1.526604 S    
C7    H12   1.105637 S    
C4    H7    1.111667 S    
C1    H3    1.110922 S    
C26   Cl5   1.768252 S    
P2    O20   1.566996 S    
C51   H41   1.083656 S    
C30   C32   1.421910 A    
P2    O7    1.505626 D    
C43   H42   1.084005 S    
P3    O8    1.740247 S    
C18   O27   1.221855 D    
P8    O23   1.546779 D    
C31   C47   1.433223 A    
P4    O12   1.520919 D    
O6    P6    1.759284 S    
C40   H34   1.085536 S    
C34   H35   1.083635 S    
C11   O22   1.406324 S    
C43   C44   1.499394 S    
Ba1   O16   2.783089 S    
C29   C41   1.504973 S    
C8    H14   1.109668 S    
C31   C50   1.416722 A    
C7    H10   1.109610 S    
C59   C60   1.392528 A    
Ba2   O21   2.848538 S    
C6    Cl1   1.783195 S    
O2    Ba2   2.756097 S    
C64   Cl6   1.754753 S    
C48   H37   1.075766 S    
P5    O17   1.752640 S    
C36   C37   1.408355 A    
C45   C48   1.412464 A    
P4    C21   1.840994 S    
C4    O15   1.405245 S    
C21   C28   1.316712 D    
C62   H48   1.075812 S    
C21   C22   1.333562 D    
C6    C7    1.524597 S    
C46   C47   1.424136 A    
C9    H16   1.106602 S    
C3    Br3   1.939693 S    
Ba1   Ba2   4.576789 S    
O13   Ba2   2.925876 S    
C22   C23   1.510220 S    
C35   C39   1.420227 A    
Ba1   O20   2.909583 S    
C24   C25   1.417089 A    
C57   H49   1.072709 S    
C14   H25   1.111021 S    
C18   C27   1.415259 A    
C39   O26   1.221722 D    
H30   C16   1.109645 S    
O8    Ba1   2.719891 S    
O16   Ba2   2.908604 S    
O5    C6    1.404853 S    
C15   H29   1.106226 S    
P3    O9    1.546537 D    
P5    C54   1.838687 S    
C34   C35   1.400675 A    
C49   H39   1.083721 S    
P8    O24   1.754646 S    
C57   C58   1.392297 A    
C31   C32   1.421743 A    
C1    C10   1.522476 S    
O10   C8    1.394962 S    
O6    C10   1.409605 S    
O7    Ba1   2.848396 S    
C53   H50   1.082296 S    
C33   H36   1.075956 S    
O19   C13   1.402681 S    
C19   H38   1.085454 S    
C60   C64   1.396824 A    
C30   C33   1.418019 A    
Ba2   O20   2.782553 S    
P4    Ba2   3.366482 S    
