data_mof_unit_35272.cif
_audit_creation_date              2012-12-11T15:39:01-0500
_audit_creation_method            fapswitch 2.2
_symmetry_space_group_name_H-M    P1
_symmetry_Int_Tables_number       1
_space_group_crystal_system       triclinic
_cell_length_a                    14.297831
_cell_length_b                    14.817229
_cell_length_c                    33.251955
_cell_angle_alpha                 98.350764
_cell_angle_beta                  90.422939
_cell_angle_gamma                 118.620213
_cell_volume                      6094.19587131

loop_
_atom_site_label
_atom_site_type_symbol
_atom_type_description
_atom_site_fract_x
_atom_site_fract_y
_atom_site_fract_z
_atom_type_partial_charge
C1    C     C_R   0.616903 0.910139 0.436903 0.541180
C2    C     C_R   0.726128 0.372324 0.177421 0.025960
C3    C     C_R   0.719044 0.923793 0.657842 -0.121192
C4    C     C_R   0.635194 0.834317 0.669234 0.033951
C5    C     C_R   0.631909 0.872704 0.589273 0.022783
C6    C     C_R   0.052137 0.781623 0.063902 0.539575
C7    C     C_R   0.744028 0.485941 0.065745 0.545841
C8    C     C_R   0.742850 0.789783 0.066300 0.536339
C9    C     C_R   0.022617 0.732179 0.947491 0.531915
C10   C     C_R   0.711299 0.435094 0.949750 0.530545
C11   C     C_R   0.709805 0.739572 0.950639 0.533065
C12   C     C_R   0.825422 0.429610 0.162701 -0.124916
C13   C     C_R   0.830547 0.462118 0.125215 -0.129187
C14   C     C_R   0.677861 0.251143 0.227372 -0.107372
C15   C     C_R   0.662287 0.231728 0.267536 0.012151
C16   C     C_R   0.692260 0.317689 0.299552 0.023578
C17   C     C_R   0.739989 0.419536 0.291210 -0.140929
C18   C     C_R   0.754368 0.437096 0.251306 -0.125408
C19   C     C_R   0.721215 0.352933 0.219321 0.008371
C20   C     C_R   0.576419 0.295180 0.357857 0.009137
C21   C     C_R   0.592953 0.203672 0.456072 0.544870
C22   C     C_R   0.556814 0.272704 0.397416 -0.115323
C23   C     C_R   0.724767 0.271053 0.404927 -0.137540
C24   C     C_R   0.746266 0.295298 0.366050 -0.145601
C25   C     C_R   0.671294 0.303758 0.341889 0.024936
C26   C     C_R   0.628014 0.255584 0.420311 0.007059
C27   C     C_R   0.237427 0.874448 0.393272 0.039475
C28   C     C_R   0.210892 0.950114 0.382443 -0.018138
C29   C     C_R   0.186423 0.948551 0.341327 -0.106528
C30   C     C_R   0.185723 0.873159 0.310984 0.005049
C31   C     C_R   0.198053 0.791737 0.321430 -0.104713
C32   C     C_R   0.294026 0.891893 0.434276 0.542053
C33   C     C_R   0.221428 0.789559 0.362180 -0.015202
C34   C     C_R   0.192701 0.811048 0.164626 -0.119062
C35   C     C_R   0.165964 0.787923 0.122569 -0.131804
C36   C     C_R   0.089858 0.904103 0.129462 -0.130285
C37   C     C_R   0.116071 0.926528 0.171633 -0.118796
C38   C     C_R   0.163730 0.876841 0.189343 0.037313
C39   C     C_1   0.171388 0.882361 0.232754 -0.040814
C40   C     C_1   0.176540 0.880366 0.268708 -0.045726
C41   C     C_R   0.109841 0.830485 0.104812 0.018547
C42   C     C_R   0.638222 0.879443 0.395151 0.020007
C43   C     C_R   0.614044 0.906392 0.551863 0.543705
C44   C     C_R   0.557645 0.793864 0.368589 -0.132954
C45   C     C_R   0.567882 0.781948 0.326625 -0.119748
C46   C     C_R   0.659517 0.854458 0.311113 0.036127
C47   C     C_R   0.743558 0.934769 0.337627 -0.119073
C48   C     C_R   0.733325 0.947052 0.379397 -0.125951
C49   C     C_R   0.776082 0.927660 0.174652 0.014193
C50   C     C_R   0.790527 0.911792 0.132759 -0.113490
C51   C     C_R   0.618062 0.754665 0.120832 -0.134726
C52   C     C_R   0.602725 0.769073 0.161979 -0.127623
C53   C     C_R   0.682822 0.851907 0.189119 0.037316
C54   C     C_R   0.588639 0.197514 0.571497 0.543162
C55   C     C_1   0.672083 0.852069 0.232051 -0.049143
C56   C     C_1   0.665394 0.851567 0.268018 -0.050417
C57   C     C_R   0.714364 0.822668 0.106255 0.000704
C58   C     C_R   0.617180 0.239481 0.615684 0.019160
C59   C     C_R   0.548143 0.264116 0.638992 -0.127144
C60   C     C_R   0.559382 0.278306 0.681585 -0.114938
C61   C     C_R   0.639744 0.268348 0.701444 0.040266
C62   C     C_R   0.712678 0.250003 0.678704 -0.114306
C63   C     C_R   0.701774 0.235956 0.636099 -0.128305
C64   C     C_R   0.752131 0.321057 0.847249 -0.122560
C65   C     C_R   0.290841 0.888209 0.549181 0.543647
C66   C     C_R   0.766359 0.356428 0.889287 -0.138694
C67   C     C_R   0.583786 0.325161 0.888272 -0.149438
C68   C     C_R   0.569604 0.289662 0.846194 -0.129883
C69   C     C_R   0.655385 0.292365 0.825371 0.033702
C70   C     C_1   0.648919 0.279439 0.781560 -0.036830
C71   C     C_1   0.644966 0.273633 0.745002 -0.033684
C72   C     C_R   0.684687 0.365590 0.909709 0.011001
C73   C     C_R   0.083626 0.763833 0.911468 0.015632
C74   C     C_R   0.113719 0.864828 0.903800 -0.137871
C75   C     C_R   0.152941 0.894762 0.867235 -0.140337
C76   C     C_R   0.736335 0.439575 0.102484 0.022226
C77   C     C_R   0.163889 0.824795 0.837444 0.010908
C78   C     C_R   0.144292 0.727693 0.845990 -0.098746
C79   C     C_R   0.104672 0.695261 0.882978 -0.010582
C80   C     C_R   0.250920 0.820261 0.773148 -0.120244
C81   C     C_R   0.254706 0.824972 0.731713 -0.111536
C82   C     C_R   0.190788 0.856875 0.712290 0.032088
C83   C     C_R   0.126835 0.888888 0.735155 -0.118791
C84   C     C_R   0.122480 0.883564 0.776625 -0.113734
C85   C     C_R   0.182717 0.846955 0.795684 0.029227
C86   C     C_R   0.209817 0.945768 0.652502 -0.120193
C87   C     C_R   0.636680 0.379087 0.116743 -0.130514
C88   C     C_R   0.231753 0.952430 0.611959 -0.126752
C89   C     C_R   0.207193 0.776663 0.601519 -0.126337
C90   C     C_R   0.185722 0.770287 0.642014 -0.123229
C91   C     C_R   0.192119 0.856614 0.668178 0.031960
C92   C     C_R   0.236260 0.869917 0.586800 0.021936
C93   C     C_R   0.658575 0.741337 0.912388 0.022237
C94   C     C_R   0.644173 0.666522 0.877768 -0.018793
C95   C     C_R   0.612803 0.677220 0.839342 0.012453
C96   C     C_R   0.609154 0.768983 0.835191 0.018034
C97   C     C_R   0.616027 0.840784 0.869890 0.003877
C98   C     C_R   0.631641 0.344815 0.153976 -0.120443
C99   C     C_R   0.635935 0.823580 0.909334 -0.012703
C100  C     C_R   0.523724 0.773790 0.770449 -0.126468
C101  C     C_R   0.530219 0.786698 0.729690 -0.116501
C102  C     C_R   0.628668 0.821662 0.712385 0.032559
C103  C     C_R   0.720936 0.846168 0.736707 -0.120157
C104  C     C_R   0.714393 0.833356 0.777356 -0.117884
C105  C     C_R   0.615731 0.795996 0.794146 0.021584
C106  C     C_R   0.554473 0.760036 0.639558 -0.121724
C107  C     C_R   0.552850 0.779006 0.599840 -0.126153
C108  C     C_R   0.717670 0.942680 0.618106 -0.126154
Cr1   Cr    Cr6+3 0.424820 0.846020 0.489780 1.002196
Cr2   Cr    Cr6+3 0.657880 0.078580 0.505700 1.006634
Cr3   Cr    Cr6+3 0.417280 0.075360 0.504550 0.997872
Cr4   Cr    Cr6+3 0.903360 0.812540 0.006510 0.999081
Cr5   Cr    Cr6+3 0.914630 0.587050 0.006280 0.996734
Cr6   Cr    Cr6+3 0.673560 0.582680 0.008540 0.997427
H1    H     H_    0.563176 0.360627 0.099649 0.121792
H2    H     H_    0.482570 0.262328 0.409282 0.121561
H3    H     H_    0.898773 0.451941 0.180858 0.108484
H4    H     H_    0.781329 0.258797 0.421998 0.127557
H5    H     H_    0.182447 0.731130 0.104395 0.119470
H6    H     H_    0.229946 0.772469 0.178129 0.100039
H7    H     H_    0.192618 0.731084 0.297375 0.108562
H8    H     H_    0.093438 0.977515 0.190632 0.105495
H9    H     H_    0.045951 0.937582 0.116784 0.122148
H10   H     H_    0.908488 0.509253 0.115007 0.132046
H11   H     H_    0.170947 0.008291 0.332775 0.108434
H12   H     H_    0.863760 0.964090 0.121000 0.119241
H13   H     H_    0.815066 0.990782 0.325847 0.100810
H14   H     H_    0.797414 0.013462 0.398969 0.126303
H15   H     H_    0.484665 0.739588 0.379931 0.111003
H16   H     H_    0.530628 0.711922 0.173048 0.107377
H17   H     H_    0.557410 0.686100 0.100959 0.124159
H18   H     H_    0.502752 0.718885 0.306213 0.103082
H19   H     H_    0.843942 0.384140 0.905158 0.115819
H20   H     H_    0.819403 0.302808 0.353989 0.109758
H21   H     H_    0.818786 0.322513 0.831491 0.106488
H22   H     H_    0.775617 0.242813 0.693809 0.103987
H23   H     H_    0.755804 0.216273 0.619181 0.123625
H24   H     H_    0.481841 0.266790 0.624327 0.123083
H25   H     H_    0.494031 0.266774 0.829567 0.107735
H26   H     H_    0.518636 0.329401 0.903220 0.122381
H27   H     H_    0.502989 0.293305 0.698951 0.103437
H28   H     H_    0.102264 0.920016 0.925464 0.127300
H29   H     H_    0.169657 0.699901 0.653502 0.102994
H30   H     H_    0.306621 0.802552 0.714635 0.100543
H31   H     H_    0.298906 0.793064 0.787350 0.089644
H32   H     H_    0.170267 0.971132 0.861470 0.103470
H33   H     H_    0.077372 0.914111 0.720638 0.098522
H34   H     H_    0.068092 0.903176 0.793315 0.101875
H35   H     H_    0.214441 0.012931 0.672278 0.101865
H36   H     H_    0.253323 0.025128 0.601364 0.124478
H37   H     H_    0.153978 0.675515 0.822294 0.101473
H38   H     H_    0.208759 0.711369 0.582702 0.125878
H39   H     H_    0.655247 0.187253 0.202214 0.106948
H40   H     H_    0.782202 0.982298 0.680206 0.098996
H41   H     H_    0.458384 0.768836 0.711607 0.096956
H42   H     H_    0.447008 0.743366 0.783108 0.094910
H43   H     H_    0.797459 0.872551 0.724017 0.099616
H44   H     H_    0.785582 0.849325 0.795489 0.110210
H45   H     H_    0.490467 0.689127 0.647463 0.100422
H46   H     H_    0.486170 0.723285 0.578161 0.122787
H47   H     H_    0.554513 0.301373 0.165465 0.107595
H48   H     H_    0.779673 0.015678 0.610898 0.123371
H49   H     H_    0.763349 0.485250 0.315645 0.117130
H50   H     H_    0.788173 0.516106 0.245180 0.121562
O1    O     O_R   0.318160 0.824460 0.443680 -0.522484
O2    O     O_R   0.645130 0.163230 0.552140 -0.501419
O3    O     O_R   0.498360 0.178430 0.555780 -0.518870
O4    O     O_R   0.328690 0.978040 0.538950 -0.503629
O5    O     O_3   0.499990 0.999990 0.500010 -0.230622
O6    O     O_R   0.828710 0.851830 0.052170 -0.526305
O7    O     O_R   0.005980 0.823990 0.047210 -0.501163
O8    O     O_R   0.031900 0.688850 0.050170 -0.519205
O9    O     O_R   0.830940 0.518420 0.048680 -0.502323
O10   O     O_R   0.668160 0.499860 0.053480 -0.514522
O11   O     O_R   0.689170 0.693840 0.050110 -0.497272
O12   O     O_R   0.525040 0.857250 0.449830 -0.502935
O13   O     O_R   0.803860 0.812940 0.962540 -0.516533
O14   O     O_R   0.982950 0.787950 0.964120 -0.499217
O15   O     O_R   0.007050 0.649970 0.960540 -0.533990
O16   O     O_R   0.807910 0.482370 0.965590 -0.502527
O17   O     O_R   0.643310 0.460980 0.963840 -0.526433
O18   O     O_R   0.666140 0.657800 0.967020 -0.509607
O19   O     O_3   0.830520 0.660760 0.007110 -0.230027
O20   O     O_R   0.684760 0.998800 0.456360 -0.520638
O21   O     O_R   0.647540 0.166310 0.470260 -0.499990
O22   O     O_R   0.500960 0.181750 0.467450 -0.527682
O23   O     O_R   0.331100 0.981120 0.457080 -0.502809
O24   O     O_R   0.315560 0.821140 0.532010 -0.519852
O25   O     O_R   0.522630 0.854180 0.531710 -0.500733
O26   O     O_R   0.682160 0.995480 0.544690 -0.522511
C109  C     C_3   0.230042 0.696414 0.370700 -0.383728
H51   H     H_    0.314321 0.719583 0.379421 0.153226
H52   H     H_    0.178964 0.662308 0.395295 0.148560
H53   H     H_    0.202519 0.633865 0.343484 0.101664
C110  C     C_3   0.208624 0.034219 0.413394 -0.386751
H54   H     H_    0.165324 0.070161 0.400329 0.100943
H55   H     H_    0.166168 0.000644 0.439811 0.139419
H56   H     H_    0.291292 0.097493 0.423596 0.160669
C111  C     C_3   0.859728 0.019735 0.204908 -0.252387
C112  C     C_3   0.953218 0.103642 0.186246 -0.309118
C113  C     C_3   0.028434 0.194161 0.219206 -0.457357
H57   H     H_    0.985011 0.231574 0.235520 0.151971
H58   H     H_    0.062348 0.166026 0.241466 0.146199
H59   H     H_    0.095270 0.253392 0.204932 0.140589
H60   H     H_    0.999990 0.069751 0.170196 0.148843
H61   H     H_    0.921862 0.134317 0.164122 0.162756
H62   H     H_    0.818608 0.057813 0.222640 0.142309
H63   H     H_    0.892555 0.989215 0.226576 0.146570
C114  C     C_3   0.080211 0.587803 0.891289 -0.241633
C115  C     C_3   0.110359 0.522576 0.859151 -0.323679
C116  C     C_3   0.088281 0.420203 0.872367 -0.457941
H64   H     H_    0.136106 0.435750 0.901507 0.150953
H65   H     H_    0.002005 0.372684 0.876362 0.143763
H66   H     H_    0.110755 0.374944 0.848618 0.141219
H67   H     H_    0.062399 0.503679 0.829668 0.157530
H68   H     H_    0.196930 0.567077 0.854771 0.158459
H69   H     H_    0.124587 0.598872 0.920786 0.166964
H70   H     H_    0.993036 0.542049 0.893997 0.166716
C117  C     C_3   0.616241 0.120302 0.275230 -0.257182
C118  C     C_3   0.506831 0.047174 0.251255 -0.301820
C119  C     C_3   0.450964 0.942974 0.266477 -0.444778
H71   H     H_    0.503030 0.906463 0.265196 0.165049
H72   H     H_    0.430943 0.954429 0.298374 0.163575
H73   H     H_    0.376120 0.889176 0.246798 0.147196
H74   H     H_    0.454707 0.083786 0.254109 0.170361
H75   H     H_    0.517542 0.031813 0.218375 0.156779
H76   H     H_    0.672980 0.091377 0.265900 0.134095
H77   H     H_    0.607872 0.116311 0.308157 0.164210
C120  C     C_3   0.666537 0.577952 0.882229 -0.365462
H78   H     H_    0.666488 0.531167 0.853124 0.126892
H79   H     H_    0.746925 0.608885 0.898356 0.145713
H80   H     H_    0.604295 0.524546 0.899762 0.162174
C121  C     C_3   0.635123 0.891541 0.948496 -0.259293
C122  C     C_3   0.540570 0.829110 0.972664 -0.302430
C123  C     C_3   0.541551 0.895699 0.012426 -0.452498
H81   H     H_    0.616254 0.922671 0.032136 0.157377
H82   H     H_    0.535696 0.964427 0.006013 0.151496
H83   H     H_    0.472239 0.848649 0.029079 0.142950
H84   H     H_    0.464134 0.800968 0.953900 0.156349
H85   H     H_    0.543543 0.759959 0.980237 0.170588
H86   H     H_    0.711622 0.923608 0.967652 0.162726
H87   H     H_    0.629566 0.960535 0.942954 0.138585
C124  C     C_3   0.587990 0.592976 0.802456 -0.396624
H88   H     H_    0.530409 0.515456 0.809740 0.121983
H89   H     H_    0.549540 0.602394 0.775518 0.141418
H90   H     H_    0.662777 0.593240 0.793512 0.135821
C125  C     C_3   0.606118 0.936419 0.864140 -0.250072
C126  C     C_3   0.492225 0.918270 0.869681 -0.298304
C127  C     C_3   0.480919 0.011559 0.861581 -0.444070
H91   H     H_    0.496612 0.024020 0.829625 0.164295
H92   H     H_    0.398334 0.996796 0.866312 0.153481
H93   H     H_    0.537925 0.083172 0.882820 0.163206
H94   H     H_    0.434125 0.847824 0.848189 0.158085
H95   H     H_    0.471433 0.904899 0.901137 0.164771
H96   H     H_    0.666270 0.007114 0.884855 0.128094
H97   H     H_    0.626519 0.956843 0.833428 0.156326
C128  C     C_3   0.493483 0.305866 0.333279 -0.256559
C129  C     C_3   0.387746 0.202596 0.324332 -0.297842
C130  C     C_3   0.315631 0.204252 0.290658 -0.460147
H98   H     H_    0.297128 0.268741 0.299735 0.147698
H99   H     H_    0.355361 0.214709 0.261802 0.151787
H100  H     H_    0.239531 0.129307 0.285050 0.139762
H101  H     H_    0.403611 0.136568 0.314866 0.177459
H102  H     H_    0.344877 0.188762 0.352428 0.151972
H103  H     H_    0.478736 0.367082 0.350721 0.130452
H104  H     H_    0.522664 0.332158 0.304064 0.160444

loop_
_geom_bond_atom_site_label_1
_geom_bond_atom_site_label_2
_ccdc_geom_bond_type
C80   C85   A    
C65   C92   S    
C21   C26   S    
C1    O12   A    
C112  H60   S    
C29   H11   S    
C113  H58   S    
C113  H57   S    
C53   C55   S    
C35   H5    S    
C95   C96   A    
C54   O3    A    
C55   C56   T    
C130  H100  S    
C2    C12   A    
C8    O6    A    
C23   H4    S    
C107  H46   S    
C52   H16   S    
C8    O11   A    
C21   O22   A    
Cr2   O21   S    
C6    O8    A    
C77   C78   A    
C27   C33   A    
C65   O4    A    
C100  C105  A    
C62   C63   A    
C42   C44   A    
C106  C107  A    
C114  H70   S    
Cr4   O14   S    
C36   C37   A    
C37   C38   A    
Cr5   O16   S    
C34   C35   A    
C120  H80   S    
C86   C91   A    
C49   C111  S    
C38   C39   S    
C99   C121  S    
C126  H95   S    
Cr4   O7    S    
C20   C25   A    
C101  H41   S    
C124  H88   S    
C66   H19   S    
C7    O10   A    
C7    O9    A    
C58   C63   A    
C28   C110  S    
C3    C4    A    
C17   C18   A    
C128  C129  S    
C73   C74   A    
C23   C26   A    
C62   H22   S    
C49   C50   A    
C104  C105  A    
C17   H49   S    
C68   C69   A    
C18   H50   S    
C81   H30   S    
C66   C72   A    
C129  H101  S    
C43   O26   A    
Cr1   O25   S    
C112  C113  S    
C124  H89   S    
C6    C41   S    
C4    C102  S    
C123  H82   S    
C123  H81   S    
C31   C33   A    
C70   C71   T    
C50   H12   S    
C117  H77   S    
Cr4   O19   S    
C103  C104  A    
C121  C122  S    
C93   C99   A    
C87   H1    S    
C90   H29   S    
C9    O15   A    
C20   C128  S    
C110  H56   S    
C125  H97   S    
C11   C93   S    
C22   H2    S    
C5    C43   S    
C65   O24   A    
Cr2   O20   S    
C59   C60   A    
Cr1   O24   S    
C34   C38   A    
C32   O1    A    
C63   H23   S    
C36   C41   A    
C69   C70   S    
C11   O18   A    
C9    C73   S    
C54   O2    A    
C115  H68   S    
C118  C119  S    
C97   C99   A    
C1    O20   A    
Cr1   O5    S    
C78   H37   S    
C81   C82   A    
Cr5   O8    S    
C6    O7    A    
C89   H38   S    
C75   H32   S    
C34   H6    S    
Cr4   O6    S    
C37   H8    S    
Cr1   O12   S    
C127  H92   S    
C15   C16   A    
C128  H104  S    
C106  H45   S    
C109  H51   S    
C47   C48   A    
C88   C92   A    
C67   C72   A    
C101  C102  A    
C128  H103  S    
C84   C85   A    
C31   H7    S    
C74   C75   A    
C86   H35   S    
C117  C118  S    
C13   H10   S    
C51   H17   S    
C126  H94   S    
C18   C19   A    
C42   C48   A    
C59   H24   S    
C130  H99   S    
C58   C59   A    
Cr6   O18   S    
C4    C106  A    
Cr2   O26   S    
C3    H40   S    
C82   C91   S    
C67   C68   A    
C60   C61   A    
Cr3   O5    S    
C64   C66   A    
C84   H34   S    
C109  H52   S    
C116  H64   S    
C29   C30   A    
C60   H27   S    
C48   H14   S    
C119  H71   S    
C64   H21   S    
C121  H87   S    
C83   C84   A    
C13   C76   A    
Cr6   O10   S    
C30   C31   A    
C23   C24   A    
C124  H90   S    
C96   C97   A    
C36   H9    S    
C111  H62   S    
C114  C115  S    
C127  H91   S    
C30   C40   S    
C94   C95   A    
C93   C94   A    
C122  H85   S    
C52   C53   A    
C24   C25   A    
C89   C92   A    
C47   H13   S    
C67   H26   S    
C75   C77   A    
C76   C87   A    
C2    C98   A    
Cr1   O1    S    
C51   C57   A    
C121  H86   S    
Cr6   O11   S    
Cr5   O15   S    
C20   C22   A    
C115  C116  S    
C14   H39   S    
C22   C26   A    
C54   C58   S    
C113  H59   S    
C83   H33   S    
C10   C72   S    
Cr3   O3    S    
C122  C123  S    
C15   C117  S    
C130  H98   S    
C89   C90   A    
C39   C40   T    
C98   H47   S    
C126  C127  S    
C96   C105  S    
Cr5   O9    S    
C5    C107  A    
C24   H20   S    
C16   C25   S    
C79   C114  S    
C94   C120  S    
C46   C47   A    
C28   C29   A    
Cr3   O22   S    
C112  H61   S    
C32   O23   A    
C116  H65   S    
C27   C32   S    
C78   C79   A    
C50   C57   A    
C88   H36   S    
C14   C19   A    
C103  H43   S    
C44   C45   A    
C104  H44   S    
C80   C81   A    
C73   C79   A    
C97   C125  S    
C129  H102  S    
C125  C126  S    
C21   O21   A    
C7    C76   S    
Cr3   O4    S    
C3    C108  A    
C119  H73   S    
Cr6   O17   S    
C64   C69   A    
Cr3   O23   S    
C120  H78   S    
C33   C109  S    
C10   O16   A    
C87   C98   A    
C61   C62   A    
C129  C130  S    
C44   H15   S    
C109  H53   S    
C114  H69   S    
C51   C52   A    
C120  H79   S    
C11   O13   A    
Cr2   O2    S    
C61   C71   S    
C90   C91   A    
C16   C17   A    
C111  H63   S    
C108  H48   S    
C49   C53   A    
C118  H75   S    
C100  C101  A    
C123  H83   S    
C118  H74   S    
C86   C88   A    
C122  H84   S    
C74   H28   S    
C102  C103  A    
C35   C41   A    
C127  H93   S    
C80   H31   S    
C77   C85   S    
C110  H54   S    
Cr2   O5    S    
C45   C46   A    
C1    C42   S    
C111  C112  S    
C116  H66   S    
C12   C13   A    
C43   O25   A    
C45   H18   S    
C119  H72   S    
C82   C83   A    
Cr5   O19   S    
C46   C56   S    
C27   C28   A    
C10   O17   A    
C14   C15   A    
C68   H25   S    
C12   H3    S    
C117  H76   S    
C115  H67   S    
C100  H42   S    
C8    C57   S    
C9    O14   A    
Cr6   O19   S    
C2    C19   S    
C95   C124  S    
Cr4   O13   S    
C110  H55   S    
C5    C108  A    
C125  H96   S    
