data_mof_unit_17317.cif
_audit_creation_date              2012-12-10T16:53:56-0500
_audit_creation_method            fapswitch 2.2
_symmetry_space_group_name_H-M    P1
_symmetry_Int_Tables_number       1
_space_group_crystal_system       triclinic
_cell_length_a                    7.760435
_cell_length_b                    8.59129
_cell_length_c                    10.605166
_cell_angle_alpha                 91.338896
_cell_angle_beta                  85.071623
_cell_angle_gamma                 93.849575
_cell_volume                      702.755487814

loop_
_atom_site_label
_atom_site_type_symbol
_atom_type_description
_atom_site_fract_x
_atom_site_fract_y
_atom_site_fract_z
_atom_type_partial_charge
C1    C     C_R   0.546040 0.794431 0.501926 0.851078
C2    C     C_3   0.355964 0.370787 0.931403 -0.388569
C3    C     C_3   0.350555 0.371067 0.077429 0.017798
C4    C     C_3   0.677903 0.443228 0.915864 -0.410080
C5    C     C_3   0.465436 0.655923 0.933366 -0.426884
C6    C     C_3   0.500374 0.491564 0.878082 0.163880
C7    C     C_3   0.750655 0.018080 0.674628 0.119454
C8    C     C_3   0.922265 0.102016 0.703168 -0.800750
C9    C     C_3   0.336757 0.205454 0.136869 -0.374126
C10   C     C_3   0.444908 0.080555 0.069399 -0.892783
C11   C     C_3   0.498072 0.489127 0.121185 0.156069
C12   C     C_3   0.678855 0.447600 0.059053 -0.374977
C13   C     C_3   0.465184 0.654713 0.077712 -0.465800
C14   C     C_2   0.570947 0.956895 0.519749 0.291684
C15   C     C_2   0.432963 0.041879 0.510469 -0.547625
C16   C     C_R   0.500401 0.496338 0.742044 0.818704
C17   C     C_R   0.454706 0.205422 0.507178 0.970060
C18   C     C_R   0.498773 0.495793 0.257791 0.822469
H1    H     H_    0.379072 0.254744 0.887722 0.170238
H2    H     H_    0.702685 0.323787 0.878963 0.170400
H3    H     H_    0.717770 0.335461 0.093795 0.177793
H4    H     H_    0.566986 0.743542 0.894037 0.155130
H5    H     H_    0.338060 0.691935 0.907448 0.177172
H6    H     H_    0.338841 0.692608 0.121498 0.181704
H7    H     H_    0.748731 0.895826 0.707743 0.113540
H8    H     H_    0.644317 0.079082 0.728472 0.114554
H9    H     H_    0.926849 0.225175 0.672751 0.267442
H10   H     H_    0.936264 0.100474 0.806474 0.182277
H11   H     H_    0.031625 0.043154 0.652300 0.251895
H12   H     H_    0.568573 0.740094 0.108025 0.174543
H13   H     H_    0.375598 0.023976 0.991340 0.244113
H14   H     H_    0.573945 0.127008 0.030406 0.256238
H15   H     H_    0.463264 0.989186 0.138200 0.247614
H16   H     H_    0.368287 0.214082 0.236896 0.198855
H17   H     H_    0.198871 0.159794 0.140539 0.197497
H18   H     H_    0.785416 0.524238 0.875070 0.178577
H19   H     H_    0.780281 0.537837 0.085172 0.177510
H20   H     H_    0.303816 0.990400 0.496961 0.167503
H21   H     H_    0.014168 0.382052 0.404734 0.196293
H22   H     H_    0.985792 0.617782 0.595396 0.188079
H23   H     H_    0.227090 0.400940 0.903881 0.156594
H24   H     H_    0.226340 0.421893 0.112463 0.119215
N1    N     N_2   0.950330 0.457950 0.465890 -0.170575
N2    N     N_2   0.049670 0.542050 0.534110 -0.177162
O1    O     O_R   0.389250 0.738570 0.508370 -0.639345
O2    O     O_R   0.678390 0.711620 0.486510 -0.596504
O3    O     O_R   0.355430 0.513500 0.696140 -0.630928
O4    O     O_R   0.644580 0.486550 0.674270 -0.643877
O5    O     O_R   0.321610 0.288380 0.513490 -0.635525
O6    O     O_R   0.610750 0.261430 0.491630 -0.540663
O7    O     O_R   0.355420 0.513450 0.325730 -0.636935
O8    O     O_R   0.644570 0.486500 0.303860 -0.626028
O9    O     O_3   0.734994 0.020167 0.542933 -0.569120
Zn1   Zn    Zn3+2 0.306940 0.517990 0.514600 0.917733
Zn2   Zn    Zn3+2 0.693060 0.482010 0.485400 0.954549

loop_
_geom_bond_atom_site_label_1
_geom_bond_atom_site_label_2
_ccdc_geom_bond_type
O2    Zn2   S    
C17   O6    A    
O4    Zn2   S    
C11   C12   S    
C4    H18   S    
C11   C18   S    
C15   C17   S    
C3    C9    S    
N2    Zn1   S    
C4    C12   S    
C9    C10   S    
C5    C13   S    
O6    Zn2   S    
C5    H5    S    
O8    Zn2   S    
N1    N2    D    
O7    Zn1   S    
C16   O4    A    
C2    C3    S    
C18   O8    A    
C7    C8    S    
C3    H24   S    
C11   C13   S    
C1    O1    A    
C2    C6    S    
C7    H8    S    
C15   H20   S    
C8    H10   S    
C8    H11   S    
C12   H3    S    
C16   O3    A    
N1    Zn2   S    
C18   O7    A    
C10   H15   S    
O3    Zn1   S    
C5    C6    S    
O1    Zn1   S    
C1    O2    A    
C3    C11   S    
C7    O9    S    
C2    H23   S    
C6    C16   S    
O5    Zn1   S    
C4    H2    S    
C10   H14   S    
C13   H12   S    
H22   N2    S    
C14   O9    S    
C4    C6    S    
C17   O5    A    
C12   H19   S    
C9    H17   S    
C8    H9    S    
C14   C15   D    
H21   N1    S    
C1    C14   S    
C2    H1    S    
C10   H13   S    
C5    H4    S    
C13   H6    S    
C9    H16   S    
C7    H7    S    
