data_mof_unit_59996.cif
_audit_creation_date              2012-10-26T17:12:30-0400
_audit_creation_method            fapswitch 2.2
_symmetry_space_group_name_H-M    P1
_symmetry_Int_Tables_number       1
_space_group_crystal_system       triclinic
_cell_length_a                    16.867483
_cell_length_b                    16.808282
_cell_length_c                    16.823992
_cell_angle_alpha                 68.170295
_cell_angle_beta                  68.028536
_cell_angle_gamma                 68.198248
_cell_volume                      3953.92521825

loop_
_atom_site_label
_atom_site_type_symbol
_atom_type_description
_atom_site_fract_x
_atom_site_fract_y
_atom_site_fract_z
_atom_type_partial_charge
C1    C     C_R   0.023240 0.829103 0.566954 0.610715
C2    C     C_R   0.007075 0.571126 0.834451 0.609480
C3    C     C_R   0.165791 0.992638 0.428747 0.590601
C4    C     C_R   0.834246 0.007275 0.571278 0.590170
C5    C     C_R   0.470600 0.091029 0.684704 0.387711
C6    C     C_R   0.529510 0.908522 0.315371 0.390034
C7    C     C_R   0.091168 0.684606 0.470683 0.393298
C8    C     C_R   0.908906 0.315430 0.529254 0.393513
C9    C     C_R   0.683776 0.470339 0.093981 0.395289
C10   C     C_R   0.303726 0.537868 0.926801 0.402086
C11   C     C_R   0.263437 0.057488 0.501714 0.383600
C12   C     C_R   0.976771 0.170898 0.433039 0.610318
C13   C     C_R   0.736742 0.941955 0.498552 0.382453
C14   C     C_R   0.504357 0.266026 0.051558 0.381120
C15   C     C_R   0.518354 0.736036 0.922568 0.379186
C16   C     C_R   0.059127 0.500801 0.262728 0.378991
C17   C     C_R   0.941052 0.499122 0.737168 0.379873
C18   C     C_R   0.550982 0.003524 0.548573 -0.059081
C19   C     C_R   0.449181 0.995716 0.451732 -0.057056
C20   C     C_R   0.003462 0.548719 0.550963 -0.057017
C21   C     C_R   0.996679 0.451279 0.448932 -0.056834
C22   C     C_R   0.550666 0.552061 0.003681 -0.055940
C23   C     C_R   0.829117 0.566689 0.024249 0.605831
C24   C     C_R   0.452938 0.452332 0.993802 -0.057843
C25   C     C_R   0.594210 0.965652 0.475144 0.031057
C26   C     C_R   0.405969 0.033518 0.525198 0.031532
C27   C     C_R   0.965526 0.475357 0.594244 0.032484
C28   C     C_R   0.034643 0.524629 0.405637 0.032900
C29   C     C_R   0.483629 0.595591 0.958128 0.030428
C30   C     C_R   0.527287 0.408140 0.029879 0.032963
C31   C     C_R   0.542111 0.955853 0.430705 0.033085
C32   C     C_R   0.458050 0.043367 0.569592 0.031890
C33   C     C_R   0.427916 0.546679 0.962145 0.030311
C34   C     C_R   0.171078 0.433347 0.976539 0.596655
C35   C     C_R   0.569574 0.459346 0.044114 0.034886
C36   C     C_R   0.956184 0.430704 0.541992 0.033026
C37   C     C_R   0.043954 0.569307 0.457898 0.033017
C38   C     C_R   0.423357 0.099794 0.627332 0.152001
C39   C     C_R   0.576768 0.899562 0.372830 0.152477
C40   C     C_R   0.100364 0.626927 0.423299 0.150839
C41   C     C_R   0.899743 0.373113 0.576614 0.150975
C42   C     C_R   0.626456 0.423388 0.101245 0.150620
C43   C     C_R   0.347240 0.588198 0.937302 0.158795
C44   C     C_R   0.311813 0.054672 0.554716 0.153252
C45   C     C_R   0.566731 0.023343 0.829120 0.632354
C46   C     C_R   0.688381 0.944514 0.445646 0.152794
C47   C     C_R   0.557399 0.314262 0.048688 0.155007
C48   C     C_R   0.479664 0.685102 0.905936 0.151417
C49   C     C_R   0.056371 0.553847 0.311217 0.154620
C50   C     C_R   0.943854 0.446084 0.688651 0.153793
C51   C     C_R   0.558844 0.038971 0.674701 0.000151
C52   C     C_R   0.441261 0.960603 0.325427 -0.004550
C53   C     C_R   0.038662 0.674956 0.559086 0.003100
C54   C     C_R   0.961421 0.325047 0.440860 0.003436
C55   C     C_R   0.674620 0.558984 0.042400 0.002279
C56   C     C_R   0.433289 0.976612 0.170890 0.625456
C57   C     C_R   0.324509 0.444702 0.961292 -0.000195
C58   C     C_R   0.304901 0.019384 0.429679 -0.013431
C59   C     C_R   0.695236 0.980158 0.570514 -0.012970
C60   C     C_R   0.432117 0.307754 0.014168 -0.021909
C61   C     C_R   0.574469 0.695233 0.978805 -0.020296
C62   C     C_R   0.020802 0.429028 0.304413 -0.022291
C63   C     C_R   0.979324 0.570930 0.695513 -0.023046
C64   C     C_R   0.608482 0.024139 0.733689 0.062920
C65   C     C_R   0.391589 0.975662 0.266371 0.055323
C66   C     C_R   0.024334 0.733719 0.609145 0.027019
C67   C     C_R   0.429568 0.166759 0.990690 0.609828
C68   C     C_R   0.975708 0.266277 0.390828 0.027266
C69   C     C_R   0.733843 0.608849 0.027082 0.024855
C70   C     C_R   0.267130 0.393068 0.973892 0.017705
C71   C     C_R   0.256675 0.004558 0.385181 0.005169
C72   C     C_R   0.743411 0.995216 0.614908 0.004478
C73   C     C_R   0.387385 0.258920 0.000528 0.043340
C74   C     C_R   0.615406 0.743255 0.997309 0.050722
C75   C     C_R   0.005049 0.385334 0.256202 0.037625
C76   C     C_R   0.995014 0.614641 0.743757 0.036579
C77   C     C_R   0.701740 0.001473 0.702654 0.045363
C78   C     C_R   0.571128 0.834240 0.007835 0.618263
C79   C     C_R   0.298326 0.998406 0.297404 0.044306
C80   C     C_R   0.002604 0.701527 0.703010 0.038433
C81   C     C_R   0.997418 0.298461 0.296964 0.038849
C82   C     C_R   0.702161 0.702967 0.004314 0.042402
C83   C     C_R   0.299942 0.299138 0.995776 0.040524
C84   C     C_R   0.601735 0.006872 0.598149 -0.090533
C85   C     C_R   0.398402 0.992545 0.402078 -0.091531
C86   C     C_R   0.006342 0.598521 0.601878 -0.093351
C87   C     C_R   0.993780 0.401463 0.398044 -0.092946
C88   C     C_R   0.599865 0.601965 0.008336 -0.095769
C89   C     C_R   0.992947 0.428867 0.165535 0.612324
C90   C     C_R   0.403212 0.401683 0.989661 -0.091628
Cu1   Cu    Cu3+1 0.995180 0.995180 0.424630 1.056056
Cu2   Cu    Cu3+1 0.004820 0.004820 0.575370 1.055753
Cu3   Cu    Cu3+1 0.995180 0.424630 0.995180 1.077786
Cu4   Cu    Cu3+1 0.004820 0.575370 0.004820 1.076848
Cu5   Cu    Cu3+1 0.424630 0.995180 0.995180 1.101126
Cu6   Cu    Cu3+1 0.575370 0.004820 0.004820 1.105526
F1    F     F_    0.434639 0.144880 0.739961 -0.638514
F2    F     F_    0.512721 0.821623 0.872285 -0.644701
F3    F     F_    0.105363 0.517413 0.175380 -0.639305
F4    F     F_    0.894790 0.482488 0.824501 -0.634000
F5    F     F_    0.565469 0.854859 0.259931 -0.636270
F6    F     F_    0.145136 0.739632 0.434873 -0.633833
F7    F     F_    0.854910 0.260431 0.565079 -0.634322
F8    F     F_    0.739127 0.433215 0.147401 -0.633029
F9    F     F_    0.244922 0.581856 0.877177 -0.626498
F10   F     F_    0.176567 0.104256 0.518262 -0.633960
F11   F     F_    0.823682 0.895419 0.481928 -0.634116
F12   F     F_    0.519512 0.179548 0.100233 -0.631908
H1    H     H_    0.371986 0.233111 0.591149 0.254850
H2    H     H_    0.679120 0.302868 0.177027 0.278259
H3    H     H_    0.242299 0.681882 0.985759 0.246379
H4    H     H_    0.284993 0.711912 0.874365 0.282396
H5    H     H_    0.235831 0.007186 0.677156 0.236689
H6    H     H_    0.212948 0.119122 0.642041 0.284137
H7    H     H_    0.787255 0.879817 0.358537 0.283696
H8    H     H_    0.764451 0.991748 0.323156 0.237296
H9    H     H_    0.679716 0.239718 0.999723 0.235098
H10   H     H_    0.644987 0.214683 0.111738 0.284558
H11   H     H_    0.505766 0.727636 0.771954 0.255266
H12   H     H_    0.304670 0.178547 0.679572 0.278929
H13   H     H_    0.406426 0.782817 0.826387 0.277307
H14   H     H_    0.009747 0.676187 0.234932 0.236350
H15   H     H_    0.121355 0.640668 0.212145 0.280077
H16   H     H_    0.879010 0.359131 0.787687 0.283821
H17   H     H_    0.990627 0.323737 0.764828 0.237060
H18   H     H_    0.805502 0.921306 0.755786 0.230132
H19   H     H_    0.776554 0.032402 0.753227 0.274553
H20   H     H_    0.223382 0.967830 0.246683 0.276075
H21   H     H_    0.194598 0.078845 0.244325 0.229358
H22   H     H_    0.930471 0.810587 0.750973 0.232622
H23   H     H_    0.695413 0.820811 0.320512 0.279372
H24   H     H_    0.042073 0.773641 0.749480 0.278324
H25   H     H_    0.957824 0.226390 0.250563 0.277856
H26   H     H_    0.069454 0.189395 0.248979 0.232585
H27   H     H_    0.777218 0.752786 0.036122 0.272548
H28   H     H_    0.811492 0.748979 0.925762 0.255137
H29   H     H_    0.224388 0.247641 0.966554 0.273718
H30   H     H_    0.190804 0.253427 0.076236 0.254573
H31   H     H_    0.628042 0.766222 0.408835 0.255043
H32   H     H_    0.233501 0.590284 0.372476 0.255150
H33   H     H_    0.179915 0.678472 0.304542 0.280122
H34   H     H_    0.820205 0.321586 0.695396 0.278919
H35   H     H_    0.766614 0.409788 0.627479 0.255355
H36   H     H_    0.590648 0.367947 0.233877 0.254839
N1    N     N_3   0.348928 0.176295 0.616739 -0.584377
N2    N     N_3   0.450526 0.719584 0.826697 -0.584909
N3    N     N_3   0.062504 0.643064 0.263881 -0.594149
N4    N     N_3   0.937837 0.356824 0.735926 -0.593578
N5    N     N_3   0.753819 0.978678 0.762769 -0.584414
N6    N     N_3   0.246220 0.021451 0.237248 -0.584689
N7    N     N_3   0.985097 0.755963 0.759579 -0.601131
N8    N     N_3   0.014833 0.244037 0.240414 -0.601353
N9    N     N_3   0.757813 0.760070 0.981067 -0.585292
N10   N     N_3   0.244174 0.241656 0.020906 -0.587686
N11   N     N_3   0.651151 0.822998 0.383356 -0.585663
N12   N     N_3   0.177220 0.615830 0.348990 -0.584680
N13   N     N_3   0.822910 0.384225 0.650943 -0.585227
N14   N     N_3   0.616286 0.346943 0.175800 -0.584605
N15   N     N_3   0.301641 0.679769 0.934710 -0.596364
N16   N     N_3   0.264608 0.060339 0.644105 -0.595021
N17   N     N_3   0.735632 0.938632 0.356330 -0.593212
N18   N     N_3   0.646671 0.267385 0.053672 -0.593892
O1    O     O_R   0.124540 0.978640 0.385460 -0.523624
O2    O     O_R   0.124540 0.385460 0.978640 -0.557236
O3    O     O_R   0.021360 0.875460 0.614540 -0.558412
O4    O     O_R   0.978640 0.124540 0.385460 -0.558527
O5    O     O_R   0.013780 0.867370 0.487190 -0.410410
O6    O     O_R   0.986220 0.132630 0.512810 -0.410744
O7    O     O_R   0.867370 0.487190 0.013780 -0.415100
O8    O     O_R   0.132630 0.512810 0.986220 -0.403852
O9    O     O_R   0.487190 0.013780 0.867370 -0.431570
O10   O     O_R   0.512810 0.986220 0.132630 -0.431439
O11   O     O_R   0.512810 0.132630 0.986220 -0.471383
O12   O     O_R   0.875460 0.021360 0.614540 -0.523982
O13   O     O_R   0.487190 0.867370 0.013780 -0.484739
O14   O     O_R   0.986220 0.512810 0.132630 -0.466357
O15   O     O_R   0.013780 0.487190 0.867370 -0.466640
O16   O     O_R   0.132630 0.986220 0.512810 -0.448788
O17   O     O_R   0.867370 0.013780 0.487190 -0.449055
O18   O     O_R   0.978640 0.385460 0.124540 -0.474669
O19   O     O_R   0.021360 0.614540 0.875460 -0.472606
O20   O     O_R   0.385460 0.124540 0.978640 -0.473307
O21   O     O_R   0.614540 0.875460 0.021360 -0.472211
O22   O     O_R   0.614540 0.021360 0.875460 -0.503794
O23   O     O_R   0.385460 0.978640 0.124540 -0.501399
O24   O     O_R   0.875460 0.614540 0.021360 -0.557948

loop_
_geom_bond_atom_site_label_1
_geom_bond_atom_site_label_2
_ccdc_geom_bond_type
C25   C31   A    
C80   N7    S    
C21   C87   A    
C26   C32   A    
Cu3   Cu4   S    
C65   C79   A    
H4    N15   S    
C20   C86   A    
C64   C77   A    
C23   C69   S    
Cu1   O4    S    
Cu5   Cu6   S    
C4    C72   S    
C13   F11   S    
C19   C31   A    
C71   C79   A    
C26   C44   A    
C66   C80   A    
C83   N10   S    
H11   N2    S    
C22   C35   A    
C12   C68   S    
Cu3   O7    S    
C9    C42   A    
C24   C90   A    
C30   C35   A    
C68   C81   A    
Cu1   O5    S    
C52   C85   A    
C22   C29   A    
C3    O16   A    
Cu6   O22   S    
C37   C40   A    
C34   O2    A    
C12   O4    A    
C54   C87   A    
H18   N5    S    
C58   C71   A    
C89   O18   A    
C54   C68   A    
C63   C76   A    
C1    O5    A    
C56   C65   S    
C29   C33   A    
C60   C73   A    
C49   N3    S    
C78   O21   A    
C6    F5    S    
C55   C88   A    
C19   C26   A    
C35   C42   A    
Cu5   O13   S    
C15   F2    S    
H3    N15   S    
C69   C82   A    
C82   N9    S    
Cu2   O3    S    
C7    F6    S    
Cu1   O17   S    
C18   C84   A    
C7    C40   A    
C53   C86   A    
C67   C73   S    
C2    O15   A    
C32   C38   A    
C57   C70   A    
C11   C58   A    
C34   C70   S    
C34   O8    A    
C27   C50   A    
C3    O1    A    
C59   C72   A    
C20   C37   A    
H30   N10   S    
C14   F12   S    
H12   N1    S    
C4    O12   A    
C5    C38   A    
C56   O10   A    
C47   N18   S    
Cu1   O1    S    
C36   C41   A    
C42   N14   S    
H25   N8    S    
C16   C62   A    
C15   C48   A    
C74   C82   A    
C45   O9    A    
C8    F7    S    
Cu3   O18   S    
H35   N13   S    
C57   C90   A    
C29   C48   A    
C33   C43   A    
Cu4   O24   S    
H8    N17   S    
C10   C57   A    
C59   C84   A    
Cu6   O11   S    
C77   N5    S    
Cu1   Cu2   S    
C21   C36   A    
Cu3   O15   S    
C75   C81   A    
Cu3   O2    S    
Cu2   O12   S    
C46   N17   S    
C48   N2    S    
C2    O19   A    
H7    N17   S    
C3    C71   S    
C38   N1    S    
C72   C77   A    
C70   C83   A    
C61   C88   A    
H16   N4    S    
C28   C49   A    
C30   C47   A    
C23   O7    A    
H31   N11   S    
H26   N8    S    
C11   F10   S    
C1    C66   S    
C15   C61   A    
C11   C44   A    
Cu5   O20   S    
H14   N3    S    
C8    C41   A    
C53   C66   A    
H6    N16   S    
C55   C69   A    
Cu2   O16   S    
H32   N12   S    
C79   N6    S    
C41   N13   S    
H20   N6    S    
Cu4   O19   S    
C21   C28   A    
H15   N3    S    
C22   C88   A    
C63   C86   A    
C74   C78   S    
C78   O13   A    
C44   N16   S    
C62   C75   A    
C18   C32   A    
C7    C53   A    
H34   N13   S    
H36   N14   S    
C58   C85   A    
C16   C49   A    
C2    C76   S    
Cu5   O23   S    
C17   C63   A    
C50   N4    S    
C6    C39   A    
H10   N18   S    
C10   C43   A    
C4    O17   A    
C1    O3    A    
H1    N1    S    
C51   C64   A    
C76   C80   A    
C5    F1    S    
C16   F3    S    
C19   C85   A    
H17   N4    S    
H2    N14   S    
C17   C50   A    
C12   O6    A    
C23   O24   A    
H33   N12   S    
C14   C47   A    
C13   C59   A    
C20   C27   A    
C60   C90   A    
C61   C74   A    
C81   N8    S    
C14   C60   A    
C62   C87   A    
C45   C64   S    
C43   N15   S    
C24   C33   A    
H27   N9    S    
C8    C54   A    
C27   C36   A    
H23   N11   S    
H21   N6    S    
C18   C25   A    
Cu4   O8    S    
C45   O22   A    
H28   N9    S    
C13   C46   A    
C28   C37   A    
C67   O11   A    
C9    F8    S    
C51   C84   A    
C31   C39   A    
H29   N10   S    
H5    N16   S    
C9    C55   A    
C17   F4    S    
C24   C30   A    
Cu2   O6    S    
C75   C89   S    
C56   O23   A    
H9    N18   S    
Cu6   O10   S    
C39   N11   S    
H22   N7    S    
H24   N7    S    
H13   N2    S    
C40   N12   S    
C10   F9    S    
Cu6   O21   S    
C89   O14   A    
C6    C52   A    
Cu5   O9    S    
C25   C46   A    
C73   C83   A    
H19   N5    S    
C52   C65   A    
C67   O20   A    
Cu4   O14   S    
C5    C51   A    
