data_mof_unit_29173.cif
_audit_creation_date              2012-12-10T17:05:44-0500
_audit_creation_method            fapswitch 2.2
_symmetry_space_group_name_H-M    P1
_symmetry_Int_Tables_number       1
_space_group_crystal_system       triclinic
_cell_length_a                    15.842894
_cell_length_b                    11.055544
_cell_length_c                    9.868995
_cell_angle_alpha                 111.128372
_cell_angle_beta                  97.188312
_cell_angle_gamma                 91.090853
_cell_volume                      1595.84954613

loop_
_atom_site_label
_atom_site_type_symbol
_atom_type_description
_atom_site_fract_x
_atom_site_fract_y
_atom_site_fract_z
_atom_type_partial_charge
C1    C     C_R   0.493521 0.254620 0.441039 0.834043
C2    C     C_3   0.956959 0.425926 0.603000 0.195673
C3    C     C_3   0.916909 0.500975 0.504565 -0.036043
C4    C     C_3   0.953195 0.644970 0.576783 0.129957
C5    C     C_3   0.053461 0.652305 0.579353 0.647453
C6    C     C_1   0.824068 0.495935 0.496171 0.054702
C7    C     C_1   0.176215 0.504095 0.511494 0.161594
C8    C     C_1   0.251558 0.502293 0.508033 -0.093656
C9    C     C_2   0.486528 0.115921 0.408483 -0.333146
C10   C     C_2   0.486727 0.070367 0.516761 -0.288720
C11   C     C_2   0.503986 0.884965 0.589529 -0.435023
C12   C     C_R   0.340600 0.500425 0.502372 0.797375
C13   C     C_2   0.476758 0.930775 0.483812 0.488865
C14   C     C_2   0.514578 0.501858 0.080394 0.537217
C15   C     C_2   0.499125 0.481144 0.918163 -0.203205
C16   C     C_R   0.504308 0.745679 0.558780 0.896922
C17   C     C_R   0.659269 0.497761 0.497371 0.811036
C18   C     C_3   0.055617 0.421382 0.600866 0.171743
C19   C     C_3   0.036758 0.427157 0.352202 0.176348
C20   C     C_3   0.940281 0.443467 0.346402 -0.396191
C21   C     C_1   0.748325 0.494939 0.493228 -0.243654
C22   C     C_3   0.083921 0.505806 0.512409 -0.203246
Cu1   Cu    Cu3+1 0.514650 0.521810 0.644910 0.942932
Cu2   Cu    Cu3+1 0.485350 0.478190 0.355090 0.992467
H1    H     H_    0.947679 0.482185 0.718930 0.155767
H2    H     H_    0.495779 0.135832 0.631042 0.158910
H3    H     H_    0.527134 0.951543 0.700413 0.111618
H4    H     H_    0.479268 0.050712 0.294319 0.188747
H5    H     H_    0.455683 0.400499 0.845173 0.139970
H6    H     H_    0.571784 0.637043 0.933694 0.226961
H7    H     H_    0.066835 0.317621 0.540183 0.110666
H8    H     H_    0.414393 0.382595 0.067049 0.137811
H9    H     H_    0.041580 0.321944 0.331167 0.118342
H10   H     H_    0.904530 0.347615 0.284273 0.180197
H11   H     H_    0.921043 0.508520 0.286762 0.252465
H12   H     H_    0.938219 0.677478 0.691375 0.075599
N1    N     N_2   0.463320 0.445430 0.137380 -0.321333
N2    N     N_2   0.536720 0.554500 0.862620 -0.279240
O1    O     O_R   0.507820 0.332330 0.577400 -0.577897
O2    O     O_R   0.483070 0.295500 0.332660 -0.584160
O3    O     O_R   0.391820 0.518430 0.622420 -0.569063
O4    O     O_R   0.367070 0.481600 0.377680 -0.568017
O5    O     O_R   0.516930 0.704500 0.667340 -0.585019
O6    O     O_R   0.492180 0.667670 0.422600 -0.478043
O7    O     O_R   0.632930 0.518400 0.622320 -0.576470
O8    O     O_R   0.608180 0.481570 0.377580 -0.551226
O9    O     O_3   0.918886 0.296580 0.552214 -0.609064
C23   C     C_3   0.857994 0.283244 0.640864 0.040243
H13   H     H_    0.810892 0.201784 0.572442 0.158774
H14   H     H_    0.820839 0.370667 0.680337 0.142901
C24   C     C_3   0.900733 0.251242 0.770714 -0.316066
H15   H     H_    0.917922 0.148517 0.731544 0.215759
H16   H     H_    0.959896 0.314534 0.820609 0.273557
C25   C     C_3   0.842730 0.273702 0.888772 -0.881067
H17   H     H_    0.833648 0.378934 0.940243 0.261307
H18   H     H_    0.872386 0.239254 0.975145 0.275057
H19   H     H_    0.779376 0.221038 0.841078 0.241566
O10   O     O_3   0.099949 0.460724 0.746110 -0.517100
C26   C     C_3   0.169415 0.383829 0.757855 0.126532
H20   H     H_    0.214520 0.442257 0.856701 0.185565
H21   H     H_    0.205835 0.359065 0.663563 0.086024
C27   C     C_3   0.139866 0.258296 0.775393 -0.352550
H22   H     H_    0.100419 0.282521 0.864732 0.305862
H23   H     H_    0.100091 0.192919 0.673497 0.206123
C28   C     C_3   0.215638 0.186152 0.810585 -0.797499
H24   H     H_    0.255474 0.159431 0.720486 0.227776
H25   H     H_    0.192253 0.095882 0.822774 0.320273
H26   H     H_    0.255262 0.247773 0.914902 0.243148
O11   O     O_3   0.910812 0.719261 0.500170 -0.556445
C29   C     C_3   0.882667 0.836172 0.596350 0.156481
H27   H     H_    0.876773 0.904987 0.537387 0.179458
H28   H     H_    0.929584 0.883899 0.697063 0.180656
C30   C     C_3   0.795081 0.812812 0.637067 -0.416836
H29   H     H_    0.749835 0.761583 0.535841 0.231123
H30   H     H_    0.800462 0.751683 0.705270 0.217379
C31   C     C_3   0.758931 0.939935 0.723175 -0.926325
H31   H     H_    0.802597 0.992510 0.826191 0.269331
H32   H     H_    0.696072 0.919189 0.751819 0.263018
H33   H     H_    0.750002 0.001668 0.655893 0.255902
O12   O     O_3   0.446298 0.847347 0.341837 -0.559553
C32   C     C_3   0.356953 0.852431 0.316594 0.056101
H34   H     H_    0.341026 0.945222 0.302647 0.140917
H35   H     H_    0.326026 0.844169 0.408769 0.171840
C33   C     C_3   0.321134 0.738881 0.176711 -0.374569
H36   H     H_    0.357697 0.735604 0.086493 0.236283
H37   H     H_    0.327934 0.646364 0.196201 0.249880
C34   C     C_3   0.227384 0.751625 0.129796 -0.633863
H38   H     H_    0.220515 0.835787 0.094033 0.260579
H39   H     H_    0.190019 0.765718 0.221329 0.297797
H40   H     H_    0.201211 0.661679 0.037389 0.311913
O13   O     O_3   0.578948 0.591315 0.173853 -0.542559
C35   C     C_3   0.660679 0.560013 0.131033 0.030097
H41   H     H_    0.659716 0.498180 0.013390 0.125089
H42   H     H_    0.692445 0.504414 0.194190 0.172260
C36   C     C_3   0.715271 0.686400 0.166461 -0.353262
H43   H     H_    0.679682 0.752379 0.121521 0.218094
H44   H     H_    0.729375 0.736730 0.287221 0.230728
C37   C     C_3   0.798947 0.661375 0.102681 -0.827676
H45   H     H_    0.786314 0.617689 0.980976 0.237665
H46   H     H_    0.835594 0.594960 0.144819 0.273259
H47   H     H_    0.837892 0.754518 0.135196 0.271853
S1    S     S_3+6 0.081549 0.430134 0.193173 0.014481
O14   O     O_2   0.015495 0.460003 0.088693 -0.248686
O15   O     O_2   0.157480 0.525343 0.230461 -0.248974
O16   O     O_3   0.113205 0.280302 0.109212 -0.557034
H48   H     H_    0.165274 0.274136 0.172720 0.338639
S2    S     S_3+6 0.102713 0.737953 0.770144 0.009922
O17   O     O_2   0.195875 0.714777 0.787756 -0.276605
O18   O     O_2   0.095286 0.882015 0.814465 -0.289310
O19   O     O_3   0.055217 0.689864 0.887739 -0.524051
H49   H     H_    0.021775 0.762772 0.939895 0.354330
S3    S     S_3+6 0.084737 0.752995 0.479082 0.076107
O20   O     O_2   0.179341 0.753358 0.476457 -0.306323
O21   O     O_2   0.038509 0.705079 0.325098 -0.230317
O22   O     O_3   0.060856 0.907872 0.560335 -0.521743
H50   H     H_    0.079991 0.953894 0.498887 0.353799

loop_
_geom_bond_atom_site_label_1
_geom_bond_atom_site_label_2
_ccdc_geom_bond_type
C34   H38   S    
C4    H12   S    
Cu1   O7    S    
C2    C18   S    
Cu2   O4    S    
C30   H29   S    
C36   H43   S    
C33   C34   S    
C3    C6    S    
S3    O21   D    
C32   H34   S    
C36   C37   S    
C7    C8    T    
C12   O3    A    
C33   H37   S    
C19   S1    S    
O22   H50   S    
Cu1   O5    S    
H6    N2    S    
S1    O16   S    
O19   H49   S    
S3    O20   D    
C27   H23   S    
C1    O2    A    
C20   H11   S    
C18   O10   S    
C23   C24   S    
C5    C22   S    
C19   C20   S    
C28   H25   S    
C12   O4    A    
S2    O17   D    
C31   H33   S    
C29   H27   S    
C9    C10   D    
C16   O6    A    
C20   H10   S    
C10   H2    S    
C23   H14   S    
C13   O12   S    
C26   H20   S    
C30   H30   S    
S1    O14   D    
C4    O11   S    
C32   H35   S    
C15   H5    S    
C25   H18   S    
C26   H21   S    
C24   H15   S    
C19   C22   S    
C1    C9    S    
C31   H31   S    
C19   H9    S    
O13   C35   S    
O12   C32   S    
O10   C26   S    
C6    C21   T    
C35   C36   S    
C17   C21   S    
C17   O7    A    
C24   H16   S    
C15   N2    D    
C27   H22   S    
C11   C16   S    
O9    C23   S    
C11   H3    S    
C8    C12   S    
C28   H26   S    
C29   C30   S    
C35   H42   S    
Cu2   N1    S    
C3    C20   S    
H8    N1    S    
C33   H36   S    
S1    O15   D    
C16   O5    A    
C23   H13   S    
C37   H45   S    
C37   H46   S    
C34   H39   S    
Cu2   O6    S    
S2    O19   S    
C3    C4    S    
C7    C22   S    
C32   C33   S    
C5    S2    S    
C25   H17   S    
C26   C27   S    
C27   C28   S    
C18   C22   S    
C31   H32   S    
C4    C5    S    
C10   C13   S    
C17   O8    A    
C36   H44   S    
C5    S3    S    
C2    O9    S    
C37   H47   S    
O16   H48   S    
Cu1   O3    S    
Cu1   N2    S    
C24   C25   S    
Cu2   O8    S    
C2    C3    S    
C14   N1    D    
C11   C13   D    
S2    O18   D    
Cu1   O1    S    
C35   H41   S    
Cu2   O2    S    
C2    H1    S    
O11   C29   S    
C14   O13   S    
C1    O1    A    
Cu1   Cu2   S    
C30   C31   S    
C28   H24   S    
C34   H40   S    
C14   C15   S    
C29   H28   S    
C18   H7    S    
S3    O22   S    
C9    H4    S    
C25   H19   S    
