data_mof_unit_37908.cif
_audit_creation_date              2012-10-26T20:04:57-0400
_audit_creation_method            fapswitch 2.2
_symmetry_space_group_name_H-M    P1
_symmetry_Int_Tables_number       1
_space_group_crystal_system       triclinic
_cell_length_a                    15.8493
_cell_length_b                    15.02303
_cell_length_c                    13.774917
_cell_angle_alpha                 90.703
_cell_angle_beta                  88.973733
_cell_angle_gamma                 88.725711
_cell_volume                      3278.26943274

loop_
_atom_site_label
_atom_site_type_symbol
_atom_type_description
_atom_site_fract_x
_atom_site_fract_y
_atom_site_fract_z
_atom_type_partial_charge
C1    C     C_R   0.500798 0.329009 0.499642 0.536357
C2    C     C_R   0.503936 0.046887 0.496115 -0.041974
C3    C     C_R   0.439470 0.906941 0.450001 0.017526
C4    C     C_R   0.567678 0.093520 0.544516 0.020435
C5    C     C_R   0.633029 0.953393 0.590861 -0.108388
C6    C     C_R   0.377886 0.046871 0.397651 -0.106544
C7    C     C_R   0.633694 0.046520 0.589581 0.255856
C8    C     C_R   0.374538 0.954058 0.402920 0.264976
C9    C     C_R   0.568003 0.465905 0.791609 -0.009764
C10   C     C_R   0.433009 0.536153 0.208396 0.017829
C11   C     C_R   0.433010 0.538263 0.795861 0.402977
C12   C     C_R   0.501241 0.671098 0.500650 0.569359
C13   C     C_R   0.566098 0.459382 0.204785 0.417234
C14   C     C_R   0.429911 0.534011 0.899180 -0.050176
C15   C     C_R   0.570685 0.466530 0.101276 -0.060699
C16   C     C_R   0.339718 0.500426 0.500652 0.534705
C17   C     C_R   0.660127 0.499396 0.499190 0.555133
C18   C     C_R   0.500101 0.499887 0.948417 -0.043212
C19   C     C_R   0.500013 0.499624 0.051868 -0.041087
C20   C     C_R   0.570768 0.467105 0.894312 -0.019524
C21   C     C_R   0.429758 0.533594 0.105860 -0.004718
C22   C     C_R   0.358667 0.564137 0.954066 -0.122541
C23   C     C_R   0.502438 0.767664 0.502240 -0.016570
C24   C     C_R   0.643746 0.442561 0.046213 -0.119640
C25   C     C_R   0.357889 0.564030 0.056402 0.243563
C26   C     C_R   0.643093 0.438231 0.944274 0.250778
C27   C     C_3   0.973431 0.411657 0.485807 0.293994
C28   C     C_3   0.025611 0.575899 0.505400 0.303321
C29   C     C_3   0.030576 0.458141 0.411091 -0.140041
C30   C     C_3   0.968986 0.529517 0.580384 -0.126428
C31   C     C_1   0.249896 0.498268 0.501426 -0.031915
C32   C     C_1   0.749742 0.497684 0.497052 -0.006365
C33   C     C_3   0.026312 0.444221 0.571758 -0.140519
C34   C     C_R   0.499797 0.232654 0.499486 -0.032662
C35   C     C_3   0.972738 0.542793 0.419744 -0.135965
C36   C     C_3   0.082698 0.492623 0.497262 0.022496
C37   C     C_3   0.916866 0.495064 0.494661 0.031060
C38   C     C_1   0.174371 0.495430 0.499903 -0.035805
C39   C     C_1   0.825274 0.496187 0.495391 -0.018949
C40   C     C_R   0.440600 0.814105 0.451392 -0.169100
C41   C     C_R   0.564826 0.186480 0.545498 -0.171809
C42   C     C_3   0.219557 0.543518 0.097900 0.002567
C43   C     C_3   0.148317 0.575757 0.166800 -0.251620
C44   C     C_3   0.068460 0.522861 0.151365 -0.488005
C45   C     C_R   0.564556 0.812950 0.553768 0.238349
C46   C     C_3   0.716531 0.321586 0.871904 0.006391
C47   C     C_3   0.748314 0.266280 0.957357 -0.271999
C48   C     C_3   0.769593 0.170554 0.926159 -0.474253
C49   C     C_3   0.001498 0.260480 0.468299 0.004253
C50   C     C_3   0.968872 0.179933 0.412765 -0.251324
C51   C     C_3   0.036199 0.106000 0.403170 -0.503680
C52   C     C_3   0.997325 0.728060 0.497189 0.007155
C53   C     C_3   0.014706 0.766198 0.396258 -0.263826
C54   C     C_3   0.948443 0.836684 0.370178 -0.491479
C55   C     C_3   0.604653 0.763619 0.702507 0.012428
C56   C     C_R   0.435112 0.187080 0.452876 0.249908
C57   C     C_3   0.661689 0.695648 0.752528 -0.244658
C58   C     C_3   0.640644 0.690681 0.860858 -0.477643
C59   C     C_3   0.311038 0.265614 0.484121 0.020264
C60   C     C_3   0.251526 0.193446 0.520205 -0.291905
C61   C     C_3   0.193666 0.229419 0.601877 -0.488464
C62   C     C_3   0.775058 0.079934 0.596096 -0.003020
C63   C     C_3   0.834747 0.033624 0.666726 -0.258429
C64   C     C_3   0.925808 0.032156 0.628863 -0.495762
C65   C     C_3   0.230864 0.931923 0.404096 0.002731
C66   C     C_3   0.218800 0.884782 0.501545 -0.268994
C67   C     C_R   0.567752 0.906299 0.547573 -0.020884
C68   C     C_3   0.140525 0.921148 0.556195 -0.487966
C69   C     C_3   0.364696 0.669499 0.756000 -0.003710
C70   C     C_3   0.274301 0.705413 0.745920 -0.258859
C71   C     C_3   0.269178 0.805747 0.764533 -0.486462
C72   C     C_3   0.644519 0.326378 0.222557 -0.004257
C73   C     C_3   0.639664 0.261460 0.306957 -0.234002
C74   C     C_3   0.686064 0.173475 0.283430 -0.491200
C75   C     C_R   0.439295 0.093834 0.447595 -0.016277
C76   C     C_R   0.504049 0.953325 0.497340 -0.040676
Cu1   Cu    Cu3+1 0.500010 0.499990 0.597420 0.973395
Cu2   Cu    Cu3+1 0.499990 0.500010 0.402580 1.018552
H1    H     H_    0.392586 0.777133 0.414156 0.170591
H2    H     H_    0.133981 0.647373 0.153892 0.179172
H3    H     H_    0.046086 0.531071 0.075972 0.151732
H4    H     H_    0.017955 0.547592 0.202224 0.145773
H5    H     H_    0.080859 0.451060 0.164860 0.144340
H6    H     H_    0.760127 0.310195 0.808672 0.166424
H7    H     H_    0.653492 0.298282 0.848804 0.124185
H8    H     H_    0.805639 0.296750 0.987578 0.174898
H9    H     H_    0.698753 0.265304 0.015272 0.135033
H10   H     H_    0.714213 0.139514 0.892183 0.170072
H11   H     H_    0.787657 0.131221 0.990582 0.139706
H12   H     H_    0.613753 0.223715 0.580769 0.159186
H13   H     H_    0.823580 0.169276 0.873682 0.144965
H14   H     H_    0.016535 0.240447 0.543498 0.133035
H15   H     H_    0.060279 0.282397 0.430741 0.124930
H16   H     H_    0.912511 0.154050 0.451193 0.158140
H17   H     H_    0.949699 0.200568 0.338987 0.170703
H18   H     H_    0.090034 0.128309 0.357599 0.144308
H19   H     H_    0.009007 0.046445 0.368195 0.141850
H20   H     H_    0.059461 0.087365 0.475797 0.143254
H21   H     H_    0.002641 0.782339 0.552019 0.145257
H22   H     H_    0.930982 0.704939 0.503359 0.124023
H23   H     H_    0.057315 0.427454 0.343326 0.102266
H24   H     H_    0.078000 0.796119 0.394507 0.167910
H25   H     H_    0.015251 0.712479 0.340322 0.159721
H26   H     H_    0.885023 0.806822 0.367491 0.158767
H27   H     H_    0.963966 0.864311 0.297798 0.144208
H28   H     H_    0.947102 0.891831 0.424493 0.134201
H29   H     H_    0.946743 0.581510 0.358741 0.096644
H30   H     H_    0.048900 0.403002 0.632761 0.101445
H31   H     H_    0.537986 0.744708 0.715010 0.128593
H32   H     H_    0.613581 0.830103 0.736622 0.119787
H33   H     H_    0.653651 0.628967 0.718697 0.205487
H34   H     H_    0.942510 0.560442 0.648247 0.112131
H35   H     H_    0.728703 0.714469 0.742668 0.160552
H36   H     H_    0.651269 0.755914 0.896889 0.144726
H37   H     H_    0.681847 0.639452 0.894655 0.173399
H38   H     H_    0.573773 0.672209 0.872349 0.147775
H39   H     H_    0.271883 0.318940 0.451149 0.151305
H40   H     H_    0.343111 0.296744 0.546768 0.140779
H41   H     H_    0.212759 0.170083 0.459021 0.150256
H42   H     H_    0.288190 0.135902 0.548558 0.162198
H43   H     H_    0.231259 0.246499 0.666516 0.159667
H44   H     H_    0.147634 0.178008 0.622571 0.134886
H45   H     H_    0.303279 0.589227 0.918033 0.138580
H46   H     H_    0.158930 0.290013 0.578116 0.137221
H47   H     H_    0.683372 0.918328 0.627194 0.144125
H48   H     H_    0.330691 0.082307 0.356307 0.157494
H49   H     H_    0.799399 0.147076 0.580084 0.159554
H50   H     H_    0.775493 0.042231 0.525584 0.112726
H51   H     H_    0.831725 0.069057 0.737883 0.173016
H52   H     H_    0.814865 0.964111 0.678196 0.151293
H53   H     H_    0.930317 0.999078 0.556456 0.142290
H54   H     H_    0.966565 0.994702 0.679647 0.143773
H55   H     H_    0.949182 0.101072 0.623420 0.148815
H56   H     H_    0.702522 0.427439 0.081442 0.137255
H57   H     H_    0.180474 0.910374 0.354629 0.150468
H58   H     H_    0.220983 0.005039 0.413504 0.111950
H59   H     H_    0.212750 0.812088 0.488341 0.181231
H60   H     H_    0.274351 0.894917 0.548013 0.157977
H61   H     H_    0.151180 0.990290 0.581933 0.142000
H62   H     H_    0.126976 0.879119 0.619951 0.151792
H63   H     H_    0.084767 0.921233 0.508727 0.142894
H64   H     H_    0.620912 0.438721 0.749572 0.163065
H65   H     H_    0.381031 0.565519 0.250414 0.176998
H66   H     H_    0.402822 0.697841 0.696620 0.155944
H67   H     H_    0.236805 0.473366 0.116256 0.131303
H68   H     H_    0.390305 0.694159 0.826028 0.101694
H69   H     H_    0.251952 0.690636 0.671487 0.185876
H70   H     H_    0.231892 0.672256 0.798628 0.166995
H71   H     H_    0.290300 0.821725 0.839073 0.156466
H72   H     H_    0.202916 0.829837 0.757868 0.148787
H73   H     H_    0.309438 0.840778 0.711128 0.139254
H74   H     H_    0.709765 0.322415 0.191846 0.132015
H75   H     H_    0.600224 0.303420 0.165834 0.103261
H76   H     H_    0.667178 0.291523 0.373083 0.188219
H77   H     H_    0.572474 0.246841 0.321323 0.182590
H78   H     H_    0.196140 0.545831 0.022262 0.130391
H79   H     H_    0.660071 0.142363 0.217116 0.149546
H80   H     H_    0.677985 0.127185 0.345016 0.151393
H81   H     H_    0.754572 0.184569 0.271966 0.147064
H82   H     H_    0.168588 0.568423 0.243222 0.174659
N1    N     N_R   0.499960 0.499930 0.743810 -0.240841
N2    N     N_R   0.500040 0.500070 0.256190 -0.234983
O1    O     O_R   0.500020 0.370250 0.582280 -0.519211
O2    O     O_3   0.716713 0.413812 0.894381 -0.589250
O3    O     O_3   0.937636 0.327352 0.472404 -0.565508
O4    O     O_3   0.058827 0.661660 0.517956 -0.569843
O5    O     O_3   0.626041 0.764855 0.602337 -0.574595
O6    O     O_3   0.368270 0.232930 0.411023 -0.576365
O7    O     O_3   0.694203 0.092080 0.640513 -0.590417
O8    O     O_3   0.309722 0.908349 0.359357 -0.571565
O9    O     O_3   0.365420 0.575351 0.747007 -0.539415
O10   O     O_3   0.628716 0.415178 0.256385 -0.533330
O11   O     O_R   0.499980 0.629750 0.417720 -0.504806
O12   O     O_R   0.500010 0.370270 0.417740 -0.460112
O13   O     O_R   0.499990 0.629730 0.582260 -0.495150
O14   O     O_R   0.379080 0.499980 0.582260 -0.438558
O15   O     O_R   0.620920 0.500020 0.417740 -0.435582
O16   O     O_R   0.379070 0.500000 0.417710 -0.519492
O17   O     O_R   0.620930 0.500000 0.582290 -0.529486
O18   O     O_3   0.289259 0.599596 0.108483 -0.579581

loop_
_geom_bond_atom_site_label_1
_geom_bond_atom_site_label_2
_ccdc_geom_bond_type
Cu1   O1    S    
C66   C68   S    
C34   C56   A    
C23   C45   A    
C27   C29   S    
Cu2   O15   S    
C73   C74   S    
C14   C18   A    
C42   H78   S    
C55   O5    S    
C5    C67   A    
C44   H5    S    
C25   O18   S    
C51   H19   S    
C57   H33   S    
C53   C54   S    
C27   C33   S    
C69   H66   S    
C15   C19   A    
C34   C41   A    
C29   C36   S    
Cu1   O17   S    
C74   H81   S    
C60   C61   S    
C61   H46   S    
C72   O10   S    
C54   H26   S    
C35   C37   S    
C24   C26   A    
C44   H4    S    
C62   H49   S    
C11   C14   A    
C50   H17   S    
C63   H52   S    
C71   H72   S    
C4    C41   A    
Cu1   O13   S    
C17   O15   A    
C23   C40   A    
C11   N1    A    
C33   C36   S    
C60   H41   S    
C61   H43   S    
C18   C19   A    
C69   O9    S    
C32   C39   T    
C49   C50   S    
C52   O4    S    
C46   C47   S    
C13   O10   S    
C71   H73   S    
C64   H54   S    
C28   C35   S    
C42   O18   S    
C72   H74   S    
C22   C25   A    
C73   H76   S    
C45   C67   A    
Cu2   O11   S    
C48   H10   S    
C70   C71   S    
C54   H27   S    
C28   O4    S    
C51   H18   S    
C46   H7    S    
C17   O17   A    
C51   H20   S    
C41   H12   S    
C59   C60   S    
C59   H39   S    
C56   C75   A    
C46   O2    S    
C55   H31   S    
C58   H38   S    
C69   H68   S    
C73   H77   S    
C33   H30   S    
C4    C7    A    
C16   O16   A    
C1    C34   S    
C10   C21   A    
Cu1   N1    S    
C1    O12   A    
C74   H80   S    
C8    O8    S    
C47   H8    S    
C13   N2    A    
C6    H48   S    
C3    C8    A    
C12   C23   S    
C5    C7    A    
C54   H28   S    
C50   H16   S    
C6    C8    A    
C43   H2    S    
Cu1   Cu2   S    
C52   H22   S    
C30   C37   S    
C30   H34   S    
C61   H44   S    
C16   C31   S    
C47   H9    S    
C74   H79   S    
C2    C4    A    
C43   C44   S    
C7    O7    S    
C49   O3    S    
C62   C63   S    
C48   H13   S    
C9    C20   A    
C47   C48   S    
C66   H60   S    
C64   H53   S    
C53   H24   S    
C56   O6    S    
C50   C51   S    
C40   H1    S    
C29   H23   S    
C68   H63   S    
C9    N1    A    
C3    C76   A    
C45   O5    S    
C1    O1    A    
C65   H57   S    
C27   O3    S    
C12   O13   A    
C46   H6    S    
C15   C24   A    
C3    C40   A    
C43   H82   S    
Cu1   O14   S    
C48   H11   S    
C55   C57   S    
C55   H32   S    
C58   H37   S    
C68   H62   S    
C70   H70   S    
C42   C43   S    
C49   H14   S    
C36   C38   S    
C11   O9    S    
C2    C76   A    
C52   C53   S    
C22   H45   S    
C24   H56   S    
C62   O7    S    
C21   C25   A    
C64   H55   S    
C72   H75   S    
C30   C33   S    
C19   C21   A    
Cu2   O16   S    
C72   C73   S    
C57   H35   S    
C9    H64   S    
Cu2   N2    S    
C70   H69   S    
C59   H40   S    
C29   C35   S    
C52   H21   S    
C31   C38   T    
C44   H3    S    
C14   C22   A    
C13   C15   A    
C28   C30   S    
C37   C39   S    
C62   H50   S    
C16   O14   A    
C57   C58   S    
C71   H71   S    
C66   H59   S    
C20   C26   A    
C27   C37   S    
C26   O2    S    
C60   H42   S    
C18   C20   A    
C10   H65   S    
C63   H51   S    
C69   C70   S    
C65   H58   S    
C35   H29   S    
C59   O6    S    
C58   H36   S    
C63   C64   S    
C28   C36   S    
C10   N2    A    
C65   C66   S    
C65   O8    S    
C5    H47   S    
Cu2   O12   S    
C17   C32   S    
C53   H25   S    
C68   H61   S    
C67   C76   A    
C49   H15   S    
C42   H67   S    
C2    C75   A    
C12   O11   A    
C6    C75   A    
