data_mof_unit_62531.cif
_audit_creation_date              2012-12-10T21:15:59-0500
_audit_creation_method            fapswitch 2.2
_symmetry_space_group_name_H-M    P1
_symmetry_Int_Tables_number       1
_space_group_crystal_system       triclinic
_cell_length_a                    13.657244
_cell_length_b                    16.751072
_cell_length_c                    17.605306
_cell_angle_alpha                 90.079836
_cell_angle_beta                  90.207602
_cell_angle_gamma                 83.136293
_cell_volume                      3998.73392606

loop_
_atom_site_label
_atom_site_type_symbol
_atom_type_description
_atom_site_fract_x
_atom_site_fract_y
_atom_site_fract_z
_atom_type_partial_charge
C1    C     C_R   0.500142 0.499998 0.646772 0.871632
C2    C     C_R   0.440039 0.837977 0.449217 -0.251256
C3    C     C_R   0.558774 0.246360 0.549758 -0.106517
C4    C     C_R   0.441226 0.753640 0.450242 -0.106518
C5    C     C_R   0.441269 0.257342 0.450234 0.775451
C6    C     C_R   0.558732 0.742658 0.549766 0.775451
C7    C     C_R   0.440410 0.173242 0.449499 -0.330857
C8    C     C_R   0.559590 0.826758 0.550501 -0.330856
C9    C     C_R   0.500219 0.124379 0.500174 0.066711
C10   C     C_R   0.499781 0.875621 0.499826 0.066711
C11   C     C_1   0.500124 0.036554 0.500102 0.005829
C12   C     C_R   0.499858 0.500002 0.353227 0.871633
C13   C     C_1   0.499875 0.963446 0.499898 0.005829
C14   C     C_R   0.686066 0.485785 0.500033 0.918649
C15   C     C_R   0.313934 0.514215 0.499967 0.918648
C16   C     C_1   0.210477 0.525090 0.499945 -0.150694
C17   C     C_1   0.789523 0.474910 0.500054 -0.150694
C18   C     C_2   0.019298 0.534598 0.499959 0.480770
C19   C     C_2   0.980702 0.465402 0.500041 0.480770
C20   C     C_1   0.877066 0.467762 0.500059 0.026018
C21   C     C_1   0.122934 0.532238 0.499941 0.026018
C22   C     C_R   0.499279 0.427465 0.152247 -0.159894
C23   C     C_R   0.499703 0.572506 0.152433 -0.152983
C24   C     C_R   0.500721 0.572535 0.847753 -0.159894
C25   C     C_R   0.499294 0.427344 0.230964 -0.162334
C26   C     C_R   0.500706 0.572656 0.769036 -0.162334
C27   C     C_R   0.499612 0.499979 0.270763 -0.042557
C28   C     C_R   0.500388 0.500021 0.729237 -0.042558
C29   C     C_R   0.499714 0.572627 0.231139 -0.194417
C30   C     C_R   0.500286 0.427372 0.768861 -0.194417
C31   C     C_R   0.500297 0.427494 0.847567 -0.152983
C32   C     C_R   0.499551 0.499982 0.113600 0.157632
C33   C     C_R   0.500449 0.500017 0.886400 0.157632
C34   C     C_1   0.499852 0.499985 0.033689 -0.054318
C35   C     C_1   0.500148 0.500015 0.966311 -0.054318
C36   C     C_R   0.559960 0.162023 0.550783 -0.251256
F1    F     F_    0.038132 0.393121 0.500094 -0.652839
F2    F     F_    0.961868 0.606879 0.499906 -0.652839
F3    F     F_    0.382902 0.303433 0.400887 -0.649687
F4    F     F_    0.617098 0.696567 0.599112 -0.649687
H1    H     H_    0.499133 0.371315 0.121593 0.143047
H2    H     H_    0.392770 0.873444 0.409173 0.165159
H3    H     H_    0.605098 0.274732 0.588962 0.160393
H4    H     H_    0.394901 0.725268 0.411039 0.160394
H5    H     H_    0.393258 0.146565 0.409565 0.177289
H6    H     H_    0.606742 0.853435 0.590435 0.177289
H7    H     H_    0.500866 0.628684 0.878407 0.143047
H8    H     H_    0.499118 0.370666 0.260479 0.186843
H9    H     H_    0.500882 0.629334 0.739521 0.186843
H10   H     H_    0.499873 0.629321 0.260783 0.162047
H11   H     H_    0.500127 0.370679 0.739217 0.162047
H12   H     H_    0.499886 0.628653 0.121930 0.140151
H13   H     H_    0.500114 0.371347 0.878070 0.140151
H14   H     H_    0.607229 0.126556 0.590828 0.165159
N1    N     N_R   0.499970 0.292770 0.499970 -0.141149
N2    N     N_R   0.500030 0.707230 0.500030 -0.141149
O1    O     O_R   0.500000 0.433430 0.610870 -0.638618
O2    O     O_R   0.500000 0.566570 0.389130 -0.638619
O3    O     O_R   0.500010 0.566520 0.610900 -0.579129
O4    O     O_R   0.499990 0.433480 0.389100 -0.579130
O5    O     O_R   0.640340 0.423880 0.499970 -0.629281
O6    O     O_R   0.359660 0.576120 0.500030 -0.629281
O7    O     O_R   0.640350 0.556960 0.500000 -0.551564
O8    O     O_R   0.359650 0.443040 0.500000 -0.551564
Zn1   Zn    Zn3+2 0.500000 0.411140 0.499980 1.010473
Zn2   Zn    Zn3+2 0.500000 0.588860 0.500020 1.010473

loop_
_geom_bond_atom_site_label_1
_geom_bond_atom_site_label_2
_ccdc_geom_bond_type
C1    C28   S    
C2    C4    A    
C30   H11   S    
C31   C33   A    
C16   C21   T    
C1    O1    A    
C27   C29   A    
C18   C21   S    
C9    C11   S    
C19   F1    S    
C26   C28   A    
C24   C33   A    
C25   H8    S    
C15   O8    A    
C12   O2    A    
C23   C32   A    
C28   C30   A    
C18   F2    S    
O7    Zn2   S    
C5    C7    A    
C10   C13   S    
C4    N2    A    
C11   C13   T    
C14   C17   S    
C3    H3    S    
C23   H12   S    
C22   C32   A    
C3    C36   A    
C2    H2    S    
N2    Zn2   S    
C14   O7    A    
C7    H5    S    
O8    Zn1   S    
N1    Zn1   S    
C15   O6    A    
C24   C26   A    
O4    Zn1   S    
C18   C19   D    
C6    F4    S    
C29   H10   S    
C1    O3    A    
O3    Zn2   S    
C5    N1    A    
C30   C31   A    
C23   C29   A    
C8    H6    S    
C22   H1    S    
C25   C27   A    
O6    Zn2   S    
C12   C27   S    
C15   C16   S    
C12   O4    A    
C9    C36   A    
O5    Zn1   S    
C14   O5    A    
C17   C20   T    
C36   H14   S    
C8    C10   A    
C34   C35   T    
C26   H9    S    
O1    Zn1   S    
C7    C9    A    
C5    F3    S    
C6    C8    A    
C4    H4    S    
C33   C35   S    
C32   C34   S    
C24   H7    S    
C3    N1    A    
O2    Zn2   S    
C31   H13   S    
C19   C20   S    
C6    N2    A    
C22   C25   A    
C2    C10   A    
