data_mof_unit_8948.cif
_audit_creation_date              2012-12-10T21:09:13-0500
_audit_creation_method            fapswitch 2.2
_symmetry_space_group_name_H-M    P1
_symmetry_Int_Tables_number       1
_space_group_crystal_system       triclinic
_cell_length_a                    10.845126
_cell_length_b                    17.546727
_cell_length_c                    16.794626
_cell_angle_alpha                 89.453121
_cell_angle_beta                  103.775971
_cell_angle_gamma                 91.273721
_cell_volume                      3103.22705686

loop_
_atom_site_label
_atom_site_type_symbol
_atom_type_description
_atom_site_fract_x
_atom_site_fract_y
_atom_site_fract_z
_atom_type_partial_charge
C1    C     C_R   0.503444 0.353222 0.500835 0.903520
C2    C     C_R   0.495695 0.646502 0.499140 0.946338
C3    C     C_R   0.521005 0.885679 0.513334 -0.034397
C4    C     C_R   0.542532 0.113839 0.513695 -0.049876
C5    C     C_1   0.529993 0.965955 0.514172 0.009476
C6    C     C_1   0.536837 0.033534 0.514325 0.005881
C7    C     C_R   0.440011 0.439902 0.823761 -0.041695
C8    C     C_R   0.567996 0.555418 0.176602 -0.040167
C9    C     C_R   0.437150 0.442755 0.738549 0.559179
C10   C     C_R   0.568959 0.554467 0.261768 0.549189
C11   C     C_R   0.561845 0.556712 0.757191 -0.256473
C12   C     C_R   0.434200 0.444367 0.243017 -0.237850
C13   C     C_R   0.559702 0.559414 0.841518 0.398113
C14   C     C_R   0.430722 0.442755 0.157860 0.393017
C15   C     C_R   0.498788 0.499896 0.875456 -0.078228
C16   C     C_R   0.499216 0.498545 0.124307 -0.072777
C17   C     C_1   0.498363 0.499514 0.963314 0.036633
C18   C     C_1   0.497377 0.498486 0.036110 0.074839
C19   C     C_R   0.258913 0.500616 0.465962 0.957756
C20   C     C_R   0.740942 0.498601 0.534107 0.919257
C21   C     C_2   0.122880 0.495515 0.446201 -0.387130
C22   C     C_2   0.876943 0.501069 0.554398 -0.387686
C23   C     C_2   0.065615 0.506815 0.506295 -0.139202
C24   C     C_2   0.934503 0.486947 0.495148 -0.178792
C25   C     C_R   0.443181 0.846814 0.557258 0.400515
C26   C     C_R   0.579974 0.153467 0.449925 0.419573
C27   C     C_R   0.426639 0.767413 0.548041 0.367369
C28   C     C_R   0.568042 0.232660 0.445063 0.377558
C29   C     C_R   0.495511 0.728943 0.499893 -0.195661
C30   C     C_R   0.519191 0.270967 0.504365 -0.233268
C31   C     C_R   0.571375 0.768931 0.456663 -0.267980
C32   C     C_R   0.489158 0.230348 0.569709 -0.262550
C33   C     C_R   0.584075 0.847172 0.463296 -0.227390
C34   C     C_R   0.500280 0.152049 0.574080 -0.238840
H1    H     H_    0.882985 0.464296 0.436397 0.178942
H2    H     H_    0.116668 0.529575 0.565165 0.178875
H3    H     H_    0.928795 0.520492 0.614647 0.151227
H4    H     H_    0.071127 0.476715 0.385690 0.139912
H5    H     H_    0.621071 0.739502 0.418031 0.218067
H6    H     H_    0.453806 0.258826 0.616427 0.228168
H7    H     H_    0.642442 0.877795 0.428915 0.170398
H8    H     H_    0.472119 0.120969 0.623232 0.171210
H9    H     H_    0.614126 0.599607 0.731420 0.162419
H10   H     H_    0.385006 0.400635 0.269922 0.183494
N1    N     N_R   0.500030 0.500030 0.707240 -0.154960
N2    N     N_R   0.499970 0.499970 0.292760 -0.157541
O1    O     O_R   0.500000 0.389130 0.566570 -0.568355
O2    O     O_R   0.500000 0.610870 0.433430 -0.564014
O3    O     O_R   0.499990 0.389100 0.433480 -0.584517
O4    O     O_R   0.500010 0.610900 0.566520 -0.622129
O5    O     O_R   0.317810 0.500010 0.541690 -0.609982
O6    O     O_R   0.682190 0.499990 0.458310 -0.604356
O7    O     O_R   0.317800 0.499990 0.408610 -0.624546
O8    O     O_R   0.682200 0.500010 0.591390 -0.617451
Zn1   Zn    Zn3+2 0.500010 0.500020 0.588860 0.965170
Zn2   Zn    Zn3+2 0.499990 0.499980 0.411140 0.982221
O9    O     O_3   0.627495 0.614766 0.893615 -0.604663
C35   C     C_3   0.592051 0.688589 0.863747 0.088758
H11   H     H_    0.487027 0.693223 0.842495 0.126759
H12   H     H_    0.637742 0.704237 0.813095 0.128518
C36   C     C_3   0.637574 0.745821 0.932435 -0.820740
H13   H     H_    0.742230 0.742994 0.955568 0.260121
H14   H     H_    0.612611 0.804333 0.909241 0.201500
H15   H     H_    0.591511 0.733164 0.983573 0.252271
O10   O     O_3   0.368009 0.384833 0.107287 -0.592265
C37   C     C_3   0.240424 0.377105 0.113060 0.104415
H16   H     H_    0.196394 0.433431 0.116946 0.126264
H17   H     H_    0.234699 0.341742 0.167380 0.150630
C38   C     C_3   0.163650 0.336781 0.036911 -0.817719
H18   H     H_    0.204088 0.280074 0.031069 0.263758
H19   H     H_    0.063635 0.328842 0.041363 0.207471
H20   H     H_    0.165399 0.371411 0.981475 0.242850
O11   O     O_3   0.372571 0.886462 0.601232 -0.587878
C39   C     C_3   0.452457 0.909374 0.677118 0.062119
H21   H     H_    0.523743 0.953127 0.668428 0.148447
H22   H     H_    0.503667 0.860162 0.711225 0.095768
C40   C     C_3   0.372209 0.944354 0.729671 -0.818333
H23   H     H_    0.300400 0.902100 0.740864 0.248750
H24   H     H_    0.433897 0.962292 0.789516 0.204326
H25   H     H_    0.322909 0.995032 0.698174 0.259226
O12   O     O_3   0.616636 0.115725 0.387423 -0.574273
C41   C     C_3   0.738953 0.085262 0.416870 0.090903
H26   H     H_    0.730770 0.026799 0.441192 0.150141
H27   H     H_    0.801375 0.120505 0.465987 0.097415
C42   C     C_3   0.803620 0.080061 0.346132 -0.788487
H28   H     H_    0.813783 0.137702 0.320247 0.254426
H29   H     H_    0.899350 0.055581 0.368196 0.206863
H30   H     H_    0.746427 0.042872 0.297274 0.260902
O13   O     O_3   0.328523 0.728853 0.572389 -0.586535
C43   C     C_3   0.356242 0.720428 0.658438 0.164957
H31   H     H_    0.328790 0.772170 0.686736 0.175776
H32   H     H_    0.458372 0.708758 0.685109 0.089539
C44   C     C_3   0.276904 0.654235 0.679967 -0.862038
H33   H     H_    0.302427 0.600594 0.654197 0.273180
H34   H     H_    0.294324 0.647919 0.747513 0.187225
H35   H     H_    0.174344 0.664518 0.654458 0.256624
O14   O     O_3   0.596411 0.271206 0.379155 -0.559202
C45   C     C_3   0.724646 0.296342 0.400983 0.150749
H36   H     H_    0.789578 0.247513 0.416922 0.123821
H37   H     H_    0.742167 0.336123 0.453951 0.112624
C46   C     C_3   0.756587 0.338088 0.328436 -0.801565
H38   H     H_    0.699690 0.390431 0.314335 0.249772
H39   H     H_    0.858998 0.354365 0.343121 0.180257
H40   H     H_    0.735686 0.300594 0.273749 0.265589
N3    N     N_2   0.386388 0.375510 0.856671 -0.310142
H41   H     H_    0.346935 0.386970 0.905254 0.248377
C47   C     C_3   0.466498 0.309598 0.870959 -0.704235
H42   H     H_    0.414917 0.261251 0.892500 0.230171
H43   H     H_    0.554667 0.322473 0.918624 0.237748
H44   H     H_    0.491578 0.292178 0.813465 0.255557
N4    N     N_2   0.628418 0.616916 0.143626 -0.287314
H45   H     H_    0.566490 0.648313 0.100149 0.242420
C48   C     C_3   0.742865 0.598221 0.118152 -0.773596
H46   H     H_    0.801464 0.650869 0.118042 0.241239
H47   H     H_    0.719497 0.574662 0.055250 0.282636
H48   H     H_    0.799997 0.556178 0.160600 0.218757
O15   O     O_3   0.380498 0.384035 0.687404 -0.592490
C49   C     C_3   0.247081 0.386058 0.675205 0.126899
H49   H     H_    0.211197 0.444868 0.662685 0.118704
H50   H     H_    0.216557 0.363352 0.729498 0.157829
C50   C     C_3   0.185600 0.335672 0.602703 -0.816066
H51   H     H_    0.212467 0.275442 0.616695 0.239821
H52   H     H_    0.080638 0.339533 0.590059 0.207948
H53   H     H_    0.217311 0.354005 0.547250 0.261524
O16   O     O_3   0.629163 0.612598 0.313012 -0.580616
C51   C     C_3   0.762610 0.607587 0.326125 0.130051
H54   H     H_    0.795440 0.633131 0.274270 0.174981
H55   H     H_    0.794682 0.547658 0.334866 0.116269
C52   C     C_3   0.827985 0.653853 0.401160 -0.810455
H56   H     H_    0.931342 0.642666 0.416948 0.231620
H57   H     H_    0.815345 0.715654 0.387835 0.232375
H58   H     H_    0.788318 0.638718 0.454402 0.260467

loop_
_geom_bond_atom_site_label_1
_geom_bond_atom_site_label_2
_ccdc_geom_bond_type
C28   O14   S    
C37   H17   S    
C9    N1    A    
C46   H38   S    
C27   C29   A    
C9    O15   S    
O11   C39   S    
N4    H45   S    
C34   H8    S    
O2    Zn2   S    
O12   C41   S    
O9    C35   S    
C40   H23   S    
O7    Zn2   S    
N3    C47   S    
C44   H33   S    
C39   H22   S    
C2    C29   S    
C22   C24   D    
C19   C21   S    
C52   H56   S    
C5    C6    T    
C42   H30   S    
C37   C38   S    
C13   O9    S    
C3    C33   A    
C35   H12   S    
C23   H2    S    
C36   H14   S    
C38   H19   S    
C49   H49   S    
C50   H53   S    
C2    O4    A    
C21   H4    S    
C39   C40   S    
C10   N2    A    
C47   H42   S    
C7    N3    S    
C11   H9    S    
C10   O16   S    
C25   O11   S    
C48   H48   S    
C19   O7    A    
C35   C36   S    
C42   H29   S    
C37   H16   S    
C8    C16   A    
C29   C31   A    
C47   H43   S    
C36   H13   S    
O14   C45   S    
C40   H24   S    
C4    C34   A    
C24   H1    S    
C39   H21   S    
C3    C25   A    
C20   O8    A    
C8    N4    S    
C1    O1    A    
C7    C15   A    
C51   C52   S    
C2    O2    A    
C35   H11   S    
C42   H28   S    
C22   H3    S    
C49   C50   S    
C32   C34   A    
C38   H20   S    
C19   O5    A    
C43   H32   S    
C23   C24   S    
C31   C33   A    
C17   C18   T    
N4    C48   S    
C16   C18   S    
C50   H51   S    
C12   N2    A    
C12   C14   A    
C45   H36   S    
C44   H35   S    
C41   H27   S    
C13   C15   A    
O16   C51   S    
C47   H44   S    
C14   C16   A    
C26   O12   S    
C11   N1    A    
C4    C6    S    
C25   C27   A    
C45   C46   S    
C32   H6    S    
C43   C44   S    
O1    Zn1   S    
C48   H46   S    
C40   H25   S    
C15   C17   S    
O8    Zn1   S    
C51   H55   S    
C8    C10   A    
C20   C22   S    
C3    C5    S    
C4    C26   A    
C46   H40   S    
C41   C42   S    
N3    H41   S    
C26   C28   A    
O4    Zn1   S    
C33   H7    S    
C52   H58   S    
C21   C23   D    
C20   O6    A    
O3    Zn2   S    
O15   C49   S    
C36   H15   S    
C30   C32   A    
C11   C13   A    
C43   H31   S    
C44   H34   S    
C51   H54   S    
C28   C30   A    
C1    C30   S    
C14   O10   S    
C31   H5    S    
C27   O13   S    
O5    Zn1   S    
O10   C37   S    
C38   H18   S    
C45   H37   S    
C49   H50   S    
C50   H52   S    
C7    C9    A    
N1    Zn1   S    
C46   H39   S    
C41   H26   S    
N2    Zn2   S    
C12   H10   S    
C52   H57   S    
O13   C43   S    
C1    O3    A    
O6    Zn2   S    
C48   H47   S    
