data_mof_unit_59853.cif
_audit_creation_date              2012-12-11T15:57:52-0500
_audit_creation_method            fapswitch 2.2
_symmetry_space_group_name_H-M    P1
_symmetry_Int_Tables_number       1
_space_group_crystal_system       triclinic
_cell_length_a                    10.701504
_cell_length_b                    10.746709
_cell_length_c                    16.97492
_cell_angle_alpha                 99.361183
_cell_angle_beta                  99.471171
_cell_angle_gamma                 61.715906
_cell_volume                      1687.62657074

loop_
_atom_site_label
_atom_site_type_symbol
_atom_type_description
_atom_site_fract_x
_atom_site_fract_y
_atom_site_fract_z
_atom_type_partial_charge
C1    C     C_R   0.353040 0.779005 0.403495 0.574608
C2    C     C_2   0.340147 0.357240 0.837683 -0.068888
C3    C     C_2   0.456200 0.280106 0.799413 -0.138517
C4    C     C_R   0.369462 0.346424 0.357324 0.554612
C5    C     C_2   0.457761 0.307750 0.719129 -0.122975
C6    C     C_1   0.815700 0.342726 0.709012 -0.043687
C7    C     C_1   0.842669 0.314209 0.776736 -0.035697
C8    C     C_1   0.358553 0.763371 0.713719 -0.043732
C9    C     C_1   0.325905 0.810776 0.780613 -0.044731
C10   C     C_R   0.891928 0.308420 0.086423 0.516113
C11   C     C_R   0.319003 0.299429 0.119673 0.545550
C12   C     C_2   0.825979 0.327834 0.160063 0.269808
C13   C     C_R   0.260263 0.951431 0.095601 0.552839
C14   C     C_R   0.884740 0.297326 0.858887 0.552313
C15   C     C_R   0.309748 0.296426 0.897089 0.569787
C16   C     C_R   0.778395 0.376445 0.405820 0.561833
C17   C     C_R   0.280521 0.880787 0.857274 0.561660
C18   C     C_R   0.381238 0.713856 0.631497 0.553336
C19   C     C_R   0.370020 0.347921 0.583526 0.530721
C20   C     C_R   0.771942 0.381636 0.629928 0.523235
C21   C     C_1   0.342807 0.336206 0.273930 -0.038488
C22   C     C_1   0.331561 0.326256 0.202979 -0.033646
C23   C     C_2   0.882654 0.213004 0.201791 -0.120300
C24   C     C_2   0.858359 0.327235 0.336607 -0.075452
C25   C     C_3   0.096804 0.439580 0.640132 0.014706
C26   C     C_3   0.062086 0.591696 0.677138 -0.263438
C27   C     C_3   0.941604 0.702308 0.626573 -0.434754
C28   C     C_3   0.673978 0.575057 0.150906 0.031181
C29   C     C_3   0.762412 0.652468 0.187699 -0.251401
C30   C     C_3   0.742604 0.764810 0.135650 -0.453480
C31   C     C_2   0.850090 0.224566 0.283240 -0.131975
C32   C     C_2   0.316527 0.874685 0.342751 -0.108073
C33   C     C_2   0.297024 0.904448 0.175204 -0.135601
C34   C     C_2   0.382976 0.938568 0.231162 -0.188011
C35   C     C_2   0.415787 0.887420 0.310788 -0.150165
C36   C     C_2   0.345482 0.334819 0.662735 0.282388
Cr1   Cr    Cr6+3 0.608020 0.610770 0.522990 1.008917
Cr2   Cr    Cr6+3 0.289390 0.599570 0.488050 1.003262
Cr3   Cr    Cr6+3 0.602610 0.289690 0.489020 1.017185
Cr4   Cr    Cr6+3 0.053780 0.052210 0.965970 1.017109
Cr5   Cr    Cr6+3 0.060060 0.372530 0.992430 1.011956
Cr6   Cr    Cr6+3 0.372600 0.061970 0.991430 1.013396
H1    H     H_    0.960989 0.109378 0.178466 0.104495
H2    H     H_    0.008489 0.419614 0.649101 0.179635
H3    H     H_    0.099967 0.425707 0.574035 0.140605
H4    H     H_    0.030172 0.607293 0.738489 0.158044
H5    H     H_    0.157219 0.609656 0.682423 0.174855
H6    H     H_    0.971715 0.689314 0.565053 0.152121
H7    H     H_    0.920750 0.810356 0.654521 0.152386
H8    H     H_    0.842358 0.692120 0.622981 0.175856
H9    H     H_    0.808972 0.156205 0.296734 0.146522
H10   H     H_    0.561035 0.648190 0.160735 0.163323
H11   H     H_    0.672692 0.551861 0.084631 0.142570
H12   H     H_    0.558382 0.295657 0.704597 0.108687
H13   H     H_    0.729601 0.704037 0.248221 0.149653
H14   H     H_    0.877481 0.575872 0.195583 0.189888
H15   H     H_    0.778410 0.714780 0.075483 0.161859
H16   H     H_    0.807023 0.819143 0.164487 0.139112
H17   H     H_    0.629064 0.845157 0.128671 0.173208
H18   H     H_    0.256580 0.456343 0.816454 0.129073
H19   H     H_    0.903432 0.391542 0.321867 0.124593
H20   H     H_    0.436080 0.995556 0.216976 0.153760
H21   H     H_    0.524879 0.847047 0.338583 0.152230
H22   H     H_    0.249442 0.841534 0.188548 0.119441
H23   H     H_    0.206264 0.921972 0.316380 0.103433
H24   H     H_    0.544907 0.185395 0.822378 0.150728
O1    O     O_R   0.749250 0.499990 0.439200 -0.519301
O2    O     O_R   0.411120 0.181190 0.091480 -0.527167
O3    O     O_R   0.364220 0.944920 0.062310 -0.508593
O4    O     O_R   0.477870 0.725740 0.440280 -0.483900
O5    O     O_R   0.158740 0.906940 0.874970 -0.506316
O6    O     O_R   0.930920 0.176940 0.885610 -0.492911
O7    O     O_R   0.910730 0.394510 0.895320 -0.509341
O8    O     O_R   0.185840 0.361180 0.920280 -0.492661
O9    O     O_R   0.399210 0.173040 0.915160 -0.508647
O10   O     O_R   0.353170 0.937370 0.898860 -0.483535
O11   O     O_3   0.162150 0.162240 0.983280 -0.261892
O12   O     O_R   0.299400 0.468710 0.556310 -0.540807
O13   O     O_R   0.260770 0.742210 0.412610 -0.510184
O14   O     O_R   0.297990 0.466320 0.394220 -0.497301
O15   O     O_R   0.487720 0.253870 0.385870 -0.508899
O16   O     O_R   0.721940 0.304340 0.422320 -0.492861
O17   O     O_R   0.750770 0.502570 0.614050 -0.545149
O18   O     O_R   0.479280 0.728140 0.602370 -0.482360
O19   O     O_R   0.262290 0.744790 0.587460 -0.509541
O20   O     O_3   0.221248 0.337174 0.679876 -0.588481
O21   O     O_3   0.715751 0.454325 0.191390 -0.584736
O22   O     O_R   0.489240 0.256450 0.560730 -0.524515
O23   O     O_R   0.723350 0.306730 0.584410 -0.501543
O24   O     O_3   0.500010 0.500010 0.500020 -0.265510
O25   O     O_R   0.170650 0.915100 0.051290 -0.516147
O26   O     O_R   0.941960 0.184500 0.049060 -0.531353
O27   O     O_R   0.922640 0.402670 0.071640 -0.532553
O28   O     O_R   0.196880 0.368740 0.083740 -0.503374

loop_
_geom_bond_atom_site_label_1
_geom_bond_atom_site_label_2
_ccdc_geom_bond_type
C27   H6    S    
C15   O9    A    
C30   H15   S    
C24   H19   S    
Cr4   O5    S    
C29   H13   S    
C12   C23   D    
C26   C27   S    
C13   O3    A    
Cr1   O24   S    
C28   C29   S    
C4    O14   A    
C19   C36   S    
Cr5   O11   S    
C2    H18   S    
Cr2   O13   S    
C5    C36   D    
C30   H16   S    
C34   H20   S    
C23   H1    S    
C34   C35   S    
Cr5   O8    S    
C7    C14   S    
Cr5   O27   S    
C4    O15   A    
C8    C9    T    
C17   O10   A    
C18   O18   A    
Cr1   O18   S    
Cr3   O24   S    
C27   H8    S    
C10   O26   A    
C16   C24   S    
Cr1   O4    S    
C13   O25   A    
Cr6   O2    S    
Cr3   O22   S    
C25   H2    S    
C18   O19   A    
Cr2   O19   S    
C32   C35   D    
C5    H12   S    
Cr3   O15   S    
C19   O22   A    
Cr2   O12   S    
C10   O27   A    
C36   O20   S    
C25   C26   S    
Cr6   O3    S    
C8    C18   S    
C23   C31   S    
C19   O12   A    
C14   O7    A    
C13   C33   S    
C29   C30   S    
Cr5   O28   S    
C30   H17   S    
C28   O21   S    
C16   O16   A    
C33   C34   D    
Cr6   O9    S    
C16   O1    A    
Cr4   O26   S    
C2    C15   S    
C10   C12   S    
C26   H5    S    
C11   O28   A    
C9    C17   S    
C17   O5    A    
C1    O13   A    
C3    H24   S    
C25   H3    S    
C11   O2    A    
Cr4   O6    S    
C12   O21   S    
C14   O6    A    
Cr3   O16   S    
C31   H9    S    
C3    C5    S    
C28   H11   S    
C6    C7    T    
C29   H14   S    
C6    C20   S    
C20   O23   A    
Cr2   O24   S    
C11   C22   S    
Cr6   O10   S    
C1    O4    A    
C2    C3    D    
C24   C31   D    
C4    C21   S    
C28   H10   S    
Cr2   O14   S    
C33   H22   S    
Cr1   O1    S    
C25   O20   S    
C1    C32   S    
Cr4   O25   S    
C26   H4    S    
Cr5   O7    S    
C15   O8    A    
Cr6   O11   S    
C20   O17   A    
Cr4   O11   S    
Cr1   O17   S    
C35   H21   S    
C21   C22   T    
Cr3   O23   S    
C27   H7    S    
C32   H23   S    
