data_mof_unit_52098.cif
_audit_creation_date              2012-12-10T18:47:40-0500
_audit_creation_method            fapswitch 2.2
_symmetry_space_group_name_H-M    P1
_symmetry_Int_Tables_number       1
_space_group_crystal_system       triclinic
_cell_length_a                    9.943507
_cell_length_b                    10.721894
_cell_length_c                    15.418661
_cell_angle_alpha                 89.356164
_cell_angle_beta                  65.443479
_cell_angle_gamma                 89.784649
_cell_volume                      1495.05622393

loop_
_atom_site_label
_atom_site_type_symbol
_atom_type_description
_atom_site_fract_x
_atom_site_fract_y
_atom_site_fract_z
_atom_type_partial_charge
C1    C     C_R   0.502394 0.739613 0.496786 0.863067
C2    C     C_R   0.497606 0.260387 0.503213 0.863068
C3    C     C_R   0.412618 0.639832 0.072843 -0.232515
C4    C     C_R   0.587388 0.360175 0.927154 -0.232512
C5    C     C_R   0.323555 0.683194 0.029941 -0.265984
C6    C     C_R   0.676452 0.316814 0.970056 -0.265985
C7    C     C_R   0.637559 0.939813 0.454297 -0.003145
C8    C     C_R   0.362442 0.060186 0.545703 -0.003145
C9    C     C_R   0.630923 0.067551 0.460058 -0.265559
C10   C     C_R   0.369076 0.932449 0.539941 -0.265559
C11   C     C_R   0.495644 0.127707 0.505004 -0.077368
C12   C     C_R   0.504356 0.872293 0.494995 -0.077368
C13   C     C_R   0.977236 0.442306 0.429071 0.051782
C14   C     C_R   0.022764 0.557694 0.570929 0.051783
C15   C     C_R   0.119019 0.442366 0.430204 -0.107971
C16   C     C_R   0.880981 0.557634 0.569796 -0.107971
C17   C     C_R   0.406463 0.501679 0.676497 0.855540
C18   C     C_R   0.593537 0.498322 0.323503 0.855539
C19   C     C_R   0.347594 0.525715 0.777917 -0.056457
C20   C     C_R   0.652407 0.474287 0.222083 -0.056456
C21   C     C_R   0.246249 0.678907 0.901501 -0.215659
C22   C     C_R   0.753756 0.321099 0.098497 -0.215659
C23   C     C_R   0.264048 0.632821 0.813551 -0.185456
C24   C     C_R   0.735955 0.367183 0.186447 -0.185456
C25   C     C_R   0.413546 0.464258 0.830140 -0.268612
C26   C     C_R   0.586453 0.535744 0.169860 -0.268613
C27   C     C_R   0.410087 0.515497 0.914622 0.097259
C28   C     C_R   0.589916 0.484508 0.085376 0.097260
C29   C     C_R   0.323455 0.624228 0.950290 0.169811
C30   C     C_R   0.676550 0.375778 0.049707 0.169810
C31   C     C_R   0.498764 0.467978 0.960088 0.075070
C32   C     C_R   0.501240 0.532028 0.039910 0.075071
H1    H     H_    0.259368 0.767257 0.056801 0.142344
H2    H     H_    0.740641 0.232751 0.943195 0.142343
H3    H     H_    0.520395 0.615814 0.203206 0.128710
H4    H     H_    0.479600 0.384186 0.796797 0.128709
H5    H     H_    0.775314 0.313044 0.230682 0.172380
H6    H     H_    0.224690 0.686960 0.769316 0.172379
H7    H     H_    0.183151 0.763769 0.927075 0.133145
H8    H     H_    0.816856 0.236238 0.072921 0.133145
H9    H     H_    0.411343 0.695604 0.130598 0.137917
H10   H     H_    0.588666 0.304404 0.869398 0.137917
H11   H     H_    0.731484 0.120416 0.426141 0.165647
H12   H     H_    0.268515 0.879584 0.573858 0.165648
H13   H     H_    0.210795 0.396034 0.374411 0.159669
H14   H     H_    0.789206 0.603966 0.625589 0.159669
N1    N     N_R   0.142780 0.500030 0.500020 -0.099586
N2    N     N_R   0.857220 0.499970 0.499980 -0.099585
O1    O     O_R   0.385370 0.683250 0.500010 -0.623180
O2    O     O_R   0.614630 0.316750 0.499990 -0.623180
O3    O     O_R   0.614700 0.683220 0.500000 -0.601286
O4    O     O_R   0.385300 0.316780 0.500000 -0.601286
O5    O     O_R   0.319830 0.500020 0.632250 -0.603240
O6    O     O_R   0.680170 0.499980 0.367750 -0.603240
O7    O     O_R   0.549160 0.499990 0.632240 -0.612165
O8    O     O_R   0.450840 0.500010 0.367760 -0.612165
Zn1   Zn    Zn3+2 0.346870 0.500020 0.500000 0.952307
Zn2   Zn    Zn3+2 0.653130 0.499980 0.500000 0.952307
C33   C     C_R   0.784269 0.882752 0.401665 0.155285
C34   C     C_R   0.891078 0.887030 0.439111 -0.158837
C35   C     C_R   0.033250 0.840924 0.386408 -0.144813
C36   C     C_R   0.069990 0.792404 0.295692 -0.130023
C37   C     C_R   0.964360 0.788878 0.257793 -0.172222
C38   C     C_R   0.821330 0.832820 0.310924 -0.134969
H15   H     H_    0.864320 0.926568 0.508685 0.121302
H16   H     H_    0.115394 0.843907 0.415373 0.128640
H17   H     H_    0.180178 0.757292 0.254936 0.124899
H18   H     H_    0.993098 0.751538 0.187390 0.126740
H19   H     H_    0.740521 0.830326 0.280774 0.106235
C39   C     C_R   0.215731 0.117248 0.598334 0.155286
C40   C     C_R   0.178669 0.167178 0.689076 -0.134972
C41   C     C_R   0.035640 0.211121 0.742206 -0.172223
C42   C     C_R   0.930011 0.207598 0.704306 -0.130021
C43   C     C_R   0.966751 0.159080 0.613589 -0.144813
C44   C     C_R   0.108923 0.112973 0.560887 -0.158835
H20   H     H_    0.259477 0.169669 0.719227 0.106236
H21   H     H_    0.006901 0.248459 0.812610 0.126739
H22   H     H_    0.819823 0.242710 0.745062 0.124898
H23   H     H_    0.884608 0.156099 0.584624 0.128639
H24   H     H_    0.135682 0.073436 0.491312 0.121301
C45   C     C_R   0.970914 0.379154 0.346741 0.163827
C46   C     C_R   0.015650 0.445381 0.260136 -0.144714
C47   C     C_R   0.062921 0.382263 0.173579 -0.140300
C48   C     C_R   0.063966 0.251942 0.172808 -0.132028
C49   C     C_R   0.019193 0.184968 0.258515 -0.166418
C50   C     C_R   0.976312 0.248318 0.344720 -0.191787
H25   H     H_    0.023446 0.545542 0.259111 0.142640
H26   H     H_    0.099739 0.434360 0.107157 0.149932
H27   H     H_    0.100144 0.203028 0.105890 0.129152
H28   H     H_    0.023112 0.084096 0.257850 0.159706
H29   H     H_    0.956305 0.195657 0.409243 0.121287
C51   C     C_R   0.029087 0.620847 0.653258 0.163827
C52   C     C_R   0.023687 0.751683 0.655280 -0.191789
C53   C     C_R   0.980806 0.815033 0.741484 -0.166417
C54   C     C_R   0.936036 0.748059 0.827191 -0.132027
C55   C     C_R   0.937084 0.617738 0.826420 -0.140300
C56   C     C_R   0.984354 0.554620 0.739863 -0.144711
H30   H     H_    0.043691 0.804344 0.590757 0.121288
H31   H     H_    0.976885 0.915905 0.742150 0.159706
H32   H     H_    0.899859 0.796972 0.894109 0.129153
H33   H     H_    0.900269 0.565641 0.892841 0.149932
H34   H     H_    0.976561 0.454458 0.740888 0.142641

loop_
_geom_bond_atom_site_label_1
_geom_bond_atom_site_label_2
_ccdc_geom_bond_type
C21   C29   A    
C52   C53   A    
C27   C29   A    
C42   C43   A    
C54   C55   A    
C15   N1    A    
C16   N2    A    
C45   C46   A    
C49   C50   A    
C33   C38   A    
C41   H21   S    
C20   C26   A    
C36   H17   S    
C47   C48   A    
C22   C24   A    
C50   H29   S    
C40   H20   S    
C46   H25   S    
C13   C45   S    
O1    Zn1   S    
O8    Zn1   S    
C2    O2    A    
C35   H16   S    
C20   C24   A    
C5    H1    S    
C42   H22   S    
C39   C40   A    
C44   H24   S    
C17   O7    A    
C56   H34   S    
C18   O8    A    
C47   H26   S    
C33   C34   A    
C55   H33   S    
C53   C54   A    
C1    C12   S    
C2    C11   S    
C10   C12   A    
C7    C33   S    
C51   C56   A    
C5    C29   A    
C7    C12   A    
C9    H11   S    
C43   C44   A    
C10   H12   S    
O2    Zn2   S    
C28   C32   A    
C48   C49   A    
C4    C6    A    
C16   H14   S    
O5    Zn1   S    
C54   H32   S    
C27   C31   A    
C6    H2    S    
C34   C35   A    
C19   C23   A    
C36   C37   A    
N1    Zn1   S    
C1    O3    A    
C31   C32   A    
C21   H7    S    
C22   H8    S    
C55   C56   A    
C24   H5    S    
C3    C32   A    
O3    Zn2   S    
C38   H19   S    
C9    C11   A    
C14   C51   S    
C2    O4    A    
C6    C30   A    
C34   H15   S    
C43   H23   S    
C13   C15   A    
C14   C16   A    
C48   H27   S    
C15   H13   S    
C17   O5    A    
O6    Zn2   S    
C7    C9    A    
C37   H18   S    
C3    H9    S    
C22   C30   A    
C26   C28   A    
C45   C50   A    
C41   C42   A    
C3    C5    A    
C13   N2    A    
C49   H28   S    
N2    Zn2   S    
C14   N1    A    
C25   C27   A    
C23   H6    S    
C8    C39   S    
C21   C23   A    
C40   C41   A    
C4    H10   S    
C53   H31   S    
C8    C11   A    
C28   C30   A    
C51   C52   A    
C17   C19   S    
C18   C20   S    
C35   C36   A    
C19   C25   A    
C4    C31   A    
O4    Zn1   S    
C18   O6    A    
C25   H4    S    
C37   C38   A    
C26   H3    S    
C8    C10   A    
C46   C47   A    
O7    Zn2   S    
C39   C44   A    
C1    O1    A    
C52   H30   S    
