data_mof_unit_5085.cif
_audit_creation_date              2012-12-10T17:54:25-0500
_audit_creation_method            fapswitch 2.2
_symmetry_space_group_name_H-M    P1
_symmetry_Int_Tables_number       1
_space_group_crystal_system       triclinic
_cell_length_a                    27.730993
_cell_length_b                    10.604852
_cell_length_c                    9.954258
_cell_angle_alpha                 90.794256
_cell_angle_beta                  89.588897
_cell_angle_gamma                 92.910913
_cell_volume                      2923.25934778

loop_
_atom_site_label
_atom_site_type_symbol
_atom_type_description
_atom_site_fract_x
_atom_site_fract_y
_atom_site_fract_z
_atom_type_partial_charge
C1    C     C_R   0.501547 0.261001 0.499346 0.909603
C2    C     C_R   0.972267 0.382254 0.493282 0.047607
C3    C     C_R   0.976603 0.615698 0.500962 0.048149
C4    C     C_R   0.406154 0.500670 0.500471 0.933864
C5    C     C_R   0.949210 0.498856 0.496079 0.076299
C6    C     C_R   0.943348 0.268966 0.480101 -0.204625
C7    C     C_R   0.893412 0.269977 0.476525 -0.120395
C8    C     C_R   0.870419 0.383757 0.485126 -0.027054
C9    C     C_R   0.898126 0.498598 0.494236 -0.048494
C10   C     C_R   0.874614 0.613169 0.501805 -0.026778
C11   C     C_R   0.824157 0.610663 0.501212 0.567438
C12   C     C_R   0.277997 0.498072 0.379948 0.440671
C13   C     C_R   0.820032 0.385659 0.484592 0.561501
C14   C     C_R   0.722022 0.498388 0.618965 0.445004
C15   C     C_R   0.671904 0.499281 0.619878 -0.246895
C16   C     C_R   0.501528 0.739351 0.500705 0.864013
C17   C     C_R   0.671817 0.498126 0.375715 -0.226421
C18   C     C_R   0.721861 0.497289 0.374771 -0.160981
C19   C     C_R   0.746926 0.497622 0.495958 0.235969
C20   C     C_R   0.023226 0.382540 0.502635 0.048545
C21   C     C_R   0.050679 0.499293 0.500699 0.076603
C22   C     C_R   0.027684 0.615848 0.496469 0.046747
C23   C     C_R   0.252945 0.499735 0.502673 0.233461
C24   C     C_R   0.047882 0.269707 0.515102 -0.204725
C25   C     C_R   0.106755 0.727806 0.487126 -0.117181
C26   C     C_R   0.951745 0.728770 0.511333 -0.205201
C27   C     C_R   0.901744 0.727247 0.511341 -0.122914
C28   C     C_R   0.593844 0.500228 0.499553 0.851124
C29   C     C_R   0.056805 0.728926 0.486849 -0.204822
C30   C     C_R   0.582824 0.140237 0.376278 -0.171205
C31   C     C_R   0.621227 0.078513 0.318506 -0.097525
C32   C     C_R   0.621531 0.947362 0.320662 -0.111467
C33   C     C_R   0.583437 0.877501 0.380640 -0.181245
C34   C     C_R   0.101760 0.499483 0.502835 -0.047994
C35   C     C_R   0.543965 0.938668 0.438544 0.098565
C36   C     C_R   0.543658 0.070713 0.436388 0.086970
C37   C     C_R   0.504510 0.128936 0.498380 -0.073589
C38   C     C_R   0.467611 0.061024 0.564986 -0.151495
C39   C     C_R   0.467889 0.932339 0.566927 -0.184388
C40   C     C_R   0.175607 0.387363 0.512416 0.562427
C41   C     C_R   0.505056 0.872140 0.502219 -0.095396
C42   C     C_R   0.420235 0.368667 0.128409 0.382523
C43   C     C_R   0.379812 0.335907 0.049758 -0.161683
C44   C     C_R   0.384453 0.327379 0.912451 -0.265175
C45   C     C_R   0.125143 0.385025 0.511377 -0.026995
C46   C     C_R   0.427784 0.364843 0.853156 -0.150051
C47   C     C_R   0.463703 0.433800 0.925573 0.132488
C48   C     C_R   0.462321 0.434111 0.070176 0.081648
C49   C     C_R   0.535243 0.562090 0.071729 -0.099881
C50   C     C_R   0.535049 0.562662 0.929053 -0.089367
C51   C     C_R   0.179960 0.612051 0.497262 0.569563
C52   C     C_R   0.277901 0.502355 0.624133 -0.150864
C53   C     C_R   0.327985 0.503144 0.623687 -0.219272
C54   C     C_R   0.328129 0.499180 0.379617 -0.218006
C55   C     C_R   0.097861 0.271192 0.518973 -0.121921
C56   C     C_R   0.129591 0.614121 0.496192 -0.029985
C57   C     C_R   0.353445 0.501042 0.501353 -0.097372
C58   C     C_R   0.646509 0.499323 0.498352 -0.101349
Cl1   Cl    Cl    0.247186 0.494229 0.225977 -0.581221
Cl2   Cl    Cl    0.417931 0.266898 0.265276 -0.604775
Cl3   Cl    Cl    0.753033 0.498058 0.772486 -0.583722
H1    H     H_    0.347082 0.498651 0.284230 0.189759
H2    H     H_    0.584547 0.242198 0.374827 0.147480
H3    H     H_    0.651039 0.132705 0.273050 0.160279
H4    H     H_    0.651579 0.899641 0.276892 0.157281
H5    H     H_    0.585658 0.776033 0.382960 0.142570
H6    H     H_    0.438502 0.879224 0.616131 0.162708
H7    H     H_    0.564034 0.613328 0.125250 0.141403
H8    H     H_    0.347127 0.294122 0.094728 0.213799
H9    H     H_    0.355649 0.282954 0.852839 0.189569
H10   H     H_    0.432340 0.337302 0.750802 0.212878
H11   H     H_    0.563720 0.614449 0.876015 0.148973
H12   H     H_    0.258377 0.504030 0.718703 0.173797
H13   H     H_    0.115047 0.182203 0.527922 0.190672
H14   H     H_    0.652997 0.499986 0.715470 0.190021
H15   H     H_    0.872862 0.180661 0.467069 0.193811
H16   H     H_    0.958110 0.177379 0.469525 0.139889
H17   H     H_    0.029668 0.178181 0.524937 0.138691
H18   H     H_    0.346649 0.505832 0.718862 0.187776
H19   H     H_    0.127442 0.816941 0.479739 0.195827
H20   H     H_    0.969745 0.820599 0.522658 0.138728
H21   H     H_    0.653056 0.497946 0.280660 0.177449
H22   H     H_    0.884419 0.816387 0.519377 0.190567
H23   H     H_    0.741290 0.496682 0.280020 0.172589
H24   H     H_    0.042262 0.820398 0.475966 0.140096
H25   H     H_    0.438136 0.107931 0.613444 0.154883
N1    N     N_R   0.201635 0.499725 0.504663 -0.344568
N2    N     N_R   0.798241 0.497983 0.493393 -0.343531
N3    N     N_R   0.499540 0.498800 0.142780 -0.110834
N4    N     N_R   0.499520 0.498720 0.857170 -0.115367
O1    O     O_R   0.500000 0.316780 0.614690 -0.647657
O2    O     O_R   0.571250 0.499990 0.614680 -0.618711
O3    O     O_R   0.571240 0.499970 0.385350 -0.644915
O4    O     O_2   0.198611 0.278553 0.520275 -0.528212
O5    O     O_2   0.792918 0.276487 0.476214 -0.536579
O6    O     O_2   0.207184 0.721023 0.490596 -0.523963
O7    O     O_2   0.801037 0.719571 0.508772 -0.533786
O8    O     O_R   0.500000 0.316750 0.385360 -0.552810
O9    O     O_R   0.428760 0.500030 0.614650 -0.650583
O10   O     O_R   0.428750 0.500010 0.385320 -0.585343
O11   O     O_R   0.500000 0.683250 0.614640 -0.610565
O12   O     O_R   0.500000 0.683220 0.385310 -0.614298
Zn1   Zn    Zn3+2 0.500000 0.500020 0.653130 0.952810
Zn2   Zn    Zn3+2 0.500000 0.499980 0.346870 0.989063

loop_
_geom_bond_atom_site_label_1
_geom_bond_atom_site_label_2
_ccdc_geom_bond_type
C10   C27   A    
C15   H14   S    
C34   C56   A    
C8    C13   A    
C49   H7    S    
C25   H19   S    
O9    Zn1   S    
C35   C36   A    
C25   C56   A    
C7    C8    A    
C39   C41   A    
C31   C32   A    
C24   C55   A    
C12   C23   A    
C26   C27   A    
C38   H25   S    
C40   N1    A    
C21   C22   A    
C36   C37   A    
C22   C29   A    
C18   C19   A    
C30   C31   A    
O10   Zn2   S    
C17   H21   S    
C50   H11   S    
O2    Zn1   S    
C33   C35   A    
C12   Cl1   S    
C50   N4    A    
C20   C24   A    
C8    C9    A    
C4    C57   S    
C18   H23   S    
C44   H9    S    
C40   O4    S    
C9    C10   A    
C29   H24   S    
C1    C37   S    
C17   C58   A    
C1    O1    A    
C23   N1    S    
C30   H2    S    
C55   H13   S    
C2    C6    A    
C14   C19   A    
O3    Zn2   S    
C44   C46   A    
C33   H5    S    
C25   C29   A    
C40   C45   A    
C2    C20   A    
C19   N2    S    
C42   Cl2   S    
C53   C57   A    
C6    H16   S    
C21   C34   A    
C54   H1    S    
C14   Cl3   S    
C28   O3    A    
C43   C44   A    
C5    C9    A    
C37   C38   A    
C47   C48   A    
C11   N2    A    
C17   C18   A    
C28   O2    A    
C34   C45   A    
C42   C48   A    
O12   Zn2   S    
C46   H10   S    
C7    H15   S    
C24   H17   S    
C13   O5    S    
C52   H12   S    
C26   H20   S    
C48   N3    A    
C4    O10   A    
N3    Zn2   S    
C15   C58   A    
C2    C5    A    
C42   C43   A    
C51   N1    A    
C52   C53   A    
C16   O12   A    
C46   C47   A    
C49   N3    A    
C53   H18   S    
C39   H6    S    
C31   H3    S    
C3    C26   A    
C51   C56   A    
O1    Zn1   S    
C3    C5    A    
C1    O8    A    
C6    C7    A    
C28   C58   S    
C51   O6    S    
C30   C36   A    
C11   O7    S    
C32   C33   A    
C27   H22   S    
C23   C52   A    
C38   C39   A    
O8    Zn2   S    
C13   N2    A    
C47   N4    A    
C35   C41   A    
N4    Zn1   S    
C10   C11   A    
C16   O11   A    
C20   C21   A    
C45   C55   A    
O11   Zn1   S    
C49   C50   A    
C4    O9    A    
C14   C15   A    
C3    C22   A    
C43   H8    S    
C16   C41   S    
C12   C54   A    
C32   H4    S    
C54   C57   A    
