data_mof_unit_5590.cif
_audit_creation_date              2013-03-05T15:52:00-0500
_audit_creation_method            fapswitch 2.2
_symmetry_space_group_name_H-M    P1
_symmetry_Int_Tables_number       1
_space_group_crystal_system       triclinic
_cell_length_a                    25.928088
_cell_length_b                    25.885703
_cell_length_c                    22.273552
_cell_angle_alpha                 90.687655
_cell_angle_beta                  126.241229
_cell_angle_gamma                 89.397808
_cell_volume                      12056.13336

loop_
_atom_site_label
_atom_site_type_symbol
_atom_site_description
_atom_site_fract_x
_atom_site_fract_y
_atom_site_fract_z
_atom_type_partial_charge
Zn1   Zn    Zn3+2 0.074160 0.706620 0.561580 1.037417
Zn2   Zn    Zn3+2 0.925840 0.293380 0.438420 1.090069
Zn3   Zn    Zn3+2 0.925840 0.706620 0.438420 1.031903
Zn4   Zn    Zn3+2 0.074160 0.293380 0.561580 1.061152
Zn5   Zn    Zn3+2 0.574160 0.206620 0.561580 1.036558
Zn6   Zn    Zn3+2 0.425840 0.793380 0.438420 1.069250
Zn7   Zn    Zn3+2 0.425840 0.206620 0.438420 1.028472
Zn8   Zn    Zn3+2 0.574160 0.793380 0.561580 1.079993
Zn9   Zn    Zn3+2 0.012590 0.793370 0.438410 0.974839
Zn10  Zn    Zn3+2 0.987410 0.206630 0.561590 0.969621
Zn11  Zn    Zn3+2 0.987410 0.793370 0.561590 0.968036
Zn12  Zn    Zn3+2 0.012590 0.206630 0.438410 0.971362
Zn13  Zn    Zn3+2 0.512590 0.293370 0.438410 0.983204
Zn14  Zn    Zn3+2 0.487410 0.706630 0.561590 0.981018
Zn15  Zn    Zn3+2 0.487410 0.293370 0.561590 0.974208
Zn16  Zn    Zn3+2 0.512590 0.706630 0.438410 0.959236
O1    O     O_3   0.000000 0.750000 0.500000 -0.496840
O2    O     O_3   0.000000 0.250000 0.500000 -0.507929
O3    O     O_3   0.500000 0.250000 0.500000 -0.496335
O4    O     O_3   0.500000 0.750000 0.500000 -0.508490
O5    O     O_R   0.887450 0.719640 0.335600 -0.638125
O6    O     O_R   0.112550 0.280360 0.664400 -0.623178
O7    O     O_R   0.112550 0.719640 0.664400 -0.645724
O8    O     O_R   0.887450 0.280360 0.335600 -0.609194
O9    O     O_R   0.387450 0.219640 0.335600 -0.643868
O10   O     O_R   0.612550 0.780360 0.664400 -0.617891
O11   O     O_R   0.612550 0.219640 0.664400 -0.640839
O12   O     O_R   0.387450 0.780360 0.335600 -0.618088
O13   O     O_R   0.094250 0.780350 0.456890 -0.644896
O14   O     O_R   0.905750 0.219650 0.543110 -0.645100
O15   O     O_R   0.905750 0.780350 0.543110 -0.667563
O16   O     O_R   0.094250 0.219650 0.456890 -0.676642
O17   O     O_R   0.594250 0.280350 0.456890 -0.670071
O18   O     O_R   0.405750 0.719650 0.543110 -0.671784
O19   O     O_R   0.405750 0.280350 0.543110 -0.655775
O20   O     O_R   0.594250 0.719650 0.456890 -0.657490
O21   O     O_R   0.008810 0.865800 0.456890 -0.625677
O22   O     O_R   0.991190 0.134200 0.543110 -0.627941
O23   O     O_R   0.991190 0.865800 0.543110 -0.642902
O24   O     O_R   0.008810 0.134200 0.456890 -0.638711
O25   O     O_R   0.508810 0.365800 0.456890 -0.619072
O26   O     O_R   0.491190 0.634200 0.543110 -0.617291
O27   O     O_R   0.491190 0.365800 0.543110 -0.648358
O28   O     O_R   0.508810 0.634200 0.456890 -0.653217
O29   O     O_R   0.948090 0.634190 0.456900 -0.592206
O30   O     O_R   0.051910 0.365810 0.543100 -0.593598
O31   O     O_R   0.051910 0.634190 0.543100 -0.590436
O32   O     O_R   0.948090 0.365810 0.456900 -0.589169
O33   O     O_R   0.448090 0.134190 0.456900 -0.610666
O34   O     O_R   0.551910 0.865810 0.543100 -0.583482
O35   O     O_R   0.551910 0.134190 0.543100 -0.598520
O36   O     O_R   0.448090 0.865810 0.456900 -0.596980
O37   O     O_R   0.137350 0.719630 0.543100 -0.613272
O38   O     O_R   0.862650 0.280370 0.456900 -0.573595
O39   O     O_R   0.862650 0.719630 0.456900 -0.604469
O40   O     O_R   0.137350 0.280370 0.543100 -0.584267
O41   O     O_R   0.637350 0.219630 0.543100 -0.603828
O42   O     O_R   0.362650 0.780370 0.456900 -0.574682
O43   O     O_R   0.362650 0.219630 0.456900 -0.619397
O44   O     O_R   0.637350 0.780370 0.543100 -0.577971
O45   O     O_R   0.948170 0.780360 0.335600 -0.657199
O46   O     O_R   0.051830 0.219640 0.664400 -0.661075
O47   O     O_R   0.051830 0.780360 0.664400 -0.631412
O48   O     O_R   0.948170 0.219640 0.335600 -0.638798
O49   O     O_R   0.448170 0.280360 0.335600 -0.623393
O50   O     O_R   0.551830 0.719640 0.664400 -0.631658
O51   O     O_R   0.551830 0.280360 0.664400 -0.649012
O52   O     O_R   0.448170 0.719640 0.335600 -0.653649
C1    C     C_R   0.900146 0.749846 0.300750 0.798020
C2    C     C_R   0.099855 0.250123 0.699241 0.788562
C3    C     C_R   0.099793 0.749989 0.699483 0.817781
C4    C     C_R   0.900213 0.250021 0.300521 0.816170
C5    C     C_R   0.400127 0.249796 0.300702 0.810665
C6    C     C_R   0.599817 0.750254 0.699294 0.804272
C7    C     C_R   0.599809 0.250001 0.699480 0.817383
C8    C     C_R   0.400197 0.749994 0.300530 0.805401
C9    C     C_R   0.138326 0.746009 0.496035 0.846415
C10   C     C_R   0.861039 0.253618 0.502909 0.846799
C11   C     C_R   0.861430 0.746415 0.503635 0.834694
C12   C     C_R   0.138155 0.253400 0.495396 0.878660
C13   C     C_R   0.638654 0.246240 0.496590 0.814350
C14   C     C_R   0.361450 0.753750 0.503649 0.842797
C15   C     C_R   0.362418 0.246035 0.505364 0.878972
C16   C     C_R   0.638386 0.753695 0.496176 0.861361
C17   C     C_R   0.994687 0.890576 0.496687 0.828721
C18   C     C_R   0.005991 0.109608 0.504263 0.831457
C19   C     C_R   0.504081 0.390455 0.504584 0.837416
C20   C     C_R   0.496573 0.609394 0.495607 0.832313
C21   C     C_R   0.999897 0.609894 0.499430 0.837696
C22   C     C_R   0.000059 0.390056 0.500588 0.839551
C23   C     C_R   0.500371 0.109917 0.501137 0.860834
C24   C     C_R   0.499658 0.890079 0.498880 0.834147
H1    H     H_    0.131578 0.550307 0.757779 0.174000
H2    H     H_    0.869243 0.448497 0.242838 0.181309
H3    H     H_    0.860035 0.543296 0.240679 0.183766
H4    H     H_    0.135649 0.455272 0.759056 0.175919
H5    H     H_    0.646517 0.043742 0.759448 0.183386
H6    H     H_    0.355712 0.955891 0.240438 0.179655
H7    H     H_    0.368666 0.050135 0.243388 0.172961
H8    H     H_    0.632832 0.949593 0.756495 0.180919
C25   C     C_R   0.925737 0.551485 0.359918 -0.072983
C26   C     C_R   0.071180 0.447916 0.639732 -0.097813
C27   C     C_R   0.067361 0.554732 0.638363 -0.077080
C28   C     C_R   0.934108 0.444863 0.362143 -0.068505
C29   C     C_R   0.434561 0.054070 0.362606 -0.100513
C30   C     C_R   0.565897 0.945877 0.637384 -0.072872
C31   C     C_R   0.578752 0.051916 0.640589 -0.067490
C32   C     C_R   0.422347 0.947930 0.359446 -0.087881
C33   C     C_R   0.890100 0.523504 0.293519 -0.099758
C34   C     C_R   0.107250 0.475465 0.706411 -0.105810
C35   C     C_R   0.105104 0.528848 0.705739 -0.101840
C36   C     C_R   0.894958 0.470248 0.294594 -0.094414
C37   C     C_R   0.393988 0.028653 0.294895 -0.109705
C38   C     C_R   0.607206 0.971152 0.705039 -0.093323
C39   C     C_R   0.614475 0.024052 0.706541 -0.101719
C40   C     C_R   0.387100 0.975700 0.293391 -0.098344
C41   C     C_R   0.965666 0.472013 0.431252 0.080436
C42   C     C_R   0.034529 0.527783 0.568925 0.087602
C43   C     C_R   0.035807 0.473384 0.569553 0.082032
C44   C     C_R   0.963171 0.526381 0.430444 0.080791
C45   C     C_R   0.461749 0.973202 0.430180 0.081076
C46   C     C_R   0.538733 0.026742 0.569829 0.079250
C47   C     C_R   0.534542 0.972512 0.568484 0.082349
C48   C     C_R   0.465774 0.027448 0.431513 0.099184
C49   C     C_R   0.000779 0.446018 0.500566 -0.111273
C50   C     C_R   0.999006 0.553868 0.499505 -0.114391
C51   C     C_R   0.497940 0.946102 0.498974 -0.116888
C52   C     C_R   0.502232 0.053878 0.501034 -0.109394
H9    H     H_    0.922923 0.592712 0.353170 0.168311
H10   H     H_    0.071704 0.406667 0.645587 0.155897
H11   H     H_    0.064049 0.595945 0.642721 0.149647
H12   H     H_    0.939461 0.403838 0.358534 0.154615
H13   H     H_    0.441538 0.094682 0.359399 0.141876
H14   H     H_    0.558605 0.905346 0.640606 0.146682
H15   H     H_    0.583972 0.093064 0.648073 0.177608
H16   H     H_    0.417444 0.906753 0.352123 0.171228
C53   C     C_3   0.757625 0.201511 0.023541 0.384574
C54   C     C_3   0.238079 0.798676 0.976535 0.388793
C55   C     C_3   0.237023 0.200701 0.974647 0.395555
C56   C     C_3   0.752646 0.798505 0.025423 0.396570
C57   C     C_3   0.261850 0.701369 0.023533 0.392326
C58   C     C_3   0.742446 0.298403 0.976483 0.398182
C59   C     C_3   0.747157 0.703296 0.974944 0.384247
C60   C     C_3   0.261911 0.297766 0.024929 0.391694
C61   C     C_3   0.194170 0.725613 0.973375 -0.386174
C62   C     C_3   0.807896 0.270474 0.026507 -0.386470
C63   C     C_3   0.809702 0.734575 0.026260 -0.383948
C64   C     C_3   0.193895 0.274525 0.973614 -0.384708
C65   C     C_3   0.692166 0.229444 0.973520 -0.387060
C66   C     C_3   0.305754 0.774423 0.026707 -0.375815
C67   C     C_3   0.305095 0.223920 0.026005 -0.390106
C68   C     C_3   0.690057 0.767239 0.974040 -0.386208
H17   H     H_    0.148383 0.705688 0.951356 0.229324
H18   H     H_    0.855312 0.287210 0.048355 0.227901
H19   H     H_    0.858687 0.721187 0.047748 0.229244
H20   H     H_    0.148283 0.295215 0.952054 0.228172
H21   H     H_    0.644751 0.212694 0.951679 0.230194
H22   H     H_    0.351549 0.794332 0.048753 0.230220
H23   H     H_    0.350656 0.203179 0.047499 0.228698
H24   H     H_    0.641077 0.780618 0.952580 0.227676
C69   C     C_1   0.139622 0.750158 0.778686 -0.082637
C70   C     C_1   0.860457 0.249908 0.221351 -0.075616
C71   C     C_1   0.860023 0.749718 0.221543 -0.087304
C72   C     C_1   0.139914 0.250174 0.778443 -0.081419
C73   C     C_1   0.639581 0.250105 0.778654 -0.085725
C74   C     C_1   0.360363 0.749810 0.221357 -0.077725
C75   C     C_1   0.359923 0.249401 0.221407 -0.076939
C76   C     C_1   0.639729 0.750899 0.778583 -0.071411
C77   C     C_3   0.280141 0.725794 0.975984 0.405257
C78   C     C_3   0.722236 0.277905 0.024236 0.388664
C79   C     C_3   0.724782 0.719018 0.023047 0.392008
C80   C     C_3   0.280286 0.272923 0.976906 0.392190
C81   C     C_3   0.777838 0.222008 0.975794 0.393600
C82   C     C_3   0.219787 0.774261 0.024104 0.376739
C83   C     C_3   0.218702 0.225539 0.022755 0.396898
C84   C     C_3   0.774981 0.782788 0.977239 0.388910
C85   C     C_3   0.213362 0.750420 0.926292 -0.190100
C86   C     C_3   0.786733 0.249652 0.073739 -0.186930
C87   C     C_3   0.786358 0.750515 0.073892 -0.185604
C88   C     C_3   0.213176 0.249322 0.926069 -0.187568
C89   C     C_3   0.713335 0.250262 0.926269 -0.187709
C90   C     C_3   0.286584 0.749607 0.073764 -0.186631
C91   C     C_3   0.285856 0.249179 0.073628 -0.190431
C92   C     C_3   0.713386 0.751244 0.926364 -0.188295
C93   C     C_1   0.173001 0.750349 0.845363 0.178175
C94   C     C_1   0.827119 0.249715 0.154673 0.177544
C95   C     C_1   0.826611 0.749975 0.154851 0.175455
C96   C     C_1   0.173163 0.249816 0.845122 0.174631
C97   C     C_1   0.672941 0.250248 0.845335 0.176914
C98   C     C_1   0.326979 0.749628 0.154686 0.177324
C99   C     C_1   0.326281 0.249207 0.154657 0.175631
C100  C     C_1   0.673097 0.751244 0.845326 0.175978
H25   H     H_    0.913527 0.817742 0.738272 0.192434
H26   H     H_    0.103378 0.143528 0.292939 0.179977
H27   H     H_    0.085874 0.819681 0.263857 0.187154
H28   H     H_    0.917292 0.189503 0.739606 0.181228
H29   H     H_    0.399332 0.348461 0.716675 0.184365
H30   H     H_    0.584184 0.683832 0.260651 0.187309
H31   H     H_    0.580961 0.304843 0.255195 0.197364
H32   H     H_    0.413280 0.679378 0.735061 0.185806
C101  C     C_R   0.743086 0.674459 0.401412 0.373733
C102  C     C_R   0.242124 0.337457 0.571428 0.432358
C103  C     C_R   0.254874 0.671644 0.592364 0.371625
C104  C     C_R   0.739096 0.320664 0.394824 0.404268
C105  C     C_R   0.260871 0.158583 0.434710 0.381834
C106  C     C_R   0.755011 0.826568 0.596222 0.415345
C107  C     C_R   0.758892 0.176369 0.599364 0.370402
C108  C     C_R   0.244397 0.827015 0.406237 0.416711
C109  C     C_R   0.683943 0.664951 0.333031 -0.210914
C110  C     C_R   0.297922 0.356885 0.636416 -0.161346
C111  C     C_R   0.313631 0.661037 0.660427 -0.219615
C112  C     C_R   0.679724 0.326473 0.325555 -0.158467
C113  C     C_R   0.204896 0.136815 0.372658 -0.194416
C114  C     C_R   0.813660 0.836268 0.664970 -0.154265
C115  C     C_R   0.818369 0.168520 0.667826 -0.203036
C116  C     C_R   0.185709 0.837518 0.338047 -0.150747
C117  C     C_R   0.629533 0.691578 0.313514 -0.185669
C118  C     C_R   0.356634 0.333482 0.665995 -0.212881
C119  C     C_R   0.368268 0.687707 0.682175 -0.187443
C120  C     C_R   0.626579 0.299887 0.308773 -0.199131
C121  C     C_R   0.146037 0.160071 0.341991 -0.209111
C122  C     C_R   0.868474 0.809901 0.685125 -0.205116
C123  C     C_R   0.871644 0.195916 0.686595 -0.179576
C124  C     C_R   0.130927 0.811201 0.316599 -0.196115
C125  C     C_R   0.632434 0.724883 0.364605 -0.126653
C126  C     C_R   0.361138 0.293484 0.627196 -0.098444
C127  C     C_R   0.366070 0.722020 0.633341 -0.121005
C128  C     C_R   0.630922 0.270142 0.362971 -0.112751
C129  C     C_R   0.141443 0.202344 0.377449 -0.127389
C130  C     C_R   0.866352 0.776648 0.634385 -0.116644
C131  C     C_R   0.867398 0.228259 0.634633 -0.116728
C132  C     C_R   0.133082 0.777098 0.365627 -0.104497
C133  C     C_R   0.690909 0.734144 0.434737 0.027805
C134  C     C_R   0.305980 0.274140 0.560324 0.035012
C135  C     C_R   0.308048 0.732289 0.563280 0.023546
C136  C     C_R   0.689929 0.263752 0.433509 0.027898
C137  C     C_R   0.196368 0.222891 0.443418 0.036352
C138  C     C_R   0.808156 0.766867 0.564115 0.032731
C139  C     C_R   0.808610 0.235569 0.564155 0.026525
C140  C     C_R   0.191185 0.766649 0.435529 0.032533
C141  C     C_R   0.748583 0.715600 0.448697 -0.024812
C142  C     C_R   0.245154 0.290443 0.539279 -0.071413
C143  C     C_R   0.250187 0.713636 0.547900 -0.028562
C144  C     C_R   0.746567 0.282334 0.445712 -0.079143
C145  C     C_R   0.257353 0.206571 0.464828 -0.028996
C146  C     C_R   0.750344 0.785244 0.549849 -0.074849
C147  C     C_R   0.751946 0.216476 0.551066 -0.027152
C148  C     C_R   0.249049 0.785133 0.450759 -0.075261
C149  C     C_R   0.692214 0.761503 0.490536 -0.157687
C150  C     C_R   0.310544 0.238686 0.514842 -0.134246
C151  C     C_R   0.307186 0.760987 0.509177 -0.153349
C152  C     C_R   0.692677 0.238250 0.491032 -0.116770
C153  C     C_R   0.191463 0.259117 0.488008 -0.170697
C154  C     C_R   0.807060 0.739066 0.508557 -0.122577
C155  C     C_R   0.806172 0.261288 0.506961 -0.149881
C156  C     C_R   0.192122 0.738094 0.489781 -0.124754
H33   H     H_    0.679319 0.634608 0.296231 0.195352
H34   H     H_    0.296361 0.391903 0.662435 0.194612
H35   H     H_    0.317696 0.630160 0.695397 0.194791
H36   H     H_    0.673750 0.354058 0.285666 0.206457
H37   H     H_    0.206677 0.100512 0.349161 0.196740
H38   H     H_    0.817642 0.866585 0.701415 0.201567
H39   H     H_    0.824158 0.138963 0.705432 0.192985
H40   H     H_    0.181688 0.868346 0.303025 0.197742
H41   H     H_    0.588634 0.743858 0.348703 0.161448
H42   H     H_    0.407919 0.276958 0.650854 0.175490
H43   H     H_    0.410007 0.741105 0.651113 0.166877
H44   H     H_    0.587998 0.251185 0.348835 0.168189
H45   H     H_    0.094553 0.219161 0.352207 0.175067
H46   H     H_    0.910437 0.757921 0.650885 0.168142
H47   H     H_    0.910398 0.247777 0.650006 0.157604
H48   H     H_    0.089058 0.758368 0.348173 0.166217
C157  C     C_R   0.963929 0.953165 0.366900 0.164664
C158  C     C_R   0.037116 0.049671 0.634406 0.172775
C159  C     C_R   0.957754 0.962546 0.585090 0.147714
C160  C     C_R   0.042277 0.041242 0.419433 0.161510
C161  C     C_R   0.586527 0.449248 0.478632 0.191545
C162  C     C_R   0.412080 0.547825 0.517721 0.171177
C163  C     C_R   0.480629 0.459678 0.601506 0.150862
C164  C     C_R   0.526684 0.541312 0.401435 0.132947
C165  C     C_R   0.985795 0.972428 0.326429 0.164739
C166  C     C_R   0.008158 0.037632 0.669506 0.168672
C167  C     C_R   0.966639 0.994640 0.643525 0.161878
C168  C     C_R   0.023796 0.017495 0.351832 0.181013
C169  C     C_R   0.596212 0.467252 0.426549 0.173107
C170  C     C_R   0.401342 0.527631 0.568292 0.150844
C171  C     C_R   0.436195 0.483508 0.611020 0.184395
C172  C     C_R   0.570166 0.515375 0.392066 0.156029
C173  C     C_R   0.016167 0.023577 0.456668 -0.005589
C174  C     C_R   0.985459 0.977310 0.547479 0.004655
C175  C     C_R   0.014064 0.026477 0.565000 -0.015447
C176  C     C_R   0.987630 0.974495 0.437951 -0.014296
C177  C     C_R   0.517588 0.523426 0.455633 -0.006671
C178  C     C_R   0.484602 0.476561 0.543514 -0.016498
C179  C     C_R   0.460657 0.525930 0.513860 -0.005257
C180  C     C_R   0.539831 0.473259 0.484072 -0.009770
C181  C     C_R   0.017859 0.052512 0.512330 -0.139591
C182  C     C_R   0.983521 0.947941 0.490638 -0.138795
C183  C     C_R   0.486954 0.552375 0.482333 -0.130742
C184  C     C_R   0.513969 0.447418 0.516376 -0.134093
C185  C     C_3   0.931558 0.982410 0.677649 -0.798592
H49   H     H_    0.943715 0.942368 0.700342 0.247350
H50   H     H_    0.942900 0.008255 0.724126 0.248185
H51   H     H_    0.879128 0.986626 0.634938 0.263604
C186  C     C_3   0.043169 0.042268 0.306421 -0.834381
H52   H     H_    0.029393 0.083764 0.298038 0.245131
H53   H     H_    0.095592 0.038816 0.335672 0.247789
H54   H     H_    0.019239 0.025680 0.249906 0.258726
C187  C     C_3   0.972341 0.943123 0.259285 -0.773988
H55   H     H_    0.953558 0.903749 0.253602 0.260553
H56   H     H_    0.937413 0.964867 0.207636 0.269680
H57   H     H_    0.017610 0.937420 0.265029 0.235401
C188  C     C_3   0.018527 0.072254 0.731262 -0.746923
H58   H     H_    0.049963 0.105765 0.744406 0.265710
H59   H     H_    0.971831 0.089004 0.713920 0.228702
H60   H     H_    0.040364 0.049668 0.783141 0.267614
C189  C     C_3   0.424967 0.461656 0.665477 -0.846722
H61   H     H_    0.450178 0.424730 0.691003 0.240833
H62   H     H_    0.441024 0.489871 0.711227 0.255534
H63   H     H_    0.373249 0.453327 0.635815 0.257783
C190  C     C_3   0.589781 0.540350 0.346793 -0.806941
H64   H     H_    0.603675 0.581055 0.365190 0.248638
H65   H     H_    0.632363 0.521861 0.354912 0.276210
H66   H     H_    0.549673 0.539000 0.286266 0.248803
C191  C     C_3   0.629570 0.433148 0.403296 -0.795787
H67   H     H_    0.630739 0.391893 0.417410 0.245068
H68   H     H_    0.602899 0.433807 0.341550 0.253115
H69   H     H_    0.679365 0.446820 0.430934 0.279800
C192  C     C_3   0.355118 0.555702 0.578336 -0.754035
H70   H     H_    0.369468 0.596786 0.592783 0.238845
H71   H     H_    0.305962 0.553713 0.525903 0.274778
H72   H     H_    0.353271 0.540440 0.623204 0.258792
C193  C     C_3   0.907099 0.916787 0.328405 -0.774037
H73   H     H_    0.868823 0.931987 0.272479 0.271995
H74   H     H_    0.920980 0.877727 0.321719 0.262384
H75   H     H_    0.885745 0.913319 0.359179 0.204974
C194  C     C_3   0.096874 0.082868 0.673845 -0.790936
H76   H     H_    0.132017 0.068470 0.731228 0.275438
H77   H     H_    0.120651 0.081142 0.645580 0.212296
H78   H     H_    0.085620 0.123846 0.676704 0.258237
C195  C     C_3   0.911853 0.917512 0.559024 -0.738273
H79   H     H_    0.868131 0.928244 0.554507 0.229026
H80   H     H_    0.893029 0.904504 0.501882 0.223359
H81   H     H_    0.935932 0.885693 0.600383 0.267771
C196  C     C_3   0.098021 0.078608 0.456972 -0.760551
H82   H     H_    0.139185 0.060560 0.461564 0.241686
H83   H     H_    0.084579 0.114451 0.423803 0.266529
H84   H     H_    0.115408 0.088747 0.514602 0.218901
C197  C     C_3   0.634376 0.410910 0.537292 -0.851112
H85   H     H_    0.683822 0.422955 0.559723 0.247878
H86   H     H_    0.632127 0.409426 0.585565 0.217010
H87   H     H_    0.626531 0.371509 0.513547 0.258688
C198  C     C_3   0.366353 0.588606 0.462416 -0.820389
H88   H     H_    0.316280 0.575082 0.432187 0.245797
H89   H     H_    0.371607 0.625218 0.491851 0.261637
H90   H     H_    0.373346 0.596407 0.418807 0.212440
C199  C     C_3   0.533258 0.425882 0.663549 -0.716708
H91   H     H_    0.554977 0.445505 0.718137 0.251543
H92   H     H_    0.513703 0.388145 0.664332 0.258251
H93   H     H_    0.572860 0.418959 0.658310 0.225737
C200  C     C_3   0.480644 0.579130 0.340933 -0.690678
H94   H     H_    0.460577 0.562129 0.285021 0.239869
H95   H     H_    0.438466 0.587905 0.341019 0.234358
H96   H     H_    0.506581 0.615105 0.347052 0.259892
S1    S     S_3+6 0.766866 0.136858 0.055411 0.103088
O53   O     O_2   0.836639 0.122684 0.104939 -0.215478
O54   O     O_2   0.739440 0.133066 0.098785 -0.289679
O55   O     O_3   0.728139 0.096303 0.981741 -0.489714
H97   H     H_    0.697079 0.077575 0.985638 0.380117
S2    S     S_3+6 0.223300 0.863660 0.944685 0.078829
O56   O     O_2   0.251327 0.872394 0.902818 -0.230255
O57   O     O_2   0.152366 0.873203 0.893873 -0.308265
O58   O     O_3   0.257932 0.904052 0.018504 -0.506259
H98   H     H_    0.224215 0.929242 0.006943 0.393832
S3    S     S_3+6 0.220972 0.135817 0.940322 0.089056
O59   O     O_2   0.150052 0.126669 0.891599 -0.245654
O60   O     O_2   0.246603 0.127321 0.895497 -0.303108
O61   O     O_3   0.256507 0.094768 0.012561 -0.488099
H99   H     H_    0.283400 0.071641 0.005768 0.383109
S4    S     S_3+6 0.755883 0.861824 0.060290 0.077713
O62   O     O_2   0.730603 0.860329 0.106104 -0.242727
O63   O     O_2   0.824179 0.880061 0.108379 -0.320464
O64   O     O_3   0.710506 0.902428 0.988462 -0.497187
H100  H     H_    0.739743 0.930207 0.995427 0.395775
S5    S     S_3+6 0.276615 0.636344 0.055198 0.097766
O65   O     O_2   0.347318 0.625964 0.104535 -0.226244
O66   O     O_2   0.249698 0.628272 0.098455 -0.292065
O67   O     O_3   0.241078 0.596107 0.981143 -0.494047
H101  H     H_    0.218375 0.570344 0.990059 0.384475
S6    S     S_3+6 0.733213 0.363100 0.944814 0.082726
O68   O     O_2   0.759712 0.367316 0.900556 -0.243918
O69   O     O_2   0.663310 0.377133 0.896308 -0.298938
O70   O     O_3   0.773446 0.403214 0.018856 -0.501111
H102  H     H_    0.744772 0.433336 0.005852 0.399551
S7    S     S_3+6 0.744654 0.639798 0.941092 0.105725
O71   O     O_2   0.676599 0.621225 0.891724 -0.207195
O72   O     O_2   0.771686 0.641307 0.897058 -0.290638
O73   O     O_3   0.788378 0.599433 0.013652 -0.489669
H103  H     H_    0.817701 0.581171 0.005616 0.383555
S8    S     S_3+6 0.277104 0.362853 0.058259 0.090995
O74   O     O_2   0.253346 0.371320 0.104967 -0.234478
O75   O     O_2   0.347890 0.372804 0.104829 -0.283006
O76   O     O_3   0.238296 0.403235 0.985204 -0.507326
H104  H     H_    0.270653 0.428589 0.994377 0.396641
S9    S     S_3+6 0.685044 0.314308 0.057627 0.097019
O77   O     O_2   0.673133 0.279759 0.102014 -0.231796
O78   O     O_2   0.728465 0.357681 0.106706 -0.280702
O79   O     O_3   0.614820 0.338198 0.984922 -0.492844
H105  H     H_    0.618138 0.376234 0.991926 0.394808
S10   S     S_3+6 0.320887 0.694658 0.943309 0.090166
O80   O     O_2   0.281974 0.649817 0.893790 -0.237416
O81   O     O_2   0.330198 0.732781 0.900100 -0.291300
O82   O     O_3   0.392427 0.673409 0.016621 -0.496091
H106  H     H_    0.417610 0.666808 0.996964 0.385147
S11   S     S_3+6 0.321677 0.303661 0.945615 0.093564
O83   O     O_2   0.328819 0.266413 0.898645 -0.231656
O84   O     O_2   0.284030 0.350069 0.899837 -0.288194
O85   O     O_3   0.394666 0.321832 0.019806 -0.495512
H107  H     H_    0.398292 0.358909 0.012326 0.395222
S12   S     S_3+6 0.690756 0.677278 0.054231 0.095928
O86   O     O_2   0.737769 0.635287 0.101943 -0.221596
O87   O     O_2   0.675196 0.708393 0.099253 -0.305569
O88   O     O_3   0.623632 0.650537 0.979989 -0.486570
H108  H     H_    0.590076 0.656721 0.987728 0.376717
S13   S     S_3+6 0.179652 0.805368 0.057658 0.094266
O89   O     O_2   0.170968 0.767490 0.101607 -0.227005
O90   O     O_2   0.219038 0.850093 0.107202 -0.284695
O91   O     O_3   0.107399 0.826384 0.985240 -0.492395
H109  H     H_    0.111832 0.864239 0.983877 0.392373
S14   S     S_3+6 0.815362 0.185653 0.942800 0.093808
O92   O     O_2   0.772281 0.142401 0.893106 -0.222121
O93   O     O_2   0.827832 0.220723 0.899310 -0.308384
O94   O     O_3   0.884795 0.160962 0.015858 -0.486468
H110  H     H_    0.917537 0.170475 0.008254 0.377592
S15   S     S_3+6 0.808881 0.824642 0.946017 0.092130
O95   O     O_2   0.823264 0.794281 0.899431 -0.228513
O96   O     O_2   0.761923 0.867124 0.899777 -0.295823
O97   O     O_3   0.877265 0.849976 0.020199 -0.498251
H111  H     H_    0.871805 0.888010 0.014264 0.392905
S16   S     S_3+6 0.176854 0.194954 0.053551 0.096992
O98   O     O_2   0.214704 0.149376 0.101358 -0.221530
O99   O     O_2   0.168015 0.233213 0.098193 -0.296309
O100  O     O_3   0.105059 0.174918 0.979024 -0.494235
H112  H     H_    0.074543 0.182930 0.990934 0.379732
S17   S     S_3+6 0.799328 0.623489 0.430284 0.073602
O101  O     O_2   0.856878 0.629762 0.509820 -0.290433
O102  O     O_2   0.766922 0.573434 0.422853 -0.246613
O103  O     O_3   0.821421 0.620597 0.372733 -0.481374
H113  H     H_    0.797610 0.648773 0.336141 0.343568
S18   S     S_3+6 0.177862 0.382216 0.523556 0.050624
O104  O     O_2   0.162556 0.400265 0.575728 -0.235552
O105  O     O_2   0.199830 0.428248 0.503823 -0.270067
O106  O     O_3   0.111603 0.358557 0.445040 -0.579888
H114  H     H_    0.122470 0.355513 0.409344 0.349738
S19   S     S_3+6 0.197065 0.622004 0.560306 0.065789
O107  O     O_2   0.138589 0.630967 0.482204 -0.293599
O108  O     O_2   0.227007 0.571525 0.561934 -0.258287
O109  O     O_3   0.177028 0.617170 0.619476 -0.477204
H115  H     H_    0.195459 0.647961 0.652509 0.349101
S20   S     S_3+6 0.792751 0.372461 0.419454 0.053967
O110  O     O_2   0.817353 0.368345 0.373118 -0.207381
O111  O     O_2   0.757371 0.422880 0.401088 -0.294460
O112  O     O_3   0.854217 0.372617 0.510477 -0.554689
H116  H     H_    0.834264 0.378272 0.536610 0.344807
S21   S     S_3+6 0.327430 0.115866 0.480046 0.061826
O113  O     O_2   0.387992 0.139540 0.545395 -0.321616
O114  O     O_2   0.310941 0.070456 0.507050 -0.224380
O115  O     O_3   0.337907 0.093806 0.416528 -0.495622
H117  H     H_    0.321997 0.121729 0.379253 0.350838
S22   S     S_3+6 0.698418 0.877424 0.564580 0.057948
O116  O     O_2   0.678372 0.881213 0.615489 -0.221254
O117  O     O_2   0.730210 0.927340 0.570104 -0.273303
O118  O     O_3   0.633805 0.869201 0.475992 -0.562515
H118  H     H_    0.650239 0.871946 0.445761 0.347928
S23   S     S_3+6 0.704106 0.124903 0.571680 0.078731
O119  O     O_2   0.647110 0.129140 0.491679 -0.286642
O120  O     O_2   0.738145 0.074856 0.581492 -0.232735
O121  O     O_3   0.680677 0.123993 0.627912 -0.485013
H119  H     H_    0.703375 0.152945 0.663718 0.344694
S24   S     S_3+6 0.301388 0.877233 0.439523 0.062726
O122  O     O_2   0.321481 0.880683 0.388749 -0.230015
O123  O     O_2   0.269991 0.927546 0.435519 -0.266328
O124  O     O_3   0.365956 0.868370 0.527813 -0.560129
H120  H     H_    0.349797 0.872243 0.558303 0.352529

loop_
_geom_bond_atom_site_label_1
_geom_bond_atom_site_label_2
_geom_bond_distance
_ccdc_geom_bond_type
C145  C150  1.421072 A    
C111  H35   1.082930 S    
C199  H91   1.111358 S    
Zn8   O10   1.914521 S    
S13   O89   1.502879 D    
Zn6   O42   1.944089 S    
C158  C166  1.406024 A    
C79   C87   1.537412 S    
S24   O122  1.502790 D    
C134  C150  1.414085 A    
C38   C39   1.381529 A    
C193  H73   1.110532 S    
C165  C168  1.414573 A    
C166  C167  1.416122 A    
C138  C154  1.409781 A    
C29   H13   1.078941 S    
S12   O86   1.504983 D    
C105  C145  1.432273 A    
O42   C14   1.271209 A    
S15   O97   1.684750 S    
C185  H51   1.111407 S    
S21   O115  1.683230 S    
O46   C2    1.280158 A    
O24   C18   1.277597 A    
C58   C62   1.549782 S    
C34   C35   1.382278 A    
C128  H44   1.082614 S    
C129  H45   1.081767 S    
C54   C82   1.537379 S    
C8    C74   1.422302 S    
H5    C39   1.084250 S    
C63   H19   1.112776 S    
C56   C68   1.551689 S    
C57   C61   1.548228 S    
C58   C78   1.538111 S    
Zn4   O2    1.931214 S    
C106  C114  1.402084 A    
C195  H80   1.109127 S    
C162  C198  1.521706 S    
Zn4   O40   1.936399 S    
C9    C156  1.493308 S    
O33   C23   1.273143 A    
O11   C7    1.273696 A    
Zn7   O43   1.936397 S    
O55   H97   0.991443 S    
C198  H89   1.108498 S    
C194  H76   1.109075 S    
O25   C19   1.298833 A    
C200  H96   1.113441 S    
O112  H116  0.990111 S    
H3    C33   1.084731 S    
C170  C192  1.519609 S    
C63   C84   1.551492 S    
C179  C183  1.419192 A    
C130  H46   1.082853 S    
C147  C152  1.427410 A    
Zn12  O24   1.940197 S    
C189  H63   1.111875 S    
C116  C124  1.385679 A    
C53   C81   1.538056 S    
S23   O120  1.503236 D    
Zn10  O14   1.929718 S    
C109  H33   1.083276 S    
C62   H18   1.111169 S    
C82   S13   1.782507 S    
Zn16  O4    1.932268 S    
C104  C112  1.401888 A    
C57   C77   1.537082 S    
C137  C145  1.416114 A    
C7    C73   1.422351 S    
C20   C183  1.496048 S    
C81   S14   1.783768 S    
C196  H84   1.109039 S    
C135  C143  1.415906 A    
O30   C22   1.260677 A    
H25   C122  1.082258 S    
C78   C86   1.536423 S    
C199  H93   1.112355 S    
Zn7   O3    1.931217 S    
C77   C85   1.535303 S    
C139  C155  1.412218 A    
S13   O91   1.683472 S    
S1    O55   1.683894 S    
O23   C17   1.271500 A    
C129  C137  1.411751 A    
H29   C118  1.082188 S    
S24   O124  1.683072 S    
Zn8   O34   1.931973 S    
O88   H108  0.992982 S    
C194  H78   1.108249 S    
C125  C133  1.412319 A    
C83   C91   1.537239 S    
C28   C41   1.424721 A    
C193  H75   1.111615 S    
C84   C92   1.538447 S    
C60   C80   1.537639 S    
C3    C69   1.422852 S    
C16   C149  1.489380 S    
S12   O88   1.684525 S    
C26   H10   1.076235 S    
O43   C15   1.273720 A    
C72   C96   1.198043 T    
C107  C147  1.435757 A    
S3    O59   1.502867 D    
C18   C181  1.497613 S    
C75   C99   1.199110 T    
O70   H102  0.991555 S    
C76   C100  1.199039 T    
Zn10  O22   1.928623 S    
C109  C117  1.384151 A    
C59   C92   1.538556 S    
C173  C181  1.419188 A    
S1    O53   1.503483 D    
O103  H113  0.993610 S    
C127  H43   1.082819 S    
H27   C124  1.082150 S    
Zn10  O2    1.955248 S    
Zn3   O1    1.931217 S    
S17   O101  1.504651 D    
S14   O93   1.504859 D    
C86   C94   1.454035 S    
C63   C87   1.551016 S    
C190  H64   1.109512 S    
C113  H37   1.083967 S    
S19   O108  1.502655 D    
Zn5   O35   1.934152 S    
C90   C98   1.453809 S    
C31   C46   1.428718 A    
Zn6   O36   1.934152 S    
O61   H99   0.990601 S    
S9    O77   1.503555 D    
C118  C126  1.388437 A    
C26   C43   1.426909 A    
C163  C171  1.422430 A    
S4    O62   1.504883 D    
S15   O96   1.506262 D    
S18   O105  1.503419 D    
C197  H85   1.112548 S    
C105  S21   1.773912 S    
C82   C90   1.535890 S    
C108  C148  1.433529 A    
S2    O56   1.502874 D    
O22   C18   1.294386 A    
Zn9   O45   1.902108 S    
C10   C155  1.488893 S    
C29   C37   1.388856 A    
Zn11  O47   1.905622 S    
Zn12  O48   1.905621 S    
C188  H59   1.114938 S    
S18   O106  1.681941 S    
C102  C142  1.429539 A    
C158  C194  1.520317 S    
C62   C86   1.549427 S    
C191  H68   1.116147 S    
Zn1   O37   1.944092 S    
Zn5   O11   1.908517 S    
Zn3   O39   1.936397 S    
C11   C154  1.491414 S    
Zn6   O12   1.908517 S    
S11   O83   1.503178 D    
O67   H101  0.990119 S    
C186  H53   1.109836 S    
C31   H15   1.073658 S    
S11   O84   1.504525 D    
S5    O67   1.684193 S    
C159  C167  1.435572 A    
C107  S23   1.776878 S    
O35   C23   1.257323 A    
O32   C22   1.268570 A    
C192  H71   1.109487 S    
C103  C111  1.401785 A    
C157  C193  1.519576 S    
C113  C121  1.384199 A    
C136  C152  1.412030 A    
C101  C109  1.403316 A    
C164  C177  1.442088 A    
C169  C191  1.516003 S    
C187  H56   1.110578 S    
C140  C156  1.411918 A    
O109  H115  0.991562 S    
C27   C42   1.425926 A    
S2    O58   1.683965 S    
H8    C38   1.083351 S    
S9    O79   1.683501 S    
C115  C123  1.384348 A    
C28   C36   1.389166 A    
S22   O116  1.502881 D    
C160  C168  1.416188 A    
C161  C169  1.409209 A    
Zn13  O17   1.929716 S    
O5    C1    1.282333 A    
C83   S16   1.784834 S    
C67   H23   1.112234 S    
S17   O103  1.685785 S    
C104  S20   1.775728 S    
Zn4   O6    1.914521 S    
C47   C51   1.419859 A    
O124  H120  0.990307 S    
C54   S2    1.781403 S    
C190  H66   1.114527 S    
Zn15  O51   1.905622 S    
O79   H105  0.991654 S    
S10   O80   1.503306 D    
C134  C142  1.414833 A    
S4    O64   1.684434 S    
C160  C173  1.426430 A    
C197  H87   1.107031 S    
O51   C7    1.273009 A    
C24   C51   1.450428 S    
O91   H109  0.990743 S    
O8    C4    1.273696 A    
S3    O61   1.683620 S    
Zn9   O1    1.955248 S    
S22   O118  1.683528 S    
Zn16  O28   1.940197 S    
C25   C44   1.428448 A    
C101  S17   1.775370 S    
S8    O74   1.503054 D    
C159  C174  1.445278 A    
S24   O123  1.503829 D    
Zn14  O18   1.929718 S    
C67   C91   1.550383 S    
Zn13  O25   1.928624 S    
C27   C35   1.390202 A    
O52   C8    1.272830 A    
C111  C119  1.385374 A    
Zn1   O1    1.926852 S    
O40   C12   1.274724 A    
C106  S22   1.772486 S    
S12   O87   1.506369 D    
Zn15  O27   1.940196 S    
Zn16  O20   1.935754 S    
C167  C185  1.527889 S    
C163  C199  1.520313 S    
C161  C197  1.523115 S    
C55   C67   1.550338 S    
S21   O114  1.502617 D    
O9    C5    1.282048 A    
O121  H119  0.991984 S    
Zn3   O5    1.914521 S    
C81   C89   1.536593 S    
C30   H14   1.078739 S    
O13   C9    1.294435 A    
O115  H117  0.992518 S    
C122  C130  1.387555 A    
C199  H92   1.110357 S    
C142  C153  1.421784 A    
C4    C70   1.422266 S    
C164  C200  1.518024 S    
O18   C14   1.294079 A    
S5    O66   1.504005 D    
C54   C85   1.535818 S    
C41   C49   1.419639 A    
O6    C2    1.282660 A    
C117  C125  1.385843 A    
C172  C190  1.523935 S    
C146  C149  1.428409 A    
C25   H9    1.075199 S    
O82   H106  0.990506 S    
S1    O54   1.504876 D    
C176  C182  1.424691 A    
C174  C182  1.444228 A    
C32   C45   1.428301 A    
C5    C75   1.424450 S    
C6    C76   1.424390 S    
C198  H88   1.109844 S    
C133  C149  1.406081 A    
C66   C90   1.548261 S    
Zn15  O3    1.932265 S    
C200  H95   1.115726 S    
C19   C184  1.492636 S    
C137  C153  1.416482 A    
C106  C146  1.433253 A    
C165  C187  1.515007 S    
C45   C51   1.425615 A    
C177  C180  1.411502 A    
C178  C179  1.404839 A    
S7    O73   1.684708 S    
C44   C50   1.425988 A    
C195  H81   1.115435 S    
C87   C95   1.454714 S    
C25   C33   1.392219 A    
O16   C12   1.281900 A    
C173  C176  1.406338 A    
C85   C93   1.453946 S    
S16   O98   1.503058 D    
C120  C128  1.386562 A    
C139  C147  1.411781 A    
C174  C175  1.409933 A    
C189  H62   1.109982 S    
O97   H111  0.992410 S    
C69   C93   1.197843 T    
C58   S6    1.783202 S    
C104  C144  1.438773 A    
C89   C97   1.454050 S    
C53   C86   1.536632 S    
C73   C97   1.197929 T    
C92   C100  1.455982 S    
C196  H83   1.110572 S    
O29   C21   1.260661 A    
C48   C52   1.420167 A    
C55   S3    1.785020 S    
C80   C88   1.536008 S    
C193  H74   1.107311 S    
C60   C91   1.537517 S    
C105  C113  1.400315 A    
S19   O107  1.504191 D    
C64   C88   1.549047 S    
C65   C89   1.549880 S    
S13   O90   1.504220 D    
Zn10  O46   1.902110 S    
S8    O76   1.683960 S    
C194  H77   1.111782 S    
C123  C131  1.386816 A    
C21   C50   1.450754 S    
C185  H50   1.110535 S    
S2    O57   1.503506 D    
C12   C153  1.494369 S    
Zn13  O3    1.955248 S    
Zn14  O4    1.955248 S    
C116  H40   1.083153 S    
C77   S10   1.781171 S    
C23   C52   1.450921 S    
C41   C44   1.407985 A    
O19   C15   1.282322 A    
Zn1   O31   1.934152 S    
Zn4   O30   1.931973 S    
Zn2   O32   1.934152 S    
C195  H79   1.109802 S    
H4    C34   1.084499 S    
Zn3   O29   1.931973 S    
C143  C156  1.427765 A    
C29   C48   1.424952 A    
C2    C72   1.422820 S    
O37   C9    1.270723 A    
C164  C172  1.422771 A    
O7    C3    1.273836 A    
O39   C11   1.259561 A    
C112  C120  1.384491 A    
C138  C146  1.414068 A    
C107  C115  1.401839 A    
S14   O94   1.683588 S    
H1    C35   1.084020 S    
H26   C121  1.081821 S    
C43   C49   1.423061 A    
C125  H41   1.083156 S    
C15   C150  1.493938 S    
Zn2   O38   1.944089 S    
C26   C34   1.391138 A    
H30   C117  1.082350 S    
C13   C152  1.489424 S    
O12   C8    1.273699 A    
C198  H90   1.109450 S    
S4    O63   1.506192 D    
S5    O65   1.501726 D    
C80   S11   1.784981 S    
C57   S5    1.781267 S    
Zn11  O1    1.932265 S    
C162  C170  1.416892 A    
C114  H38   1.082950 S    
C84   S15   1.786278 S    
C185  H49   1.116498 S    
C159  C195  1.519325 S    
C126  C134  1.411761 A    
H7    C37   1.083278 S    
S6    O69   1.504813 D    
S7    O71   1.504940 D    
C102  S18   1.773131 S    
S6    O68   1.503576 D    
Zn5   O3    1.926852 S    
C110  H34   1.083291 S    
Zn6   O4    1.926853 S    
C160  C196  1.518162 S    
C66   H22   1.110862 S    
C56   S4    1.786619 S    
S16   O100  1.683963 S    
Zn5   O41   1.944092 S    
C157  C165  1.415510 A    
C32   C40   1.392253 A    
S9    O78   1.504971 D    
C59   C79   1.539378 S    
Zn8   O44   1.936399 S    
S23   O121  1.684923 S    
C188  H58   1.108682 S    
C161  C180  1.422228 A    
C162  C179  1.423670 A    
C22   C49   1.448922 S    
C112  H36   1.083260 S    
C46   C52   1.426287 A    
C191  H67   1.111876 S    
C166  C188  1.518476 S    
H28   C123  1.082027 S    
C180  C184  1.416411 A    
C58   C89   1.536786 S    
S20   O110  1.502574 D    
C186  H52   1.110927 S    
C28   H12   1.077742 S    
C121  C129  1.386754 A    
C140  C148  1.415743 A    
H32   C119  1.082338 S    
C64   H20   1.112386 S    
C119  C127  1.387136 A    
C65   H21   1.111321 S    
O38   C10   1.264801 A    
O50   C6    1.281667 A    
C68   H24   1.112740 S    
Zn2   O2    1.926853 S    
S7    O72   1.506321 D    
C192  H70   1.109741 S    
C171  C189  1.521008 S    
C55   C83   1.538226 S    
O76   H104  0.990968 S    
C135  C151  1.412014 A    
C60   C64   1.549474 S    
C79   S12   1.786267 S    
S6    O70   1.683400 S    
C101  C141  1.436142 A    
Zn13  O49   1.902108 S    
C187  H55   1.107445 S    
C54   C66   1.548250 S    
C59   C63   1.550997 S    
Zn8   O4    1.931214 S    
C30   C38   1.388782 A    
O21   C17   1.302447 A    
C32   H16   1.073795 S    
C169  C172  1.410576 A    
C59   S7    1.785813 S    
C124  C132  1.387390 A    
C170  C171  1.419298 A    
S22   O117  1.504270 D    
C66   C77   1.548648 S    
C103  C143  1.434538 A    
C62   C81   1.550137 S    
C56   C87   1.538287 S    
O49   C5    1.281771 A    
C115  H39   1.083423 S    
C71   C95   1.198213 T    
C57   C90   1.535312 S    
H2    C36   1.083519 S    
S17   O102  1.505173 D    
C42   C43   1.408243 A    
C45   C48   1.407826 A    
C55   C88   1.536998 S    
C60   S8    1.784114 S    
S14   O92   1.503678 D    
C190  H65   1.111578 S    
C144  C155  1.433042 A    
C131  H47   1.082503 S    
C30   C47   1.424739 A    
S19   O109  1.684461 S    
C132  H48   1.082382 S    
Zn16  O52   1.905621 S    
C157  C176  1.422400 A    
C68   C92   1.551949 S    
C158  C175  1.414347 A    
S10   O81   1.503621 D    
C148  C151  1.427092 A    
C56   C84   1.540177 S    
Zn14  O26   1.928623 S    
C37   C40   1.381643 A    
C61   H17   1.111014 S    
S18   O104  1.501492 D    
Zn11  O15   1.935756 S    
C108  C116  1.401713 A    
Zn12  O16   1.935754 S    
O31   C21   1.269841 A    
C88   C96   1.454606 S    
C189  H61   1.106638 S    
C102  C110  1.401071 A    
Zn15  O19   1.935756 S    
S3    O60   1.504315 D    
C64   C83   1.550299 S    
C65   C78   1.550069 S    
C14   C151  1.492850 S    
Zn7   O33   1.931973 S    
S10   O82   1.681800 S    
S8    O75   1.504463 D    
C33   C36   1.382201 A    
S23   O119  1.502942 D    
C70   C94   1.197889 T    
C68   C79   1.551545 S    
C188  H60   1.110552 S    
O118  H118  0.990464 S    
C67   C80   1.550238 S    
C74   C98   1.197756 T    
C177  C183  1.442707 A    
C191  H69   1.111660 S    
C178  C184  1.426682 A    
C103  S19   1.777814 S    
C168  C186  1.519755 S    
H6    C40   1.084280 S    
C17   C182  1.502215 S    
S20   O112  1.682234 S    
C186  H54   1.105914 S    
Zn9   O21   1.928624 S    
S21   O113  1.502084 D    
Zn14  O50   1.902110 S    
S11   O85   1.684000 S    
Zn7   O9    1.914521 S    
C61   C82   1.549097 S    
Zn11  O23   1.940196 S    
C31   C39   1.392361 A    
C126  H42   1.081966 S    
C133  C141  1.414917 A    
C53   C65   1.549981 S    
Zn1   O7    1.908517 S    
O26   C20   1.306788 A    
Zn2   O8    1.908517 S    
C192  H72   1.106171 S    
O41   C13   1.267999 A    
C130  C138  1.413066 A    
C114  C122  1.385590 A    
C108  S24   1.773373 S    
C61   C85   1.549065 S    
S20   O111  1.502055 D    
O85   H107  0.990954 S    
C187  H57   1.111334 S    
O45   C1    1.280637 A    
O34   C24   1.272573 A    
H31   C120  1.082196 S    
C1    C71   1.422894 S    
O47   C3    1.272940 A    
C131  C139  1.412583 A    
C91   C99   1.455752 S    
O15   C11   1.293559 A    
Zn9   O13   1.929716 S    
C163  C178  1.428958 A    
C127  C135  1.412388 A    
C200  H94   1.113919 S    
C110  C118  1.386634 A    
O27   C19   1.269689 A    
C136  C144  1.414746 A    
C196  H82   1.108815 S    
O100  H112  0.991378 S    
O58   H98   0.990772 S    
C53   S1    1.783590 S    
O44   C16   1.259113 A    
C27   H11   1.077192 S    
O20   C16   1.292532 A    
O10   C6    1.282089 A    
S16   O99   1.504350 D    
O48   C4    1.273010 A    
O106  H114  0.990275 S    
C175  C181  1.413133 A    
C128  C136  1.412569 A    
O36   C24   1.257802 A    
S15   O95   1.505062 D    
O14   C10   1.299592 A    
C197  H86   1.111822 S    
O94   H110  0.992671 S    
Zn12  O2    1.932268 S    
C132  C140  1.412463 A    
C78   S9    1.784138 S    
O73   H103  0.992414 S    
C141  C154  1.433605 A    
C42   C50   1.422392 A    
C46   C47   1.407722 A    
O28   C20   1.264035 A    
O17   C13   1.296429 A    
O64   H100  0.992742 S    
