data_mof_unit_46976.cif
_audit_creation_date              2012-12-10T17:03:40-0500
_audit_creation_method            fapswitch 2.2
_symmetry_space_group_name_H-M    P1
_symmetry_Int_Tables_number       1
_space_group_crystal_system       triclinic
_cell_length_a                    10.214183
_cell_length_b                    10.859879
_cell_length_c                    13.482252
_cell_angle_alpha                 90.332877
_cell_angle_beta                  73.686497
_cell_angle_gamma                 88.232528
_cell_volume                      1434.45903069

loop_
_atom_site_label
_atom_site_type_symbol
_atom_type_description
_atom_site_fract_x
_atom_site_fract_y
_atom_site_fract_z
_atom_type_partial_charge
C1    C     C_R   0.494421 0.736949 0.504912 0.878090
C2    C     C_R   0.431651 0.523355 0.983018 0.015582
C3    C     C_R   0.470988 0.534491 0.874417 0.025124
C4    C     C_R   0.532097 0.542785 0.036590 0.098929
C5    C     C_R   0.664203 0.578463 0.981533 -0.020667
C6    C     C_R   0.702687 0.559115 0.876311 0.178262
C7    C     C_R   0.602245 0.578665 0.828212 -0.161157
C8    C     C_R   0.512983 0.510532 0.138634 -0.201464
C9    C     C_R   0.726394 0.604471 0.140610 0.137633
C10   C     C_R   0.383504 0.494142 0.816433 -0.159762
C11   C     C_2   0.494561 0.071199 0.585173 -0.097629
C12   C     C_R   0.425825 0.499199 0.702172 0.930227
C13   C     C_2   0.518486 0.133634 0.495737 -0.100784
C14   C     C_2   0.517595 0.937751 0.581218 0.130250
C15   C     C_2   0.469203 0.868957 0.517027 -0.221636
C16   C     C_2   0.084171 0.405598 0.476479 0.048755
C17   C     C_2   0.947829 0.417936 0.454505 0.142352
C18   C     C_R   0.503814 0.264184 0.497686 0.942047
C19   C     C_R   0.573175 0.509627 0.299743 0.907076
C20   C     C_R   0.758678 0.617428 0.032884 -0.065294
C21   C     C_R   0.609028 0.538748 0.190688 -0.112425
C22   C     C_R   0.261258 0.435836 0.868893 0.163276
C23   C     C_R   0.213590 0.443461 0.977337 0.127467
C24   C     C_R   0.293757 0.499059 0.033316 -0.139786
H1    H     H_    0.425178 0.458543 0.177384 0.191449
H2    H     H_    0.635064 0.616923 0.753125 0.205565
N1    N     N_2   0.148270 0.498670 0.498870 -0.077457
N2    N     N_2   0.852610 0.498640 0.498840 -0.189902
O1    O     O_R   0.386950 0.680940 0.500020 -0.601538
O2    O     O_R   0.613110 0.680900 0.499980 -0.565260
O3    O     O_R   0.330780 0.500000 0.653640 -0.586678
O4    O     O_R   0.556930 0.499960 0.653610 -0.628209
O5    O     O_R   0.386890 0.319100 0.500020 -0.613352
O6    O     O_R   0.613050 0.319060 0.499980 -0.582201
O7    O     O_R   0.443070 0.500040 0.346390 -0.603723
O8    O     O_R   0.669220 0.500000 0.346360 -0.589264
Zn1   Zn    Zn3+2 0.349000 0.500030 0.500020 1.084769
Zn2   Zn    Zn3+2 0.651000 0.499970 0.499980 1.073180
I1    I     I_    0.852406 0.687315 0.224367 -0.130566
I2    I     I_    0.633944 0.062243 0.347040 -0.159895
I3    I     I_    0.611517 0.867094 0.691337 -0.173971
C25   C     C_2   0.354780 0.918017 0.477727 0.926745
O9    O     O_2   0.356207 0.898339 0.387984 -0.576839
O10   O     O_R   0.240885 0.976147 0.546357 -0.732562
H3    H     H_    0.162921 0.989544 0.514428 0.377734
C26   C     C_2   0.141788 0.280611 0.474670 0.974360
O11   O     O_2   0.113869 0.220219 0.553504 -0.561111
O12   O     O_R   0.225665 0.230882 0.381796 -0.757517
H4    H     H_    0.260334 0.144129 0.389244 0.361890
I4    I     I_    0.127616 0.664674 0.425057 -0.100762
I5    I     I_    0.910844 0.292806 0.345710 -0.083315
C27   C     C_2   0.865568 0.570285 0.584111 1.006640
O13   O     O_2   0.829344 0.678405 0.590416 -0.579211
O14   O     O_R   0.924038 0.520630 0.657552 -0.791450
H5    H     H_    0.938415 0.585476 0.707509 0.372335
I6    I     I_    0.778147 0.373835 0.847806 -0.098956
C28   C     C_2   0.886321 0.676195 0.974416 0.949959
O15   O     O_2   0.967335 0.620684 0.902798 -0.617870
O16   O     O_R   0.911917 0.796456 0.999451 -0.729921
H6    H     H_    0.001690 0.826424 0.953922 0.373889
I7    I     I_    0.152294 0.325891 0.787837 -0.058957
C29   C     C_2   0.225809 0.562153 0.132534 0.953985
O17   O     O_2   0.155738 0.505671 0.205367 -0.582538
O18   O     O_R   0.243656 0.688474 0.141282 -0.747421
H7    H     H_    0.185130 0.726224 0.208376 0.381080
I8    I     I_    0.020120 0.371432 0.056687 -0.138502
C30   C     C_2   0.448314 0.131016 0.689438 0.981137
O19   O     O_2   0.495005 0.228559 0.706419 -0.633696
O20   O     O_R   0.357960 0.070135 0.770205 -0.728473
H8    H     H_    0.340610 0.115137 0.839017 0.361931

loop_
_geom_bond_atom_site_label_1
_geom_bond_atom_site_label_2
_ccdc_geom_bond_type
C2    C4    A    
C23   C24   A    
C6    C7    A    
N2    C27   S    
O4    Zn2   S    
C18   O6    A    
O14   H5    S    
C9    C20   A    
C29   O18   S    
C14   C15   D    
N1    I4    S    
N2    Zn2   S    
C4    C8    A    
O18   H7    S    
C17   I5    S    
C16   N1    D    
O8    Zn2   S    
C2    C3    A    
O16   H6    S    
C5    C20   A    
C19   O7    A    
C12   O4    A    
C22   I7    S    
C6    I6    S    
C8    H1    S    
C11   C13   D    
C9    C21   A    
C28   O15   D    
C29   O17   D    
C7    H2    S    
C25   O10   S    
C13   C18   S    
N1    Zn1   S    
C14   I3    S    
C1    C15   S    
C5    C6    A    
C10   C12   S    
C23   I8    S    
C1    O1    A    
O12   H4    S    
C19   C21   S    
C27   O14   S    
C8    C21   A    
C3    C7    A    
C19   O8    A    
C12   O3    A    
C2    C24   A    
O20   H8    S    
C18   O5    A    
C26   O12   S    
C28   O16   S    
C16   C17   S    
C25   O9    D    
O1    Zn1   S    
C30   O19   D    
C9    I1    S    
C27   O13   D    
O2    Zn2   S    
O5    Zn1   S    
C16   C26   S    
C11   C14   S    
C3    C10   A    
C22   C23   A    
C1    O2    A    
C13   I2    S    
C24   C29   S    
O7    Zn1   S    
C20   C28   S    
C26   O11   D    
C17   N2    D    
C10   C22   A    
O10   H3    S    
O3    Zn1   S    
C15   C25   S    
C11   C30   S    
C4    C5    A    
C30   O20   S    
O6    Zn2   S    
