data_mof_unit_64626.cif
_audit_creation_date              2012-12-10T19:18:36-0500
_audit_creation_method            fapswitch 2.2
_symmetry_space_group_name_H-M    P1
_symmetry_Int_Tables_number       1
_space_group_crystal_system       triclinic
_cell_length_a                    14.760715
_cell_length_b                    16.002888
_cell_length_c                    17.331572
_cell_angle_alpha                 89.993827
_cell_angle_beta                  86.234381
_cell_angle_gamma                 90.007388
_cell_volume                      4085.12245322

loop_
_atom_site_label
_atom_site_type_symbol
_atom_type_description
_atom_site_fract_x
_atom_site_fract_y
_atom_site_fract_z
_atom_type_partial_charge
C1    C     C_R   0.500026 0.659141 0.499975 0.808629
C2    C     C_R   0.499974 0.340859 0.500025 0.808631
C3    C     C_R   0.419014 0.043606 0.491157 0.512720
C4    C     C_R   0.580986 0.956394 0.508843 0.512718
C5    C     C_R   0.499985 0.087271 0.499997 -0.342270
C6    C     C_R   0.500015 0.912729 0.500003 -0.342269
C7    C     C_R   0.580971 0.043646 0.508840 0.510833
C8    C     C_R   0.419029 0.956354 0.491160 0.510832
C9    C     C_1   0.499970 0.176780 0.500003 0.238013
C10   C     C_1   0.500030 0.823220 0.499997 0.238011
C11   C     C_1   0.500035 0.748210 0.499988 -0.110864
C12   C     C_1   0.499965 0.251790 0.500012 -0.110860
C13   C     C_R   0.053073 0.489266 0.430717 0.672679
C14   C     C_R   0.946927 0.510733 0.569283 0.672676
C15   C     C_R   0.097145 0.499957 0.499785 -0.169596
C16   C     C_R   0.902855 0.500043 0.500214 -0.169594
C17   C     C_R   0.042769 0.510671 0.568931 -0.298931
C18   C     C_R   0.957231 0.489329 0.431069 -0.298930
C19   C     C_1   0.197288 0.499971 0.499942 0.300993
C20   C     C_1   0.802712 0.500028 0.500058 0.300992
C21   C     C_R   0.488555 0.501732 0.650336 0.860678
C22   C     C_R   0.511444 0.498268 0.349664 0.860680
C23   C     C_R   0.483447 0.508050 0.734636 -0.188623
C24   C     C_R   0.516552 0.491951 0.265364 -0.188640
C25   C     C_R   0.562063 0.527388 0.772230 -0.267935
C26   C     C_R   0.437934 0.472616 0.227771 -0.267894
C27   C     C_R   0.559621 0.532704 0.853037 0.440960
C28   C     C_R   0.440373 0.467304 0.146965 0.440959
C29   C     C_R   0.476018 0.520590 0.895622 -0.087032
C30   C     C_R   0.523976 0.479414 0.104378 -0.087056
C31   C     C_R   0.396765 0.504519 0.857808 0.612710
C32   C     C_R   0.603231 0.495483 0.142189 0.612715
C33   C     C_R   0.400620 0.497667 0.777691 -0.246405
C34   C     C_R   0.599378 0.502334 0.222307 -0.246407
C35   C     C_2   0.470610 0.521819 0.980168 -0.038481
C36   C     C_2   0.529382 0.478184 0.019831 -0.038474
Cu1   Cu    Cu3+1 0.410780 0.500000 0.499980 1.033998
Cu2   Cu    Cu3+1 0.589220 0.500000 0.500020 1.033997
H1    H     H_    0.624874 0.540107 0.738563 0.195754
H2    H     H_    0.375122 0.459899 0.261438 0.195771
H3    H     H_    0.660968 0.516198 0.250524 0.199330
H4    H     H_    0.339031 0.483802 0.749473 0.199330
H5    H     H_    0.584895 0.444194 0.989964 0.186463
H6    H     H_    0.415098 0.555812 0.010033 0.186437
H7    H     H_    0.925413 0.480962 0.377031 0.199102
H8    H     H_    0.074587 0.519038 0.622969 0.199101
N1    N     N_1   0.723290 0.500020 0.499980 -0.152057
N2    N     N_1   0.276710 0.499980 0.500020 -0.152056
O1    O     O_R   0.424680 0.619690 0.499960 -0.561832
O2    O     O_R   0.575320 0.380310 0.500040 -0.561831
O3    O     O_R   0.575360 0.619690 0.500000 -0.560805
O4    O     O_R   0.424640 0.380310 0.500000 -0.560803
O5    O     O_R   0.415920 0.500010 0.613580 -0.584314
O6    O     O_R   0.584080 0.499990 0.386420 -0.584312
O7    O     O_R   0.566610 0.500010 0.613610 -0.573977
O8    O     O_R   0.433390 0.499990 0.386390 -0.573977
F1    F     F_    0.316130 0.492953 0.898796 -0.632809
F2    F     F_    0.683865 0.507051 0.101200 -0.632800
O9    O     O_3   0.365156 0.441873 0.108712 -0.553439
C37   C     C_3   0.287589 0.489339 0.132430 -0.180645
H9    H     H_    0.303435 0.556818 0.140125 0.140853
H10   H     H_    0.253694 0.463005 0.186132 0.192855
H11   H     H_    0.238544 0.485222 0.086749 0.227673
O10   O     O_3   0.634831 0.558144 0.891297 -0.553457
C38   C     C_3   0.712430 0.510732 0.867545 -0.180620
H12   H     H_    0.746315 0.537133 0.813864 0.192862
H13   H     H_    0.696626 0.443250 0.859794 0.140884
H14   H     H_    0.761467 0.514831 0.913232 0.227658
F3    F     F_    0.340318 0.914440 0.482566 -0.569334
F4    F     F_    0.659682 0.085560 0.517434 -0.569333
F5    F     F_    0.340289 0.085481 0.482561 -0.567673
F6    F     F_    0.659711 0.914519 0.517439 -0.567675
F7    F     F_    0.102744 0.478733 0.362696 -0.647237
F8    F     F_    0.897256 0.521267 0.637304 -0.647248

loop_
_geom_bond_atom_site_label_1
_geom_bond_atom_site_label_2
_ccdc_geom_bond_type
C6    C10   S    
C3    F5    S    
C17   H8    S    
C31   C33   A    
C5    C9    S    
Cu1   Cu2   S    
Cu2   O2    S    
C14   C16   A    
C32   F2    S    
C21   O5    A    
Cu1   O1    S    
C29   C35   S    
C26   C28   A    
C35   C36   D    
Cu2   O6    S    
C13   C15   A    
C30   C36   S    
C16   C20   S    
C38   H14   S    
C2    C12   S    
O10   C38   S    
C31   F1    S    
C7    F4    S    
C28   C30   A    
Cu2   N1    S    
Cu1   O5    S    
O9    C37   S    
C29   C31   A    
C16   C18   A    
C25   H1    S    
Cu1   N2    S    
C30   C32   A    
C35   H6    S    
C1    O3    A    
C14   C17   A    
C26   H2    S    
C8    F3    S    
C34   H3    S    
C2    O4    A    
C13   C18   A    
C37   H11   S    
C33   H4    S    
C14   F8    S    
C4    C6    A    
C13   F7    S    
C3    C8    A    
C5    C7    A    
C4    C7    A    
C21   C23   S    
C37   H10   S    
C9    C12   T    
C22   C24   S    
C20   N1    T    
C25   C27   A    
C10   C11   T    
C15   C17   A    
C22   O8    A    
C18   H7    S    
C4    F6    S    
C23   C25   A    
C27   C29   A    
C22   O6    A    
C38   H12   S    
C27   O10   S    
C28   O9    S    
C21   O7    A    
Cu1   O4    S    
C19   N2    T    
C36   H5    S    
C6    C8    A    
Cu2   O3    S    
C2    O2    A    
C3    C5    A    
C32   C34   A    
C15   C19   S    
Cu1   O8    S    
C1    O1    A    
C24   C34   A    
Cu2   O7    S    
C38   H13   S    
C24   C26   A    
C37   H9    S    
C23   C33   A    
C1    C11   S    
