data_mof_unit_20524.cif
_audit_creation_date              2012-12-10T17:27:00-0500
_audit_creation_method            fapswitch 2.2
_symmetry_space_group_name_H-M    P1
_symmetry_Int_Tables_number       1
_space_group_crystal_system       triclinic
_cell_length_a                    18.371186
_cell_length_b                    18.085386
_cell_length_c                    11.974049
_cell_angle_alpha                 89.977945
_cell_angle_beta                  85.624881
_cell_angle_gamma                 90.00818
_cell_volume                      3966.78421208

loop_
_atom_site_label
_atom_site_type_symbol
_atom_type_description
_atom_site_fract_x
_atom_site_fract_y
_atom_site_fract_z
_atom_type_partial_charge
C1    C     C_R   0.400347 0.100801 0.521736 0.888672
C2    C     C_R   0.534698 0.007373 0.019916 0.015263
C3    C     C_R   0.965485 0.508236 0.980082 0.015317
C4    C     C_R   0.034510 0.491749 0.019917 0.015371
C5    C     C_R   0.586043 0.013668 0.826678 -0.001193
C6    C     C_R   0.413959 0.986322 0.173321 -0.001440
C7    C     C_R   0.085716 0.484729 0.826700 -0.001741
C8    C     C_R   0.914280 0.515256 0.173300 -0.001484
C9    C     C_R   0.596289 0.018625 0.942114 0.009832
C10   C     C_R   0.403717 0.981349 0.057887 0.009863
C11   C     C_R   0.095809 0.479151 0.942122 0.009891
C12   C     C_R   0.599666 0.899213 0.478257 0.888576
C13   C     C_R   0.904184 0.520819 0.057878 0.009848
C14   C     C_R   0.459721 0.989734 0.862991 -0.083177
C15   C     C_R   0.540281 0.010257 0.137010 -0.083163
C16   C     C_R   0.959960 0.511443 0.862993 -0.083158
C17   C     C_R   0.040039 0.488551 0.137007 -0.083160
C18   C     C_R   0.655495 0.156216 0.465180 -0.050592
C19   C     C_R   0.344474 0.843816 0.534810 -0.050645
C20   C     C_R   0.345544 0.157328 0.534384 -0.054428
C21   C     C_R   0.654470 0.842686 0.465594 -0.054378
C22   C     C_R   0.154455 0.657346 0.465538 -0.054598
C23   C     C_R   0.599914 0.100512 0.478165 0.888724
C24   C     C_R   0.845533 0.342666 0.534482 -0.054544
C25   C     C_R   0.844525 0.656229 0.534748 -0.050525
C26   C     C_R   0.155507 0.343804 0.465266 -0.050569
C27   C     C_R   0.278528 0.751446 0.645792 -0.222175
C28   C     C_R   0.720923 0.249092 0.354515 -0.222154
C29   C     C_R   0.719994 0.749987 0.354710 -0.224218
C30   C     C_R   0.279399 0.249421 0.645646 -0.224207
C31   C     C_R   0.781003 0.248925 0.644727 -0.223707
C32   C     C_R   0.219471 0.750617 0.354982 -0.223701
C33   C     C_R   0.222573 0.252608 0.353598 -0.222269
C34   C     C_R   0.400087 0.899487 0.521831 0.888848
C35   C     C_R   0.778118 0.748071 0.646036 -0.222244
C36   C     C_R   0.329926 0.807456 0.637346 -0.205938
C37   C     C_R   0.669638 0.192971 0.362884 -0.206009
C38   C     C_R   0.668934 0.806331 0.363059 -0.202296
C39   C     C_R   0.330579 0.193194 0.637208 -0.202292
C40   C     C_R   0.831848 0.305496 0.636548 -0.202238
C41   C     C_R   0.168533 0.694134 0.363233 -0.202236
C42   C     C_R   0.170938 0.308374 0.362219 -0.205620
C43   C     C_R   0.829609 0.692165 0.637506 -0.205708
C44   C     C_R   0.306829 0.825704 0.441556 -0.279631
C45   C     C_R   0.900110 0.600536 0.521804 0.888764
C46   C     C_R   0.693456 0.174017 0.558237 -0.279529
C47   C     C_R   0.691358 0.823715 0.559232 -0.280612
C48   C     C_R   0.309087 0.176726 0.440502 -0.280692
C49   C     C_R   0.808014 0.324362 0.441213 -0.280269
C50   C     C_R   0.191635 0.675984 0.559010 -0.280327
C51   C     C_R   0.192420 0.324915 0.558940 -0.279939
C52   C     C_R   0.807206 0.674718 0.441313 -0.279803
C53   C     C_R   0.256024 0.769818 0.448983 0.188327
C54   C     C_R   0.744148 0.230016 0.550895 0.188343
C55   C     C_R   0.741892 0.767608 0.551863 0.187600
C56   C     C_R   0.099886 0.399460 0.478201 0.888885
C57   C     C_R   0.258420 0.232701 0.447972 0.187568
C58   C     C_R   0.757712 0.268020 0.448389 0.187529
C59   C     C_R   0.242037 0.732227 0.551752 0.187501
C60   C     C_R   0.243488 0.269302 0.551311 0.188495
C61   C     C_R   0.756286 0.730478 0.448842 0.188515
C62   C     C_3   0.670932 0.036434 0.983428 -0.439585
C63   C     C_3   0.732739 0.051402 0.892207 -0.360905
C64   C     C_3   0.803765 0.070843 0.943726 -0.868408
C65   C     C_3   0.329082 0.963500 0.016573 -0.439792
C66   C     C_3   0.267278 0.948510 0.107793 -0.360684
C67   C     C_R   0.099672 0.600785 0.478230 0.888720
C68   C     C_3   0.196269 0.929001 0.056271 -0.868379
C69   C     C_3   0.169935 0.459161 0.983427 -0.439545
C70   C     C_3   0.231177 0.442181 0.892210 -0.360749
C71   C     C_3   0.301503 0.420155 0.943707 -0.869206
C72   C     C_3   0.830045 0.540763 0.016572 -0.439304
C73   C     C_3   0.768790 0.557683 0.107790 -0.361015
C74   C     C_3   0.698438 0.579624 0.056298 -0.869209
C75   C     C_R   0.900317 0.399225 0.521775 0.888622
C76   C     C_R   0.465305 0.992611 0.980085 0.015306
H1    H     H_    0.369249 0.978647 0.236003 0.128169
H2    H     H_    0.317429 0.854452 0.362436 0.149040
H3    H     H_    0.320190 0.148616 0.360980 0.159377
H4    H     H_    0.680663 0.852240 0.638496 0.159114
H5    H     H_    0.181252 0.647102 0.638074 0.159339
H6    H     H_    0.818079 0.353569 0.362363 0.159119
H7    H     H_    0.818117 0.646337 0.362001 0.148566
H8    H     H_    0.181097 0.352875 0.638511 0.148832
H9    H     H_    0.640478 0.179181 0.290393 0.159271
H10   H     H_    0.358828 0.821493 0.709996 0.159210
H11   H     H_    0.358783 0.178401 0.710226 0.163934
H12   H     H_    0.630753 0.021341 0.763995 0.128012
H13   H     H_    0.640388 0.820797 0.290236 0.163958
H14   H     H_    0.139750 0.679927 0.290548 0.164079
H15   H     H_    0.860901 0.319445 0.709069 0.164083
H16   H     H_    0.858257 0.677844 0.710303 0.158806
H17   H     H_    0.142620 0.323011 0.289233 0.158714
H18   H     H_    0.770718 0.219963 0.723646 0.139432
H19   H     H_    0.230078 0.779267 0.275863 0.139383
H20   H     H_    0.234068 0.224847 0.273979 0.137705
H21   H     H_    0.767036 0.776237 0.725415 0.137746
H22   H     H_    0.267747 0.722933 0.724984 0.137946
H23   H     H_    0.869727 0.523798 0.235942 0.128401
H24   H     H_    0.731378 0.277920 0.275523 0.137978
H25   H     H_    0.730903 0.721693 0.275400 0.139817
H26   H     H_    0.268079 0.277316 0.725197 0.139746
H27   H     H_    0.796546 0.121503 0.995837 0.259147
H28   H     H_    0.821164 0.024481 0.996443 0.262678
H29   H     H_    0.847300 0.081264 0.876029 0.249275
H30   H     H_    0.742345 0.001390 0.839151 0.218556
H31   H     H_    0.717634 0.098508 0.838950 0.212413
H32   H     H_    0.665045 0.086462 0.037358 0.205152
H33   H     H_    0.687669 0.989380 0.035509 0.204656
H34   H     H_    0.130270 0.476182 0.764060 0.128561
H35   H     H_    0.178850 0.975326 0.003504 0.262646
H36   H     H_    0.203525 0.878320 0.004211 0.259043
H37   H     H_    0.152730 0.918581 0.123962 0.249371
H38   H     H_    0.282410 0.901431 0.161082 0.212403
H39   H     H_    0.257636 0.998531 0.160816 0.218661
H40   H     H_    0.312325 0.010541 0.964481 0.204595
H41   H     H_    0.334996 0.913469 0.962653 0.205110
H42   H     H_    0.320513 0.465787 0.996333 0.263033
H43   H     H_    0.292550 0.369698 0.995903 0.258703
H44   H     H_    0.344624 0.408296 0.875991 0.249405
H45   H     H_    0.591906 0.020024 0.171977 0.132645
H46   H     H_    0.214441 0.395718 0.839066 0.212175
H47   H     H_    0.242482 0.491899 0.839054 0.218788
H48   H     H_    0.188116 0.505721 0.035180 0.204612
H49   H     H_    0.162595 0.409371 0.037678 0.204949
H50   H     H_    0.707333 0.630088 0.004100 0.258829
H51   H     H_    0.679477 0.533968 0.003674 0.263067
H52   H     H_    0.655307 0.591439 0.124020 0.249276
H53   H     H_    0.757539 0.507958 0.160954 0.218700
H54   H     H_    0.785479 0.604170 0.160925 0.212183
H55   H     H_    0.837350 0.590565 0.962338 0.205009
H56   H     H_    0.408096 0.979967 0.828024 0.132543
H57   H     H_    0.811899 0.494195 0.964802 0.204658
H58   H     H_    0.091457 0.477663 0.171957 0.132538
H59   H     H_    0.908542 0.522335 0.828043 0.132648
H60   H     H_    0.683177 0.144942 0.637143 0.148819
N1    N     N_R   0.480750 1.000000 0.209750 -0.112753
N2    N     N_R   0.519250 1.000000 0.790250 -0.112720
N3    N     N_R   0.980750 0.500000 0.209750 -0.112711
N4    N     N_R   0.019250 0.500000 0.790250 -0.112740
O1    O     O_R   0.418020 0.076820 0.422210 -0.626629
O2    O     O_R   0.569630 0.923170 0.391410 -0.623212
O3    O     O_R   0.569630 0.076830 0.391410 -0.628547
O4    O     O_R   0.430370 0.923170 0.608590 -0.628518
O5    O     O_R   0.930370 0.576830 0.608590 -0.628755
O6    O     O_R   0.069630 0.423170 0.391410 -0.628726
O7    O     O_R   0.069630 0.576830 0.391410 -0.622951
O8    O     O_R   0.930370 0.423170 0.608590 -0.622951
O9    O     O_R   0.581980 0.923180 0.577790 -0.626524
O10   O     O_R   0.581980 0.076820 0.577790 -0.632540
O11   O     O_R   0.418020 0.923180 0.422210 -0.632619
O12   O     O_R   0.918020 0.576820 0.422210 -0.633255
O13   O     O_R   0.081980 0.423180 0.577790 -0.633358
O14   O     O_R   0.081980 0.576820 0.577790 -0.626015
O15   O     O_R   0.918020 0.423180 0.422210 -0.625932
O16   O     O_R   0.430370 0.076830 0.608590 -0.623213
Zn1   Zn    Zn3+2 0.491750 1.000000 0.375560 0.937184
Zn2   Zn    Zn3+2 0.508250 1.000000 0.624440 0.937277
Zn3   Zn    Zn3+2 0.991750 0.500000 0.375560 0.937345
Zn4   Zn    Zn3+2 0.008250 0.500000 0.624440 0.937252

loop_
_geom_bond_atom_site_label_1
_geom_bond_atom_site_label_2
_ccdc_geom_bond_type
C64   H27   S    
C66   C68   S    
C27   H22   S    
C8    C13   A    
C1    O16   A    
C42   H17   S    
C73   C74   S    
C39   H11   S    
O7    Zn3   S    
C25   C43   A    
C53   C59   A    
C48   C57   A    
C14   H56   S    
C7    C11   A    
C38   H13   S    
C34   O4    A    
C71   H44   S    
C8    N3    A    
C45   O5    A    
C50   C59   A    
O11   Zn1   S    
C48   H3    S    
C37   H9    S    
C18   C37   A    
C52   C61   A    
C68   H36   S    
C7    N4    A    
C22   C41   A    
C62   H32   S    
C31   C40   A    
O14   Zn4   S    
O8    Zn4   S    
N2    Zn2   S    
C5    H12   S    
C10   C76   A    
C44   C53   A    
O10   Zn2   S    
C21   C38   A    
C14   N2    A    
C30   C60   A    
C29   C38   A    
C32   C41   A    
C70   C71   S    
C35   C43   A    
O9    Zn2   S    
C3    C13   A    
C68   H37   S    
C22   C50   A    
C28   H24   S    
C41   H14   S    
O12   Zn3   S    
C69   H49   S    
C40   H15   S    
C56   O6    A    
C23   O3    A    
C16   N4    A    
C47   H4    S    
C18   C46   A    
O3    Zn1   S    
C29   C61   A    
C73   H53   S    
C66   H39   S    
O15   Zn3   S    
C9    C62   S    
C5    N2    A    
O5    Zn4   S    
C72   C73   S    
C6    H1    S    
O6    Zn3   S    
C69   H48   S    
C36   H10   S    
C35   C55   A    
C12   C21   S    
C49   C58   A    
C18   C23   S    
C4    C11   A    
C68   H35   S    
C14   C76   A    
C49   H6    S    
C52   H7    S    
C5    C9    A    
C62   C63   S    
C70   H46   S    
C74   H51   S    
C46   C54   A    
C29   H25   S    
C17   N3    A    
C63   H30   S    
C2    C15   A    
C20   C48   A    
C30   H26   S    
C4    C17   A    
O1    Zn1   S    
C23   O10   A    
C67   O14   A    
C67   O7    A    
C75   O8    A    
C65   H40   S    
C33   C42   A    
O2    Zn1   S    
O4    Zn2   S    
C3    C4    A    
C33   H20   S    
C25   C45   S    
C32   C53   A    
C74   H52   S    
C2    C76   A    
C19   C44   A    
C26   C42   A    
C72   H55   S    
C47   C55   A    
C54   C58   A    
C10   C65   S    
C24   C49   A    
C64   H28   S    
C73   H54   S    
C1    C20   S    
C33   C57   A    
C66   H38   S    
C71   H42   S    
C64   H29   S    
C12   O9    A    
C8    H23   S    
C56   O13   A    
C57   C60   A    
C19   C34   S    
C26   C56   S    
C6    C10   A    
C34   O11   A    
C11   C69   S    
C24   C75   S    
C13   C72   S    
C28   C58   A    
C27   C36   A    
C31   H18   S    
C43   H16   S    
C7    H34   S    
C71   H43   S    
C19   C36   A    
C45   O12   A    
O13   Zn4   S    
C44   H2    S    
C20   C39   A    
C25   C52   A    
N1    Zn1   S    
C27   C59   A    
C26   C51   A    
N4    Zn4   S    
C2    C9    A    
C72   H57   S    
C74   H50   S    
C62   H33   S    
C28   C37   A    
C6    N1    A    
C55   C61   A    
O16   Zn2   S    
C24   C40   A    
C12   O2    A    
C30   C39   A    
C31   C54   A    
C15   H45   S    
C69   C70   S    
C22   C67   S    
C1    O1    A    
C70   H47   S    
N3    Zn3   S    
C63   C64   S    
C75   O15   A    
C46   H60   S    
C32   H19   S    
C65   C66   S    
C17   H58   S    
C65   H41   S    
C51   C60   A    
C21   C47   A    
C35   H21   S    
C16   H59   S    
C63   H31   S    
C51   H8    S    
C3    C16   A    
C50   H5    S    
C15   N1    A    
