data_mof_unit_55132.cif
_audit_creation_date              2013-03-05T15:58:21-0500
_audit_creation_method            fapswitch 2.2
_symmetry_space_group_name_H-M    P1
_symmetry_Int_Tables_number       1
_space_group_crystal_system       triclinic
_cell_length_a                    15.076647
_cell_length_b                    13.895735
_cell_length_c                    15.862278
_cell_angle_alpha                 89.283834
_cell_angle_beta                  87.727649
_cell_angle_gamma                 90.072749
_cell_volume                      3320.2867916

loop_
_atom_site_label
_atom_site_type_symbol
_atom_site_description
_atom_site_fract_x
_atom_site_fract_y
_atom_site_fract_z
_atom_type_partial_charge
O1    O     O_R   0.370250 0.582280 0.500020 -0.544089
O2    O     O_R   0.370250 0.417720 0.500020 -0.592705
C1    C     C_R   0.329514 0.499943 0.500506 0.830658
O3    O     O_R   0.499990 0.582310 0.379440 -0.579983
O4    O     O_R   0.499990 0.417690 0.379440 -0.579175
C2    C     C_R   0.501204 0.500520 0.340498 0.801856
Cu1   Cu    Cu3+1 0.499990 0.597420 0.500010 0.947018
Cu2   Cu    Cu3+1 0.499990 0.402580 0.500010 0.923099
O5    O     O_R   0.629730 0.582260 0.499990 -0.585917
O6    O     O_R   0.629730 0.417740 0.499990 -0.582672
O7    O     O_R   0.499980 0.582240 0.620570 -0.558276
O8    O     O_R   0.499980 0.417760 0.620570 -0.596385
C3    C     C_R   0.670503 0.500081 0.499194 0.794196
C4    C     C_R   0.499939 0.499502 0.659431 0.811114
C5    C     C_3   0.447999 0.593403 0.049515 -0.041163
C6    C     C_3   0.445344 0.409164 0.054600 -0.026794
C7    C     C_3   0.434020 0.412608 0.955050 0.339233
C8    C     C_3   0.463108 0.603906 0.950301 0.325473
H1    H     H_    0.376108 0.580716 0.063576 0.145642
H2    H     H_    0.378570 0.412268 0.087166 0.150070
C9    C     C_1   0.499250 0.498539 0.748769 -0.217829
C10   C     C_3   0.497125 0.501007 0.083188 0.119140
C11   C     C_3   0.497089 0.499333 0.916714 0.199475
C12   C     C_3   0.596416 0.482456 0.947915 0.282060
C13   C     C_3   0.593965 0.498569 0.045479 -0.376182
C14   C     C_1   0.498348 0.498548 0.824207 -0.068166
C15   C     C_1   0.499187 0.501732 0.175648 -0.024341
C16   C     C_1   0.500497 0.501570 0.251072 -0.202532
H3    H     H_    0.627773 0.566965 0.060550 0.163466
H4    H     H_    0.632755 0.441968 0.077762 0.169899
C17   C     C_R   0.815117 0.497103 0.421635 0.074065
C18   C     C_R   0.766779 0.500204 0.498881 -0.159504
C19   C     C_R   0.808672 0.503425 0.575917 0.093531
C20   C     C_R   0.902199 0.505180 0.576704 0.116895
C21   C     C_R   0.952546 0.498973 0.498752 -0.108085
C22   C     C_R   0.909032 0.492959 0.420411 0.107214
C23   C     C_R   0.947163 0.512756 0.653150 0.176848
C24   C     C_R   0.039284 0.513397 0.651990 -0.277590
C25   C     C_R   0.090355 0.506414 0.576581 0.090716
C26   C     C_R   0.046822 0.498908 0.499332 -0.009342
C27   C     C_R   0.097429 0.491469 0.422713 0.065538
C28   C     C_R   0.053578 0.482814 0.346972 -0.215622
C29   C     C_R   0.961448 0.482822 0.344107 0.189048
C30   C     C_R   0.184085 0.506831 0.577368 0.088915
C31   C     C_R   0.233296 0.499804 0.500220 -0.059561
C32   C     C_R   0.191183 0.492262 0.422742 0.089279
H5    H     H_    0.069837 0.519613 0.712208 0.157646
H6    H     H_    0.091061 0.475613 0.287944 0.158324
C33   C     C_R   0.443636 0.789902 0.556587 0.301276
C34   C     C_R   0.446012 0.205029 0.557998 0.277323
N1    N     N_R   0.499930 0.743810 0.499960 -0.179690
N2    N     N_R   0.499930 0.256190 0.499960 -0.195312
C35   C     C_R   0.556728 0.796778 0.446973 0.262179
C36   C     C_R   0.555139 0.204296 0.445328 0.272547
C37   C     C_R   0.564926 0.897803 0.457046 0.034187
C38   C     C_R   0.564260 0.102544 0.455896 0.030900
C39   C     C_R   0.502759 0.947304 0.509003 -0.008338
C40   C     C_R   0.502113 0.050650 0.507487 -0.024081
C41   C     C_R   0.443071 0.893939 0.562691 -0.106253
C42   C     C_R   0.439251 0.102023 0.556205 -0.050806
C43   C     C_R   0.634691 0.951023 0.417441 -0.191657
C44   C     C_R   0.634469 0.050888 0.417028 -0.191629
C45   C     C_R   0.375754 0.048642 0.606821 0.198572
C46   C     C_R   0.385847 0.947560 0.618963 0.176967
H7    H     H_    0.692420 0.916778 0.388772 0.143053
H8    H     H_    0.692050 0.086205 0.388191 0.142718
C47   C     C_3   0.375997 0.641347 0.909576 -0.870741
H9    H     H_    0.313561 0.612678 0.937525 0.215862
H10   H     H_    0.366590 0.719796 0.919092 0.227853
H11   H     H_    0.377287 0.630067 0.840447 0.237909
C48   C     C_3   0.333652 0.428892 0.938176 -0.908060
H12   H     H_    0.300022 0.475053 0.985578 0.198113
H13   H     H_    0.324339 0.456635 0.873188 0.252077
H14   H     H_    0.294070 0.361541 0.944955 0.233503
C49   C     C_3   0.230889 0.514307 0.660560 -0.891221
H15   H     H_    0.211249 0.452726 0.702554 0.228748
H16   H     H_    0.304214 0.513079 0.654345 0.224421
H17   H     H_    0.212592 0.583004 0.691709 0.232327
C50   C     C_3   0.245631 0.485752 0.339918 -0.868148
H18   H     H_    0.318131 0.488978 0.346649 0.227176
H19   H     H_    0.231631 0.416490 0.308869 0.228409
H20   H     H_    0.228765 0.546765 0.297635 0.224936
C51   C     C_3   0.923726 0.469327 0.257856 -0.822249
H21   H     H_    0.975935 0.456115 0.207967 0.201189
H22   H     H_    0.879342 0.405479 0.258675 0.245797
H23   H     H_    0.888204 0.535291 0.238176 0.251097
N3    N     N_3   0.379242 0.731080 0.601338 -0.520518
H24   H     H_    0.391569 0.726808 0.665434 0.214062
H25   H     H_    0.315203 0.754584 0.589132 0.210968
N4    N     N_3   0.405088 0.252045 0.629185 -0.603918
H26   H     H_    0.367411 0.311034 0.612018 0.267313
H27   H     H_    0.452957 0.268329 0.672577 0.236451
C52   C     C_3   0.598561 0.750707 0.369042 -0.772076
H28   H     H_    0.640761 0.798363 0.328415 0.175327
H29   H     H_    0.640211 0.688947 0.385212 0.245956
H30   H     H_    0.545303 0.730497 0.326579 0.237308
C53   C     C_3   0.597435 0.252322 0.367508 -0.770270
H31   H     H_    0.640465 0.205983 0.327654 0.174430
H32   H     H_    0.544594 0.272640 0.324230 0.234446
H33   H     H_    0.638522 0.314073 0.383998 0.246989
C54   C     C_3   0.291271 0.095829 0.641117 -0.834590
H34   H     H_    0.235960 0.043038 0.647557 0.229003
H35   H     H_    0.301948 0.127369 0.703881 0.242869
H36   H     H_    0.268351 0.152024 0.596627 0.240563
C55   C     C_3   0.345225 0.903510 0.699600 -0.906277
H37   H     H_    0.325287 0.958927 0.746344 0.242789
H38   H     H_    0.284946 0.861120 0.687380 0.227816
H39   H     H_    0.395632 0.860482 0.732304 0.227800
C56   C     C_3   0.484115 0.314061 0.089834 -0.850149
H40   H     H_    0.485426 0.315279 0.159707 0.230255
H41   H     H_    0.441299 0.252217 0.074414 0.232565
H42   H     H_    0.552549 0.300470 0.065039 0.258208
C57   C     C_3   0.466360 0.686334 0.099139 -0.858434
H43   H     H_    0.433317 0.748989 0.069828 0.239277
H44   H     H_    0.437987 0.680079 0.164677 0.235186
H45   H     H_    0.538439 0.700886 0.102612 0.237605
C58   C     C_3   0.452694 0.312690 0.911608 -0.758351
H46   H     H_    0.401191 0.258567 0.930721 0.208112
H47   H     H_    0.451624 0.319074 0.841863 0.220925
H48   H     H_    0.514262 0.275897 0.927996 0.245326
C59   C     C_3   0.531664 0.685936 0.926162 -0.735527
H49   H     H_    0.552944 0.682355 0.858428 0.236028
H50   H     H_    0.503901 0.759165 0.935664 0.207520
H51   H     H_    0.590415 0.685424 0.965600 0.237648
N5    N     N_3   0.661209 0.549183 0.906409 -0.625165
H52   H     H_    0.723330 0.540092 0.932582 0.217344
H53   H     H_    0.669433 0.533745 0.842215 0.237680
N6    N     N_3   0.628237 0.384531 0.930675 -0.622272
H54   H     H_    0.692177 0.375636 0.952921 0.211249
H55   H     H_    0.633312 0.374043 0.865451 0.223909
N7    N     N_3   0.767949 0.500800 0.344770 -0.610496
H56   H     H_    0.731313 0.564386 0.342676 0.211677
H57   H     H_    0.724672 0.442298 0.343052 0.209967
N8    N     N_3   0.755505 0.504622 0.653257 -0.556224
H58   H     H_    0.716084 0.442627 0.656979 0.214808
H59   H     H_    0.714234 0.565041 0.653053 0.222732
N9    N     N_3   0.900448 0.521033 0.733299 -0.556194
H60   H     H_    0.919701 0.585288 0.761000 0.212121
H61   H     H_    0.919485 0.463919 0.772116 0.210774

loop_
_geom_bond_atom_site_label_1
_geom_bond_atom_site_label_2
_geom_bond_distance
_ccdc_geom_bond_type
C5    C8    1.586081 S    
C9    C14   1.196158 T    
C52   H28   1.101987 S    
C20   C23   1.417482 A    
C29   C51   1.515990 S    
C27   C28   1.400484 A    
C33   N3    1.429450 S    
C3    C18   1.451325 S    
C21   C22   1.431323 A    
N3    H24   1.041769 S    
N6    H54   1.046565 S    
C53   H31   1.101758 S    
C39   C40   1.436012 A    
Cu1   Cu2   2.707444 S    
C31   C32   1.410464 A    
Cu1   O7    1.921326 S    
C55   H38   1.107209 S    
C41   C46   1.432985 A    
C7    C11   1.630684 S    
C42   C45   1.426062 A    
C4    C9    1.416629 S    
C56   H41   1.109700 S    
O4    C2    1.299211 A    
O7    C4    1.297708 A    
C39   C41   1.416587 A    
C40   C42   1.400866 A    
C20   C21   1.428622 A    
C11   C14   1.466917 S    
O5    C3    1.297535 A    
C59   H51   1.104463 S    
C17   N7    1.436050 S    
C19   N8    1.438875 S    
C34   N4    1.430663 S    
C5    C10   1.580809 S    
C2    C16   1.418843 S    
C32   C50   1.525023 S    
C51   H21   1.110921 S    
C12   N6    1.468704 S    
C6    C7    1.595139 S    
C33   N1    1.375757 A    
C10   C13   1.556262 S    
C34   N2    1.391613 A    
C27   C32   1.413542 A    
C5    C57   1.550996 S    
C36   C53   1.513819 S    
Cu2   O8    1.926567 S    
Cu2   N2    2.034206 S    
C45   C54   1.518015 S    
C57   H45   1.108749 S    
C54   H35   1.110230 S    
C23   N9    1.434719 S    
O3    Cu1   1.926611 S    
C53   H32   1.106685 S    
N2    C36   1.386983 A    
C6    C56   1.552374 S    
C35   C37   1.420657 A    
C13   H3    1.111002 S    
C55   H39   1.108519 S    
C36   C38   1.429197 A    
C44   H8    1.079598 S    
C35   C52   1.514834 S    
C47   H9    1.096770 S    
C54   H34   1.110757 S    
C46   C55   1.517626 S    
C12   C13   1.565471 S    
O3    C2    1.300122 A    
C56   H42   1.106818 S    
C25   C26   1.417732 A    
C50   H19   1.110398 S    
N8    H59   1.045690 S    
C8    C47   1.572712 S    
C1    C31   1.450834 S    
C8    C11   1.630177 S    
O1    C1    1.297648 A    
C30   C49   1.525517 S    
C5    H1    1.111291 S    
C49   H15   1.110444 S    
C23   C24   1.388289 A    
C48   H14   1.111108 S    
N9    H61   1.045823 S    
N4    H27   1.043400 S    
C17   C18   1.401761 A    
C6    H2    1.114287 S    
C19   C20   1.410805 A    
C24   H5    1.081155 S    
C28   H6    1.080087 S    
C49   H16   1.106155 S    
C59   H49   1.110781 S    
N8    H58   1.045712 S    
Cu2   O6    1.967078 S    
C26   C27   1.414115 A    
C51   H22   1.110221 S    
O8    C4    1.299097 A    
C7    C48   1.563369 S    
C54   H36   1.110606 S    
C10   C15   1.468343 S    
C37   C39   1.409038 A    
N5    H52   1.046577 S    
C38   C44   1.406070 A    
C58   H48   1.098914 S    
O4    Cu2   1.921394 S    
C28   C29   1.391557 A    
N7    H56   1.043479 S    
C53   H33   1.097977 S    
C30   C31   1.410225 A    
C48   H13   1.110255 S    
C57   H43   1.109830 S    
N9    H60   1.045861 S    
C47   H10   1.110876 S    
C13   H4    1.112511 S    
Cu1   O5    1.967611 S    
C6    C10   1.576035 S    
C11   C12   1.612220 S    
O1    Cu1   1.967052 S    
O2    Cu2   1.967583 S    
C45   C46   1.424535 A    
N7    H57   1.043035 S    
O6    C3    1.297856 A    
N6    H55   1.046428 S    
C50   H20   1.110479 S    
C25   C30   1.413681 A    
C7    C58   1.578421 S    
C52   H30   1.106494 S    
C55   H37   1.109200 S    
C33   C41   1.450124 A    
C47   H11   1.109040 S    
C34   C42   1.435559 A    
C18   C19   1.398801 A    
C58   H47   1.109522 S    
O2    C1    1.297809 A    
Cu1   N1    2.034188 S    
C48   H12   1.102962 S    
C58   H46   1.111135 S    
N4    H26   1.037592 S    
C24   C25   1.401111 A    
C37   C43   1.407800 A    
C38   C40   1.410789 A    
C21   C26   1.421766 A    
C43   C44   1.387648 A    
C49   H17   1.110459 S    
C59   H50   1.110523 S    
C8    C59   1.571284 S    
C50   H18   1.103384 S    
C43   H7    1.079750 S    
C51   H23   1.109876 S    
C52   H29   1.097840 S    
C15   C16   1.197327 T    
N5    H53   1.045832 S    
N3    H25   1.044211 S    
C17   C22   1.416539 A    
C22   C29   1.427586 A    
N1    C35   1.381048 A    
C12   N5    1.476109 S    
C56   H40   1.109643 S    
C57   H44   1.110689 S    
