data_mof_unit_13113.cif
_audit_creation_date              2012-12-10T19:08:05-0500
_audit_creation_method            fapswitch 2.2
_symmetry_space_group_name_H-M    P1
_symmetry_Int_Tables_number       1
_space_group_crystal_system       triclinic
_cell_length_a                    9.055227
_cell_length_b                    10.855143
_cell_length_c                    9.611217
_cell_angle_alpha                 90.190432
_cell_angle_beta                  89.450297
_cell_angle_gamma                 91.287991
_cell_volume                      944.455380415

loop_
_atom_site_label
_atom_site_type_symbol
_atom_type_description
_atom_site_fract_x
_atom_site_fract_y
_atom_site_fract_z
_atom_type_partial_charge
C1    C     C_R   0.491277 0.262755 0.499233 0.785790
C2    C     C_R   0.421231 0.930642 0.387900 -0.272173
C3    C     C_R   0.482819 0.870448 0.501900 -0.080478
C4    C     C_R   0.515189 0.940373 0.620046 0.129270
C5    C     C_3   0.639399 0.944865 0.722639 -0.215444
C6    C     C_3   0.629303 0.084657 0.720005 -0.484623
C7    C     C_R   0.622382 0.538830 0.070600 0.227307
C8    C     C_R   0.386414 0.448621 0.076827 -0.076618
C9    C     C_R   0.386090 0.446291 0.928492 0.060948
C10   C     C_R   0.624895 0.530450 0.924547 0.193135
C11   C     C_3   0.718875 0.641262 0.904265 -0.521760
C12   C     C_R   0.220903 0.499723 0.500383 0.824059
C13   C     C_3   0.705736 0.662946 0.062215 0.221594
C14   C     C_R   0.497940 0.737515 0.500451 0.836918
C15   C     C_R   0.779044 0.499255 0.499685 0.865210
C16   C     C_1   0.065605 0.499318 0.500642 -0.170307
C17   C     C_1   0.934328 0.499100 0.499642 -0.170728
C18   C     C_R   0.506887 0.066143 0.618866 0.050067
C19   C     C_R   0.471911 0.129455 0.498466 -0.114368
C20   C     C_R   0.416244 0.060127 0.383110 0.143798
Cu1   Cu    Cu3+1 0.499990 0.499980 0.640670 0.938435
Cu2   Cu    Cu3+1 0.500010 0.500020 0.359330 0.930979
H1    H     H_    0.666719 0.709115 0.836579 0.210710
H2    H     H_    0.379351 0.877131 0.301260 0.170987
H3    H     H_    0.604342 0.906691 0.824173 0.130722
H4    H     H_    0.589547 0.123976 0.820166 0.189386
H5    H     H_    0.726564 0.134057 0.673053 0.204907
H6    H     H_    0.295666 0.406762 0.134948 0.182060
H7    H     H_    0.829968 0.614906 0.865538 0.191014
N1    N     N_R   0.500920 0.500930 0.147930 -0.214782
N2    N     N_R   0.500930 0.500890 0.852020 -0.227086
O1    O     O_R   0.500000 0.319640 0.618810 -0.605722
O2    O     O_R   0.500020 0.319680 0.381230 -0.579321
O3    O     O_R   0.288380 0.499980 0.618770 -0.591637
O4    O     O_R   0.288400 0.500020 0.381190 -0.591541
O5    O     O_R   0.499980 0.680320 0.618770 -0.585359
O6    O     O_R   0.500000 0.680360 0.381190 -0.593826
O7    O     O_R   0.711600 0.499980 0.618810 -0.564209
O8    O     O_R   0.711620 0.500020 0.381230 -0.581602
C21   C     C_3   0.350917 0.117370 0.254581 -0.355691
C22   C     C_3   0.466749 0.134807 0.138878 -0.809350
H8    H     H_    0.412203 0.165305 0.042348 0.223175
H9    H     H_    0.551948 0.204914 0.167581 0.274608
H10   H     H_    0.523374 0.047364 0.117056 0.240424
H11   H     H_    0.260670 0.056185 0.214530 0.188769
H12   H     H_    0.297284 0.205758 0.279280 0.204636
C23   C     C_3   0.862688 0.662215 0.128931 -0.419521
C24   C     C_3   0.881824 0.740733 0.260129 -0.745507
H13   H     H_    0.876468 0.840202 0.234443 0.241146
H14   H     H_    0.795739 0.717395 0.338469 0.287818
H15   H     H_    0.991708 0.724140 0.305940 0.240703
H16   H     H_    0.893496 0.566066 0.153119 0.222840
H17   H     H_    0.946729 0.697982 0.053214 0.203958
C25   C     C_3   0.613837 0.780571 0.092073 -0.318135
C26   C     C_3   0.452601 0.775325 0.042235 -0.867010
H18   H     H_    0.442907 0.744143 0.932862 0.260035
H19   H     H_    0.384147 0.713722 0.109620 0.273468
H20   H     H_    0.404758 0.868203 0.048357 0.229988
H21   H     H_    0.612157 0.802595 0.203840 0.239892
H22   H     H_    0.672033 0.860318 0.042578 0.172512
C27   C     C_2   0.787777 0.901211 0.672709 0.376804
H23   H     H_    0.880115 0.904596 0.743787 0.071948
O9    O     O_2   0.806770 0.863226 0.554480 -0.578788
C28   C     C_2   0.264722 0.375529 0.861918 0.365955
H24   H     H_    0.283621 0.323443 0.767826 0.118130
O10   O     O_2   0.141502 0.371161 0.914751 -0.588523

loop_
_geom_bond_atom_site_label_1
_geom_bond_atom_site_label_2
_ccdc_geom_bond_type
C7    C10   A    
C26   H18   S    
C15   O7    A    
C23   H16   S    
C2    C20   A    
C13   C23   S    
C9    C28   S    
C22   H9    S    
C22   H8    S    
C6    H5    S    
C7    C13   S    
C23   H17   S    
C8    N1    A    
C28   H24   S    
C19   C20   A    
C24   H14   S    
C2    C3    A    
C4    C18   A    
Cu1   O5    S    
C25   H22   S    
Cu1   Cu2   S    
C12   O4    A    
C21   H12   S    
Cu2   O4    S    
Cu1   N2    S    
C15   O8    A    
C6    H4    S    
C3    C14   S    
C24   H13   S    
C5    H3    S    
Cu2   O8    S    
C11   H1    S    
C21   C22   S    
Cu1   O1    S    
C18   C19   A    
C25   H21   S    
C26   H19   S    
C2    H2    S    
C27   H23   S    
C20   C21   S    
C22   H10   S    
C6    C18   S    
C1    C19   S    
C16   C17   T    
C10   C11   S    
C1    O2    A    
C5    C27   S    
C3    C4    A    
C12   C16   S    
C11   C13   S    
C21   H11   S    
C11   H7    S    
C8    H6    S    
C27   O9    D    
C13   C25   S    
C5    C6    S    
C26   H20   S    
C15   C17   S    
Cu2   O2    S    
C9    N2    A    
C25   C26   S    
C4    C5    S    
C14   O5    A    
Cu1   O3    S    
Cu2   N1    S    
Cu2   O6    S    
C12   O3    A    
C10   N2    A    
C24   H15   S    
Cu1   O7    S    
C1    O1    A    
C23   C24   S    
C28   O10   D    
C8    C9    A    
C14   O6    A    
C7    N1    A    
