data_mof_unit_68543.cif
_audit_creation_date              2013-03-05T16:41:05-0500
_audit_creation_method            fapswitch 2.2
_symmetry_space_group_name_H-M    P1
_symmetry_Int_Tables_number       1
_space_group_crystal_system       triclinic
_cell_length_a                    8.740608
_cell_length_b                    10.7277
_cell_length_c                    9.936703
_cell_angle_alpha                 91.485937
_cell_angle_beta                  99.494415
_cell_angle_gamma                 93.390934
_cell_volume                      916.75614119

loop_
_atom_site_label
_atom_site_type_symbol
_atom_site_description
_atom_site_fract_x
_atom_site_fract_y
_atom_site_fract_z
_atom_type_partial_charge
O1    O     O_R   0.500020 0.316790 0.614690 -0.611366
O2    O     O_R   0.500000 0.316760 0.385350 -0.633862
C1    C     C_R   0.493769 0.260285 0.498080 0.862472
O3    O     O_R   0.271760 0.500010 0.587850 -0.596199
O4    O     O_R   0.271740 0.499970 0.358500 -0.563384
C2    C     C_R   0.202165 0.504531 0.464468 0.874674
Zn1   Zn    Zn3+2 0.500010 0.500020 0.653130 1.004074
Zn2   Zn    Zn3+2 0.499990 0.499980 0.346870 0.993876
O5    O     O_R   0.500000 0.683240 0.614650 -0.589931
O6    O     O_R   0.499980 0.683210 0.385310 -0.637138
O7    O     O_R   0.728260 0.500030 0.641500 -0.547900
O8    O     O_R   0.728240 0.499990 0.412150 -0.612257
C3    C     C_R   0.499551 0.739995 0.500852 0.891326
C4    C     C_R   0.799022 0.509746 0.536454 0.873466
C5    C     C_2   0.040391 0.524291 0.447021 0.001073
C6    C     C_2   0.965976 0.525674 0.557113 0.114462
C7    C     C_R   0.500793 0.068748 0.620888 0.039480
C8    C     C_R   0.474328 0.127976 0.496675 -0.073875
C9    C     C_R   0.434672 0.057975 0.373868 -0.257631
H1    H     H_    0.411302 0.102258 0.276941 0.156640
C10   C     C_R   0.436689 0.929169 0.375471 -0.220488
H2    H     H_    0.408652 0.875969 0.279479 0.181102
C11   C     C_R   0.485010 0.871540 0.499291 -0.063703
C12   C     C_R   0.512835 0.941860 0.621059 0.017446
C13   C     C_3   0.656091 0.955366 0.728115 0.381321
C14   C     C_3   0.634569 0.094920 0.735456 -0.605761
H3    H     H_    0.636976 0.910759 0.824065 0.143843
H4    H     H_    0.594207 0.124475 0.830986 0.178981
H5    H     H_    0.729085 0.158961 0.709836 0.200830
C15   C     C_R   0.374248 0.450554 0.050730 0.206831
N1    N     N_R   0.498950 0.499140 0.142680 -0.179653
C16   C     C_R   0.611928 0.564099 0.092568 -0.137847
H6    H     H_    0.699007 0.617348 0.163813 0.247330
C17   C     C_R   0.615624 0.563288 0.950327 0.318808
N2    N     N_R   0.498950 0.499180 0.857030 -0.177051
C18   C     C_R   0.375060 0.449695 0.909430 0.103068
C19   C     C_3   0.303840 0.319767 0.889459 -0.527223
C20   C     C_3   0.299192 0.321335 0.042634 0.293925
H7    H     H_    0.187217 0.315614 0.824271 0.250319
H8    H     H_    0.384393 0.252702 0.858043 0.166941
H9    H     H_    0.374853 0.254700 0.101590 0.056051
N3    N     N_R   0.968592 0.557396 0.313813 0.208911
O9    O     O_R   0.966966 0.675103 0.285975 -0.423921
O10   O     O_R   0.947326 0.473814 0.214252 -0.344503
N4    N     N_R   0.743531 0.632313 0.909061 0.196160
O11   O     O_R   0.720201 0.696941 0.801048 -0.407955
O12   O     O_R   0.867665 0.661921 0.998301 -0.391170
O13   O     O_3   0.145287 0.325122 0.069337 -0.556912
C21   C     C_3   0.089553 0.207810 0.109737 0.167373
H10   H     H_    0.985013 0.223533 0.156502 0.186584
H11   H     H_    0.173751 0.167854 0.190648 0.104244
C22   C     C_3   0.041434 0.115525 0.987387 -0.463490
H12   H     H_    0.956193 0.157976 0.909189 0.246281
H13   H     H_    0.144707 0.094538 0.941146 0.220735
C23   C     C_3   0.968811 0.993237 0.030543 -0.845222
H14   H     H_    0.055096 0.946771 0.103901 0.273122
H15   H     H_    0.932300 0.929257 0.940144 0.316498
H16   H     H_    0.865075 0.010595 0.077847 0.255386
O14   O     O_3   0.045583 0.522120 0.690148 -0.628230
C24   C     C_3   0.056344 0.642122 0.755504 0.172978
H17   H     H_    0.058975 0.626359 0.865095 0.244486
H18   H     H_    0.956853 0.698533 0.717961 0.199096
C25   C     C_3   0.207111 0.718450 0.744511 -0.375310
H19   H     H_    0.307640 0.665888 0.786688 0.265728
H20   H     H_    0.212620 0.737117 0.636128 0.213563
C26   C     C_3   0.219414 0.842379 0.825812 -0.978765
H21   H     H_    0.124957 0.901617 0.782714 0.289590
H22   H     H_    0.332461 0.893322 0.821523 0.257244
H23   H     H_    0.212436 0.825775 0.934574 0.283178
O15   O     O_3   0.791178 0.913399 0.681090 -0.612203
C27   C     C_3   0.853681 0.990976 0.587319 0.047584
H24   H     H_    0.943011 0.058713 0.645814 0.150355
H25   H     H_    0.765578 0.042798 0.521914 0.157094
C28   C     C_3   0.928580 0.910709 0.490527 -0.293685
H26   H     H_    0.002041 0.843733 0.548856 0.226890
H27   H     H_    0.836022 0.856408 0.418625 0.242322
C29   C     C_3   0.029120 0.990720 0.410108 -0.934673
H28   H     H_    0.956846 0.055314 0.345379 0.250968
H29   H     H_    0.085139 0.929188 0.343962 0.295281
H30   H     H_    0.121992 0.045873 0.480700 0.261318

loop_
_geom_bond_atom_site_label_1
_geom_bond_atom_site_label_2
_geom_bond_distance
_ccdc_geom_bond_type
C26   H22   1.108178 S    
C23   H14   1.109308 S    
C25   H20   1.108798 S    
N2    C18   1.363041 A    
C29   H28   1.110761 S    
Zn1   O7    2.017323 S    
C15   C20   1.492547 S    
C28   H27   1.111881 S    
C24   C25   1.530848 S    
C7    C14   1.499172 S    
C18   C19   1.487252 S    
C9    C10   1.383413 A    
C8    C9    1.398329 A    
C19   H8    1.109759 S    
C15   N1    1.368962 A    
O7    C4    1.301522 A    
C26   H23   1.110804 S    
C5    C6    1.362005 D    
C3    C11   1.424616 S    
C1    C8    1.418922 S    
C24   H18   1.108403 S    
C17   N2    1.394454 A    
O5    C3    1.297645 A    
C2    C5    1.425093 S    
C9    H1    1.079504 S    
C21   H11   1.109832 S    
C28   C29   1.524976 S    
C11   C12   1.387848 A    
O15   C27   1.419019 S    
C20   O13   1.416107 S    
C22   C23   1.525874 S    
N4    O12   1.300644 A    
C26   H21   1.108336 S    
C25   C26   1.526573 S    
O14   C24   1.417749 S    
C10   H2    1.083376 S    
N3    O10   1.300334 A    
O3    Zn1   1.993491 S    
C22   H13   1.110015 S    
C29   H29   1.108774 S    
C7    C12   1.371499 A    
C28   H26   1.103567 S    
C12   C13   1.500539 S    
C20   H9    1.114165 S    
O3    C2    1.279072 A    
C27   H25   1.108477 S    
C13   C14   1.521239 S    
N4    O11   1.287368 A    
C24   H17   1.103056 S    
O1    C1    1.285234 A    
C6    O14   1.391192 S    
C16   C17   1.418908 A    
C19   C20   1.528967 S    
O4    Zn2   2.017323 S    
N1    C16   1.344439 A    
Zn2   O8    1.993490 S    
C21   C22   1.534508 S    
C7    C8    1.394459 A    
C17   N4    1.426671 S    
O13   C21   1.414376 S    
O8    C4    1.285647 A    
C23   H15   1.107867 S    
C4    C6    1.438990 S    
N3    O9    1.300048 A    
C22   H12   1.110756 S    
C29   H30   1.111242 S    
Zn1   O5    2.012087 S    
O1    Zn1   1.992667 S    
Zn2   N1    2.027280 S    
Zn1   N2    2.027893 S    
O2    Zn2   2.012086 S    
C5    N3    1.431334 S    
O6    C3    1.286341 A    
C27   C28   1.525306 S    
C13   H3    1.110263 S    
C14   H4    1.110933 S    
C15   C18   1.405037 A    
C16   H6    1.075475 S    
C10   C11   1.404734 A    
O2    C1    1.294681 A    
C27   H24   1.112112 S    
C19   H7    1.111738 S    
O4    C2    1.301176 A    
C25   H19   1.102301 S    
C14   H5    1.109319 S    
Zn2   O6    1.992666 S    
C21   H10   1.110656 S    
C23   H16   1.110761 S    
C13   O15   1.431498 S    
