data_mof_unit_60177.cif
_audit_creation_date              2012-12-10T18:30:16-0500
_audit_creation_method            fapswitch 2.2
_symmetry_space_group_name_H-M    P1
_symmetry_Int_Tables_number       1
_space_group_crystal_system       triclinic
_cell_length_a                    21.337121
_cell_length_b                    24.936265
_cell_length_c                    24.982464
_cell_angle_alpha                 100.509559
_cell_angle_beta                  115.408619
_cell_angle_gamma                 64.824101
_cell_volume                      10866.0558776

loop_
_atom_site_label
_atom_site_type_symbol
_atom_type_description
_atom_site_fract_x
_atom_site_fract_y
_atom_site_fract_z
_atom_type_partial_charge
C1    C     C_R   0.000018 0.918882 0.418843 0.905023
C2    C     C_3   0.030753 0.680630 0.270553 0.252497
C3    C     C_3   0.644249 0.142079 0.416947 -0.840810
C4    C     C_3   0.824834 0.791512 0.697290 -0.313013
C5    C     C_3   0.841588 0.838619 0.743140 -0.749344
C6    C     C_3   0.655566 0.714492 0.634837 -0.322332
C7    C     C_3   0.595477 0.688059 0.610847 -0.764740
C8    C     C_3   0.642414 0.859202 0.785886 -0.405039
C9    C     C_3   0.587787 0.913829 0.746518 -0.762416
C10   C     C_3   0.999813 0.708677 0.208660 -0.197567
C11   C     C_R   0.878222 0.000040 0.500072 0.898592
C12   C     C_3   0.915969 0.755296 0.194999 0.141137
C13   C     C_3   0.911181 0.801814 0.246981 0.508737
C14   C     C_1   0.000339 0.662772 0.162889 0.105882
C15   C     C_1   0.998281 0.837686 0.336575 -0.010164
C16   C     C_1   0.999312 0.874711 0.374398 -0.216745
C17   C     C_3   0.200713 0.055871 0.496620 0.201097
C18   C     C_3   0.233232 0.025187 0.449270 -0.244522
C19   C     C_3   0.691799 0.048259 0.471982 0.177420
C20   C     C_3   0.311227 0.999903 0.500199 -0.068667
C21   C     C_3   0.279238 0.031250 0.547414 -0.218088
C22   C     C_3   0.267261 0.975034 0.551074 -0.298915
C23   C     C_R   0.000246 0.081180 0.581171 0.901605
C24   C     C_3   0.299265 0.944947 0.503825 0.484081
C25   C     C_3   0.221451 0.969242 0.453373 0.111701
C26   C     C_3   0.189016 0.000293 0.500154 -0.156981
C27   C     C_3   0.923164 0.217474 0.733274 0.236879
C28   C     C_3   0.968068 0.268854 0.680335 0.649991
C29   C     C_3   0.971885 0.317462 0.730438 -0.102462
C30   C     C_3   0.742843 0.999658 0.443611 -0.148745
C31   C     C_1   0.998333 0.374795 0.874247 -0.196334
C32   C     C_3   0.985029 0.209320 0.707665 0.151730
C33   C     C_3   0.923630 0.271158 0.781055 -0.117089
C34   C     C_3   0.987541 0.292189 0.790358 0.054910
C35   C     C_R   0.121738 0.000308 0.500272 0.891588
C36   C     C_3   0.063632 0.238232 0.809849 -0.531616
C37   C     C_3   0.065770 0.192729 0.759223 0.186719
C38   C     C_1   0.994367 0.337582 0.836591 -0.044191
C39   C     C_1   0.990876 0.163085 0.662484 0.085184
C40   C     C_1   0.996270 0.125534 0.625378 -0.215095
C41   C     C_3   0.810986 0.000129 0.500289 -0.072375
C42   C     C_R   0.419007 0.081143 0.418867 0.892213
C43   C     C_R   0.622052 0.999768 0.500307 0.898977
C44   C     C_R   0.581160 0.918778 0.581203 0.934730
C45   C     C_R   0.378619 0.999616 0.500321 0.928505
C46   C     C_R   0.080979 0.419035 0.080956 0.888808
C47   C     C_3   0.809579 0.951126 0.528731 -0.229252
C48   C     C_R   0.000017 0.581099 0.080925 0.890980
C49   C     C_R   0.918829 0.581165 0.918864 0.893621
C50   C     C_R   0.999693 0.419070 0.918829 0.901680
C51   C     C_3   0.264264 0.271137 0.317889 0.187923
C52   C     C_3   0.038115 0.729010 0.318955 0.143978
C53   C     C_3   0.220829 0.193815 0.244758 0.356873
C54   C     C_3   0.169070 0.246133 0.196893 0.739678
C55   C     C_1   0.125448 0.374403 0.125253 -0.162046
C56   C     C_3   0.293313 0.207450 0.289880 0.076180
C57   C     C_3   0.218016 0.319188 0.269291 -0.407858
C58   C     C_3   0.208888 0.290190 0.207762 0.053362
C59   C     C_3   0.739990 0.951005 0.472180 -0.259721
C60   C     C_3   0.289297 0.258362 0.207369 -0.524228
C61   C     C_3   0.343810 0.208521 0.256644 0.333220
C62   C     C_1   0.162970 0.336622 0.162477 0.073383
C63   C     C_3   0.039361 0.797330 0.252286 0.372375
C64   C     C_1   0.338472 0.162491 0.336606 -0.056785
C65   C     C_1   0.375298 0.125423 0.374429 -0.203217
C66   C     C_3   0.714297 0.820229 0.773036 -0.096630
C67   C     C_3   0.784432 0.756197 0.706276 -0.154148
C68   C     C_3   0.834741 0.707240 0.755099 0.317082
C69   C     C_1   0.874413 0.625575 0.874564 -0.154362
C70   C     C_3   0.704087 0.791558 0.708915 0.089375
C71   C     C_3   0.689105 0.000042 0.499978 -0.064432
C72   C     C_3   0.767346 0.770758 0.821418 0.192093
C73   C     C_3   0.790098 0.709031 0.791625 0.040903
C74   C     C_3   0.052005 0.740096 0.211191 0.718713
C75   C     C_3   0.714910 0.700275 0.750504 -0.014475
C76   C     C_3   0.665096 0.745992 0.697042 0.467911
C77   C     C_1   0.836637 0.663102 0.837216 0.120396
C78   C     C_1   0.659664 0.837400 0.663241 0.044596
C79   C     C_1   0.623960 0.874538 0.625538 -0.208596
C80   C     C_3   0.757550 0.000414 0.555069 0.461572
C81   C     C_3   0.760591 0.049559 0.528270 -0.252007
C82   C     C_3   0.113661 0.809634 0.290019 -0.384369
C83   C     C_3   0.174543 0.772959 0.345388 -0.908896
C84   C     C_3   0.862281 0.802700 0.281073 -0.275765
C85   C     C_1   0.000330 0.625379 0.125387 -0.146228
C86   C     C_3   0.847151 0.748566 0.284014 -0.757676
C87   C     C_3   0.142961 0.119507 0.492604 -0.375179
C88   C     C_3   0.173659 0.163763 0.490064 -0.864082
C89   C     C_3   0.186984 0.933997 0.400855 -0.430708
C90   C     C_3   0.231376 0.911230 0.361460 -0.812726
C91   C     C_3   0.838079 0.238746 0.686430 -0.353198
C92   C     C_3   0.813719 0.201252 0.631812 -0.848203
C93   C     C_3   0.902994 0.378202 0.711431 -0.342388
C94   C     C_3   0.904727 0.411480 0.666644 -0.834237
C95   C     C_3   0.942764 0.158400 0.763647 -0.249295
C96   C     C_3   0.996766 0.792563 0.289993 -0.058558
C97   C     C_3   0.958801 0.098965 0.730167 -0.807881
C98   C     C_3   0.919940 0.263094 0.840694 -0.377463
C99   C     C_3   0.840779 0.273749 0.834348 -0.903504
C100  C     C_3   0.176373 0.180074 0.274444 -0.349614
C101  C     C_3   0.144581 0.222669 0.317573 -0.938771
C102  C     C_3   0.417893 0.218095 0.304448 -0.252884
C103  C     C_3   0.427508 0.274775 0.301329 -0.828585
C104  C     C_3   0.373596 0.148598 0.223500 -0.348530
C105  C     C_3   0.429826 0.144584 0.198054 -0.934334
C106  C     C_3   0.622701 0.102561 0.439796 -0.430565
H1    H     H_    0.730116 0.911022 0.449307 0.171616
H2    H     H_    0.105191 0.194370 0.741883 0.171555
H3    H     H_    0.595607 0.128284 0.470817 0.216321
H4    H     H_    0.883854 0.850016 0.738286 0.230421
H5    H     H_    0.790080 0.879931 0.734874 0.230294
H6    H     H_    0.865169 0.822787 0.789048 0.320376
H7    H     H_    0.878961 0.759225 0.694896 0.195815
H8    H     H_    0.790965 0.813427 0.653142 0.189047
H9    H     H_    0.940267 0.690867 0.775184 0.320777
H10   H     H_    0.573140 0.750997 0.702471 0.344429
H11   H     H_    0.604694 0.657988 0.643566 0.286886
H12   H     H_    0.538254 0.723823 0.598989 0.266925
H13   H     H_    0.072627 0.217508 0.849789 0.222685
H14   H     H_    0.597851 0.662256 0.570033 0.229530
H15   H     H_    0.639324 0.746443 0.600925 0.194620
H16   H     H_    0.709176 0.678172 0.636043 0.162654
H17   H     H_    0.618792 0.936740 0.740182 0.247029
H18   H     H_    0.551650 0.901403 0.703121 0.290576
H19   H     H_    0.549846 0.945316 0.767872 0.231513
H20   H     H_    0.611598 0.832884 0.785766 0.246610
H21   H     H_    0.661826 0.876028 0.832050 0.188268
H22   H     H_    0.769326 0.624301 0.719875 0.332195
H23   H     H_    0.091713 0.597082 0.263554 0.333585
H24   H     H_    0.111126 0.252479 0.822731 0.171111
H25   H     H_    0.016645 0.854626 0.194187 0.350961
H26   H     H_    0.161902 0.346436 0.271095 0.192345
H27   H     H_    0.226481 0.274423 0.338167 0.145092
H28   H     H_    0.771027 0.089200 0.551639 0.137038
H29   H     H_    0.310941 0.292588 0.211305 0.204420
H30   H     H_    0.245957 0.350465 0.277362 0.215425
H31   H     H_    0.284539 0.240576 0.162309 0.173386
H32   H     H_    0.741864 0.851062 0.780272 0.199461
H33   H     H_    0.991253 0.663164 0.271129 0.116479
H34   H     H_    0.775194 0.731300 0.664005 0.068091
H35   H     H_    0.848844 0.663179 0.732896 0.011159
H36   H     H_    0.682660 0.710143 0.778717 0.164755
H37   H     H_    0.737547 0.769437 0.848333 0.075448
H38   H     H_    0.738611 0.999548 0.397722 0.143665
H39   H     H_    0.098844 0.718550 0.343444 0.195571
H40   H     H_    0.154064 0.782373 0.381424 0.249753
H41   H     H_    0.196178 0.724896 0.335955 0.307490
H42   H     H_    0.223223 0.786272 0.362290 0.259530
H43   H     H_    0.141450 0.806656 0.260150 0.197311
H44   H     H_    0.898790 0.780361 0.155366 0.207791
H45   H     H_    0.096528 0.856656 0.304810 0.232580
H46   H     H_    0.158308 0.710819 0.222502 0.360709
H47   H     H_    0.983333 0.777496 0.131834 0.333411
H48   H     H_    0.801607 0.743487 0.242426 0.274370
H49   H     H_    0.897369 0.707024 0.294932 0.277430
H50   H     H_    0.826028 0.756086 0.319493 0.223369
H51   H     H_    0.885065 0.818132 0.327226 0.188575
H52   H     H_    0.805006 0.838057 0.261196 0.203330
H53   H     H_    0.871309 0.889413 0.250846 0.343699
H54   H     H_    0.886502 0.688774 0.190600 0.332217
H55   H     H_    0.221161 0.045793 0.408261 0.144520
H56   H     H_    0.036177 0.741965 0.397755 0.344583
H57   H     H_    0.225054 0.160309 0.530578 0.262995
H58   H     H_    0.187542 0.155406 0.450454 0.255579
H59   H     H_    0.130452 0.209456 0.487173 0.255710
H60   H     H_    0.091148 0.124332 0.452054 0.219466
H61   H     H_    0.128213 0.129106 0.531875 0.210667
H62   H     H_    0.330032 0.861277 0.509717 0.328114
H63   H     H_    0.232777 0.948750 0.344558 0.256996
H64   H     H_    0.289959 0.880404 0.386569 0.287228
H65   H     H_    0.204048 0.887142 0.323003 0.239699
H66   H     H_    0.859287 0.911731 0.552754 0.160745
H67   H     H_    0.186357 0.895977 0.417590 0.202369
H68   H     H_    0.127923 0.963032 0.374314 0.217619
H69   H     H_    0.850703 0.186410 0.607428 0.260279
H70   H     H_    0.807329 0.163673 0.643589 0.247656
H71   H     H_    0.756716 0.228862 0.600433 0.245571
H72   H     H_    0.801779 0.244682 0.710002 0.194949
H73   H     H_    0.817827 0.283998 0.670356 0.230978
H74   H     H_    0.008759 0.295765 0.638276 0.352133
H75   H     H_    0.901799 0.261326 0.598055 0.353266
H76   H     H_    0.958251 0.418358 0.684701 0.240692
H77   H     H_    0.304021 0.056916 0.585633 0.168211
H78   H     H_    0.898667 0.387100 0.624114 0.288351
H79   H     H_    0.857181 0.455555 0.657511 0.246011
H80   H     H_    0.848799 0.372363 0.692504 0.231277
H81   H     H_    0.902351 0.408002 0.750169 0.204409
H82   H     H_    0.812636 0.001565 0.638978 0.324885
H83   H     H_    0.150053 0.125278 0.806298 0.341566
H84   H     H_    0.921108 0.101926 0.683040 0.246761
H85   H     H_    0.017574 0.078668 0.733360 0.302724
H86   H     H_    0.952195 0.067123 0.751108 0.224778
H87   H     H_    0.992806 0.150348 0.805849 0.231694
H88   H     H_    0.280178 0.953968 0.592085 0.177510
H89   H     H_    0.895966 0.164165 0.775519 0.185794
H90   H     H_    0.799848 0.318090 0.814778 0.260248
H91   H     H_    0.820683 0.239731 0.806899 0.249749
H92   H     H_    0.841639 0.272476 0.878877 0.264211
H93   H     H_    0.961142 0.220311 0.862944 0.201718
H94   H     H_    0.935118 0.296214 0.873946 0.236407
H95   H     H_    0.203753 0.130204 0.187143 0.355025
H96   H     H_    0.189735 0.218193 0.362676 0.246255
H97   H     H_    0.114561 0.269251 0.302230 0.299619
H98   H     H_    0.103047 0.209763 0.321756 0.258912
H99   H     H_    0.871545 0.311069 0.761822 0.157264
H100  H     H_    0.127997 0.171900 0.238174 0.198560
H101  H     H_    0.213031 0.136832 0.297944 0.228784
H102  H     H_    0.065724 0.257808 0.181152 0.363117
H103  H     H_    0.199840 0.202832 0.131702 0.326193
H104  H     H_    0.434088 0.275775 0.259824 0.238175
H105  H     H_    0.379662 0.314897 0.304883 0.291447
H106  H     H_    0.479565 0.275525 0.338977 0.238644
H107  H     H_    0.426283 0.213393 0.350404 0.218399
H108  H     H_    0.470313 0.181228 0.304487 0.186115
H109  H     H_    0.418006 0.188572 0.183454 0.274241
H110  H     H_    0.022245 0.326925 0.739777 0.174772
H111  H     H_    0.488904 0.125393 0.230747 0.257900
H112  H     H_    0.425759 0.114452 0.159100 0.260055
H113  H     H_    0.399648 0.110026 0.253164 0.228868
H114  H     H_    0.327174 0.142734 0.183655 0.255898
H115  H     H_    0.337607 0.264715 0.399504 0.336027
H116  H     H_    0.814239 0.816345 0.885232 0.326004
H117  H     H_    0.685060 0.157523 0.454282 0.264222
H118  H     H_    0.669724 0.117528 0.384669 0.260224
H119  H     H_    0.593121 0.181378 0.394473 0.243731
H120  H     H_    0.581600 0.087808 0.401945 0.194136
O1    O     O_R   0.034680 0.903860 0.473250 -0.619645
O2    O     O_R   0.008840 0.438630 0.061310 -0.603918
O3    O     O_R   0.052380 0.561560 0.061290 -0.596839
O4    O     O_R   0.965310 0.973280 0.403900 -0.614262
O5    O     O_R   0.947370 0.561540 0.061320 -0.618179
O6    O     O_R   0.990910 0.561610 0.938440 -0.604550
O7    O     O_R   0.885900 0.561600 0.938470 -0.614125
O8    O     O_R   0.052380 0.438700 0.938430 -0.616807
O9    O     O_R   0.947370 0.438690 0.938460 -0.615458
O10   O     O_R   0.941660 0.965300 0.534680 -0.630000
O11   O     O_R   0.872290 0.034710 0.465330 -0.623101
O12   O     O_R   0.438620 0.026720 0.403950 -0.615913
O13   O     O_R   0.034690 0.026720 0.596100 -0.610270
O14   O     O_R   0.965320 0.096140 0.526750 -0.621475
O15   O     O_R   0.127710 0.965290 0.534670 -0.622197
O16   O     O_R   0.058340 0.034700 0.465320 -0.635678
O17   O     O_R   0.438600 0.096100 0.473280 -0.627075
O18   O     O_3   0.127562 0.699461 0.235363 -0.700299
O19   O     O_3   0.037655 0.754472 0.153493 -0.779838
O20   O     O_3   0.873065 0.858291 0.219790 -0.721187
O21   O     O_3   0.861936 0.730213 0.176575 -0.748760
O22   O     O_3   0.010812 0.724934 0.359628 -0.775915
O23   O     O_R   0.593070 0.034630 0.534720 -0.594858
O24   O     O_3   0.353467 0.887276 0.507698 -0.760966
O25   O     O_3   0.023704 0.259177 0.658994 -0.835843
O26   O     O_3   0.897152 0.287508 0.632385 -0.805474
O27   O     O_3   0.762714 0.000531 0.612792 -0.762618
O28   O     O_3   0.095875 0.135047 0.780801 -0.784272
O29   O     O_3   0.247116 0.139768 0.216202 -0.834229
O30   O     O_3   0.099709 0.279127 0.202552 -0.784126
O31   O     O_3   0.152542 0.224205 0.138059 -0.786098
O32   O     O_3   0.322079 0.285974 0.363072 -0.761870
O33   O     O_3   0.831428 0.781913 0.860518 -0.686629
O34   O     O_R   0.593090 0.965250 0.465380 -0.640861
O35   O     O_3   0.902750 0.713432 0.792977 -0.670294
O36   O     O_3   0.592069 0.778563 0.696414 -0.771247
O37   O     O_3   0.726627 0.640981 0.732452 -0.759156
O38   O     O_3   0.101262 0.632776 0.283399 -0.691007
O39   O     O_3   0.990405 0.847678 0.215225 -0.746115
O40   O     O_R   0.561490 0.973170 0.596160 -0.613289
O41   O     O_R   0.561500 0.903790 0.526820 -0.612982
O42   O     O_R   0.407020 0.034640 0.534730 -0.641228
O43   O     O_R   0.407040 0.965260 0.465390 -0.596209
O44   O     O_R   0.113850 0.438650 0.061280 -0.621345
Zn1   Zn    Zn3+2 0.046320 0.953650 0.546300 0.958241
Zn2   Zn    Zn3+2 0.953680 0.046350 0.453700 0.950767
Zn3   Zn    Zn3+2 0.500040 0.046270 0.546350 0.975484
Zn4   Zn    Zn3+2 0.500070 0.953620 0.453760 0.980724
Zn5   Zn    Zn3+2 0.069990 0.500130 0.999860 0.995241
Zn6   Zn    Zn3+2 0.929760 0.500110 0.999900 0.990089

loop_
_geom_bond_atom_site_label_1
_geom_bond_atom_site_label_2
_ccdc_geom_bond_type
C56   C61   S    
C58   C62   S    
C72   H37   S    
C87   C88   S    
C91   H72   S    
O41   Zn4   S    
C8    C66   S    
C52   H39   S    
C105  H109  S    
C46   C55   S    
C70   C78   S    
O23   Zn3   S    
C51   H27   S    
C7    H11   S    
C57   H26   S    
C69   C77   T    
C37   O28   S    
C94   H79   S    
C89   H67   S    
C75   C76   S    
C47   H66   S    
C42   O12   A    
C81   H28   S    
H53   O20   S    
C53   C54   S    
C27   C33   S    
C45   O43   A    
C13   C84   S    
C33   H99   S    
C3    H118  S    
C99   H90   S    
O43   Zn4   S    
C2    H33   S    
C89   H68   S    
C4    H8    S    
C28   C29   S    
C84   C86   S    
H46   O18   S    
C101  H96   S    
C95   H87   S    
C10   C12   S    
C18   H55   S    
H22   O37   S    
C87   H60   S    
C5    H4    S    
O40   Zn3   S    
C58   C60   S    
C15   C16   T    
C55   C62   T    
C42   O17   A    
C9    H18   S    
C30   H38   S    
C99   H92   S    
C33   C98   S    
C32   C39   S    
C10   C14   S    
C50   O8    A    
C36   H13   S    
C86   H50   S    
O17   Zn3   S    
C68   O35   S    
C49   O7    A    
H9    O35   S    
C48   O5    A    
C19   C71   S    
C1    O4    A    
C102  H108  S    
C45   O42   A    
C66   C72   S    
C20   C24   S    
C8    C9    S    
H47   O19   S    
C90   H65   S    
C42   C65   S    
C43   C71   S    
C106  H120  S    
C30   C41   S    
C27   C91   S    
H83   O28   S    
C51   C57   S    
C54   O31   S    
H23   O38   S    
C3    H119  S    
C23   C40   S    
C18   C20   S    
C82   H45   S    
C60   H31   S    
C74   O18   S    
C93   H80   S    
C1    O1    A    
C13   O20   S    
C46   O44   A    
C49   C69   S    
C21   C22   S    
H56   O22   S    
O9    Zn6   S    
C73   C75   S    
C7    H12   S    
C99   H91   S    
C102  C103  S    
C18   C25   S    
C94   H78   S    
C47   C80   S    
C52   O22   S    
C103  H104  S    
C43   O34   A    
C100  H101  S    
C33   C34   S    
C44   O41   A    
C75   O37   S    
C97   H86   S    
C92   H69   S    
C87   H61   S    
O3    Zn5   S    
C80   O27   S    
C13   C96   S    
C67   C68   S    
C12   H44   S    
C4    H7    S    
C28   C32   S    
C61   C104  S    
H10   O36   S    
C24   C25   S    
C37   H2    S    
C101  H97   S    
C20   C45   S    
C103  H105  S    
C91   C92   S    
C74   O19   S    
C84   H52   S    
C78   C79   T    
C72   C73   S    
C29   H110  S    
C44   O40   A    
C46   O2    A    
C5    H5    S    
C68   C73   S    
H95   O29   S    
O7    Zn6   S    
C63   C96   S    
C82   C83   S    
O10   Zn1   S    
C9    H19   S    
O8    Zn5   S    
O15   Zn1   S    
C2    O38   S    
C60   C61   S    
O16   Zn2   S    
O42   Zn3   S    
C86   H49   S    
C28   O26   S    
C104  H113  S    
C7    H14   S    
C75   H36   S    
C36   H24   S    
C83   H40   S    
C23   O13   A    
C43   O23   A    
C102  H107  S    
H103  O31   S    
C66   H32   S    
C41   C81   S    
C30   C59   S    
C90   H64   S    
C56   C64   S    
C17   C18   S    
C41   C47   S    
C68   H35   S    
C57   H30   S    
C1    C16   S    
C32   C37   S    
C20   C21   S    
C6    C76   S    
C67   H34   S    
C63   O39   S    
C60   H29   S    
O6    Zn5   S    
C2    C52   S    
C3    C106  S    
H75   O26   S    
C83   H41   S    
C48   O3    A    
C98   H93   S    
C8    H20   S    
C97   H84   S    
C63   C74   S    
C51   O32   S    
C98   C99   S    
C89   C90   S    
C105  H111  S    
C70   C76   S    
C22   C24   S    
C6    H16   S    
H54   O21   S    
H115  O32   S    
H116  O33   S    
C93   H81   S    
C15   C96   S    
H62   O24   S    
C53   C100  S    
C54   C58   S    
C53   C56   S    
O1    Zn1   S    
C11   O10   A    
C21   H77   S    
C76   O36   S    
H82   O27   S    
C95   H89   S    
C17   C21   S    
C27   C32   S    
C34   C38   S    
C54   O30   S    
O44   Zn5   S    
C92   H70   S    
C44   C79   S    
C51   C56   S    
C14   C85   T    
C80   C81   S    
C101  H98   S    
C103  H106  S    
C4    C67   S    
C71   C80   S    
C84   H51   S    
C95   C97   S    
C35   O15   A    
C6    C7    S    
H25   O39   S    
C5    H6    S    
O13   Zn1   S    
C11   O11   A    
C12   O21   S    
C53   O29   S    
C93   C94   S    
C25   C89   S    
C31   C38   T    
C98   H94   S    
C8    H21   S    
C91   H73   S    
C64   C65   T    
C67   C70   S    
C49   O6    A    
C24   O24   S    
C61   C102  S    
C25   C26   S    
C28   O25   S    
O34   Zn4   S    
C88   H59   S    
C88   H58   S    
C72   O33   S    
C29   C93   S    
C23   O14   A    
C10   C74   S    
O14   Zn2   S    
C57   C58   S    
C66   C70   S    
C104  H114  S    
O4    Zn2   S    
C19   C81   S    
O2    Zn6   S    
C4    C5    S    
C29   C34   S    
C90   H63   S    
C100  C101  S    
C9    H17   S    
C17   C26   S    
O5    Zn6   S    
C52   C96   S    
O11   Zn2   S    
C34   C36   S    
C86   H48   S    
C50   O9    A    
C59   H1    S    
C82   H43   S    
C100  H100  S    
C92   H71   S    
C47   C59   S    
C83   H42   S    
C39   C40   T    
C19   C106  S    
C26   C35   S    
C97   H85   S    
C12   C13   S    
C35   O16   A    
C36   C37   S    
C105  H112  S    
C22   C26   S    
C11   C41   S    
C3    H117  S    
C73   C77   S    
C48   C85   S    
C22   H88   S    
C94   H76   S    
C6    H15   S    
C27   C95   S    
C88   H57   S    
O12   Zn4   S    
C19   C30   S    
H74   O25   S    
C31   C50   S    
C63   C82   S    
C17   C87   S    
C104  C105  S    
C59   C71   S    
H102  O30   S    
C106  H3    S    
C2    C10   S    
