data_mof_unit_60184.cif
_audit_creation_date              2013-03-05T16:14:04-0500
_audit_creation_method            fapswitch 2.2
_symmetry_space_group_name_H-M    P1
_symmetry_Int_Tables_number       1
_space_group_crystal_system       triclinic
_cell_length_a                    27.802511
_cell_length_b                    14.662127
_cell_length_c                    15.919023
_cell_angle_alpha                 90.109826
_cell_angle_beta                  89.995012
_cell_angle_gamma                 90.092227
_cell_volume                      6489.27301995

loop_
_atom_site_label
_atom_site_type_symbol
_atom_site_description
_atom_site_fract_x
_atom_site_fract_y
_atom_site_fract_z
_atom_type_partial_charge
O1    O     O_R   0.500050 0.424030 0.620640 -0.536811
O2    O     O_R   0.500050 0.575970 0.620640 -0.568245
C1    C     C_R   0.500109 0.500091 0.660184 0.823008
O3    O     O_R   0.569790 0.424080 0.500060 -0.550699
O4    O     O_R   0.569790 0.575920 0.500060 -0.523864
C2    C     C_R   0.592805 0.500107 0.501296 0.920093
Cu1   Cu    Cu3+1 0.500060 0.410080 0.500090 1.158051
Cu2   Cu    Cu3+1 0.500060 0.589920 0.500090 1.165042
O5    O     O_R   0.500050 0.424100 0.379510 -0.571975
O6    O     O_R   0.500050 0.575900 0.379510 -0.549157
O7    O     O_R   0.430320 0.424060 0.500090 -0.534360
O8    O     O_R   0.430320 0.575940 0.500090 -0.528158
C3    C     C_R   0.500119 0.499906 0.339943 0.809538
C4    C     C_R   0.407202 0.499943 0.499682 0.900904
C5    C     C_R   0.823092 0.524620 0.569222 0.673287
O9    O     O_2   0.798747 0.548215 0.639317 -0.466164
N1    N     N_R   0.798532 0.501677 0.497871 -0.438006
C6    C     C_R   0.821946 0.477065 0.425669 0.697091
C7    C     C_R   0.721019 0.571096 0.455946 0.269865
C8    C     C_R   0.670540 0.568857 0.457515 0.525463
C9    C     C_R   0.672130 0.433907 0.547130 0.238900
C10   C     C_R   0.722376 0.435102 0.543426 -0.164673
C11   C     C_R   0.746887 0.503019 0.499058 0.078539
C12   C     C_R   0.898418 0.501435 0.495660 -0.086825
C13   C     C_R   0.873431 0.524194 0.569756 -0.093312
C14   C     C_R   0.899198 0.544008 0.643191 -0.142546
C15   C     C_R   0.872731 0.479558 0.421686 -0.196841
C16   C     C_R   0.645808 0.500785 0.502646 -0.332038
H1    H     H_    0.742884 0.384121 0.577074 0.220347
H2    H     H_    0.880744 0.556607 0.702006 0.234027
C17   C     C_R   0.354090 0.499845 0.497758 -0.368050
C18   C     C_R   0.025295 0.546158 0.559681 -0.037887
C19   C     C_R   0.024628 0.450166 0.433285 -0.013859
C20   C     C_R   0.050471 0.497567 0.496501 0.013808
C21   C     C_R   0.050943 0.608872 0.610872 0.272523
C22   C     C_R   0.101549 0.608660 0.610516 0.239546
C23   C     C_R   0.127080 0.550642 0.554931 -0.148080
C24   C     C_R   0.101319 0.496740 0.496258 -0.109777
C25   C     C_R   0.126335 0.442162 0.437222 -0.152937
C26   C     C_R   0.177121 0.445288 0.436833 0.686324
N2    N     N_R   0.201319 0.496981 0.494381 -0.437373
C27   C     C_R   0.177830 0.547185 0.553814 0.683440
C28   C     C_R   0.278178 0.421959 0.520681 -0.182469
C29   C     C_R   0.328199 0.422141 0.523195 0.577893
C30   C     C_R   0.328812 0.577163 0.469290 0.496031
C31   C     C_R   0.278275 0.576972 0.465979 0.269535
C32   C     C_R   0.252990 0.498503 0.492508 0.039298
O10   O     O_2   0.203926 0.592999 0.611574 -0.425090
C33   C     C_R   0.974857 0.532446 0.566818 -0.007101
C34   C     C_R   0.949268 0.500214 0.495995 -0.044905
C35   C     C_R   0.974434 0.466447 0.425767 -0.057922
C36   C     C_R   0.949234 0.546965 0.642327 0.670490
H3    H     H_    0.258661 0.362197 0.541645 0.225655
O11   O     O_2   0.795948 0.448403 0.359146 -0.428597
C37   C     C_R   0.898788 0.461299 0.346976 0.239593
C38   C     C_R   0.049404 0.386544 0.381914 0.274231
C39   C     C_R   0.100010 0.384773 0.382062 0.238268
O12   O     O_2   0.202510 0.398462 0.378907 -0.421938
C40   C     C_R   0.949070 0.454676 0.349712 0.612887
C41   C     C_3   0.477924 0.409395 0.949596 0.053018
C42   C     C_3   0.467299 0.580589 0.952088 0.052938
C43   C     C_3   0.471062 0.583066 0.050506 0.055313
C44   C     C_3   0.474003 0.410755 0.048016 0.055489
H4    H     H_    0.435162 0.417993 0.064081 0.099112
H5    H     H_    0.433626 0.576904 0.075137 0.120209
H6    H     H_    0.440431 0.404692 0.924951 0.121672
H7    H     H_    0.429469 0.562230 0.936009 0.100523
C45   C     C_1   0.500136 0.499558 0.250573 -0.029178
C46   C     C_3   0.499791 0.501626 0.916984 -0.055971
C47   C     C_3   0.499921 0.498193 0.083130 -0.053090
C48   C     C_3   0.552164 0.501119 0.048239 -0.305393
C49   C     C_3   0.551666 0.513794 0.951889 -0.303346
C50   C     C_1   0.500105 0.498898 0.175247 0.085124
C51   C     C_1   0.500031 0.501007 0.824870 0.087006
C52   C     C_1   0.500107 0.500408 0.749548 -0.013055
H8    H     H_    0.577069 0.465372 0.921793 0.236401
H9    H     H_    0.565870 0.582548 0.936796 0.255334
H10   H     H_    0.571602 0.437241 0.063338 0.254772
H11   H     H_    0.573475 0.556314 0.078339 0.236437
C53   C     C_3   0.486005 0.947058 0.410055 0.334618
C54   C     C_3   0.480591 0.053125 0.413442 0.309643
C55   C     C_3   0.552230 0.946842 0.523661 0.640074
C56   C     C_3   0.552544 0.055187 0.515082 0.649014
N3    N     N_1   0.499020 0.275030 0.498610 -0.127661
N4    N     N_1   0.499020 0.724970 0.498610 -0.123307
C57   C     C_3   0.501025 0.907963 0.497779 -0.623768
C58   C     C_3   0.500123 0.092082 0.498220 -0.620479
C59   C     C_3   0.466141 0.053091 0.568099 0.957887
C60   C     C_3   0.463323 0.946023 0.562458 0.940412
C61   C     C_1   0.499262 0.195199 0.498327 0.594870
C62   C     C_1   0.499601 0.804801 0.498154 0.582416
H12   H     H_    0.450713 0.917249 0.391587 0.180830
H13   H     H_    0.441642 0.069652 0.408443 0.171545
N5    N     N_R   0.648787 0.367244 0.599313 0.180948
O13   O     O_R   0.666743 0.285671 0.606020 -0.204343
O14   O     O_R   0.614816 0.391913 0.650768 -0.309949
N6    N     N_R   0.745636 0.642622 0.411278 0.190458
O15   O     O_R   0.727389 0.676420 0.342826 -0.159370
O16   O     O_R   0.785314 0.677409 0.440659 -0.273715
N7    N     N_R   0.875370 0.454564 0.266894 0.208490
O17   O     O_R   0.885072 0.386697 0.216944 -0.171003
O18   O     O_R   0.851331 0.523817 0.237985 -0.204372
N8    N     N_R   0.023601 0.314341 0.339962 0.183192
O19   O     O_R   0.990592 0.268783 0.379989 -0.280303
O20   O     O_R   0.033954 0.291614 0.263005 -0.152733
F1    F     F_    0.353290 0.651320 0.441076 -0.554182
N9    N     N_R   0.124099 0.319065 0.330458 0.194835
O21   O     O_R   0.135710 0.239975 0.361199 -0.220816
O22   O     O_R   0.133770 0.337789 0.252406 -0.185235
N10   N     N_R   0.253037 0.655769 0.435050 0.190290
O23   O     O_R   0.270219 0.737304 0.447416 -0.156898
O24   O     O_R   0.213761 0.646525 0.391386 -0.282798
F2    F     F_    0.973268 0.447494 0.275853 -0.553500
N11   N     N_R   0.475712 0.670933 0.914169 0.206293
O25   O     O_R   0.444551 0.735562 0.927187 -0.189345
O26   O     O_R   0.512020 0.687218 0.864789 -0.259086
N12   N     N_R   0.504142 0.329510 0.917131 0.200585
O27   O     O_R   0.482974 0.274519 0.864548 -0.198712
O28   O     O_R   0.547565 0.310584 0.942055 -0.238008
N13   N     N_R   0.490707 0.669605 0.082972 0.199297
O29   O     O_R   0.465455 0.717882 0.135524 -0.226154
O30   O     O_R   0.532151 0.700837 0.058059 -0.236444
N14   N     N_R   0.489416 0.323868 0.085940 0.204608
O31   O     O_R   0.463690 0.250982 0.072906 -0.193971
O32   O     O_R   0.526575 0.318251 0.135362 -0.266223
F3    F     F_    0.501958 0.094377 0.344674 -0.488064
F4    F     F_    0.518074 0.922200 0.347687 -0.469430
F5    F     F_    0.559258 0.925442 0.607778 -0.492838
F6    F     F_    0.567981 0.091195 0.591436 -0.478400
N15   N     N_R   0.593069 0.905055 0.478453 0.185132
O33   O     O_R   0.587340 0.840868 0.422777 -0.199523
O34   O     O_R   0.636646 0.925056 0.502157 -0.164544
N16   N     N_R   0.586414 0.088219 0.450317 0.159520
O35   O     O_R   0.588620 0.051301 0.376016 -0.149324
O36   O     O_R   0.616275 0.153880 0.468290 -0.197908
F7    F     F_    0.417411 0.920053 0.537643 -0.578316
F8    F     F_    0.420394 0.089565 0.558942 -0.558942
F9    F     F_    0.470837 0.908425 0.641297 -0.471938
F10   F     F_    0.482484 0.079091 0.646925 -0.461266
F11   F     F_    0.351076 0.346757 0.552186 -0.560927
N17   N     N_R   0.126493 0.673709 0.661750 0.197000
O37   O     O_R   0.138850 0.752344 0.630735 -0.200247
O38   O     O_R   0.136158 0.654889 0.739768 -0.193051
N18   N     N_R   0.026224 0.682753 0.652087 0.183576
O39   O     O_R   0.036830 0.705741 0.728889 -0.160278
O40   O     O_R   0.994255 0.729953 0.611313 -0.271297
F12   F     F_    0.972249 0.556190 0.717031 -0.576926
F13   F     F_    0.645403 0.633640 0.415265 -0.547276

loop_
_geom_bond_atom_site_label_1
_geom_bond_atom_site_label_2
_geom_bond_distance
_ccdc_geom_bond_type
C56   C58   1.578607 S    
C58   C59   1.567609 S    
C10   H1    1.083393 S    
C37   C40   1.402158 A    
C54   F3    1.385075 S    
N2    C27   1.364640 A    
N15   O34   1.301825 A    
C21   C22   1.406999 A    
C12   C15   1.413358 A    
C4    C17   1.476963 S    
C22   N17   1.432044 S    
C48   H11   1.110234 S    
N11   O25   1.301277 A    
C7    N6    1.440266 S    
N14   O31   1.301283 A    
C30   C31   1.406052 A    
C30   F1    1.358876 S    
Cu1   O7    1.950082 S    
C23   C24   1.416134 A    
C41   C44   1.570624 S    
C22   C23   1.417524 A    
C56   F6    1.391835 S    
C57   C62   1.513046 S    
N17   O38   1.300944 A    
C24   C25   1.416384 A    
O7    C4    1.285845 A    
C15   C37   1.417829 A    
N14   O32   1.301448 A    
C9    N5    1.437908 S    
C5    O9    1.349836 S    
C25   C39   1.417753 A    
C38   C39   1.407260 A    
C43   C47   1.570929 S    
C5    N1    1.366553 A    
Cu2   N4    1.980563 S    
C23   C27   1.412084 A    
O5    C3    1.278586 A    
N10   O23   1.301297 A    
C53   C57   1.567489 S    
C28   H3    1.083129 S    
C2    C16   1.473770 S    
C7    C8    1.403967 A    
C37   N7    1.434668 S    
N9    O21   1.300700 A    
C8    F13   1.359303 S    
C47   C48   1.555555 S    
C55   N15   1.477459 S    
C1    C52   1.422570 S    
C43   N13   1.473337 S    
Cu2   O8    1.949426 S    
C21   N18   1.440767 S    
C19   C38   1.418629 A    
Cu1   N3    1.980380 S    
C41   H6    1.115785 S    
C29   F11   1.357742 S    
C60   F7    1.388636 S    
O1    Cu1   1.929518 S    
C9    C10   1.398287 A    
N9    O22   1.300970 A    
C42   C43   1.570561 S    
N3    C61   1.170522 T    
O3    Cu1   1.949177 S    
N6    O16   1.301234 A    
N13   O30   1.301366 A    
N6    O15   1.301283 A    
C12   C34   1.413891 A    
C18   C33   1.420901 A    
C26   O12   1.348693 S    
C51   C52   1.199079 T    
C60   F9    1.387702 S    
C18   C21   1.418877 A    
Cu1   Cu2   2.636835 S    
C12   C13   1.408679 A    
N18   O40   1.301554 A    
C17   C29   1.406846 A    
C25   C26   1.412648 A    
C53   C54   1.563510 S    
C27   O10   1.348807 S    
C8    C16   1.409126 A    
C13   C14   1.400857 A    
C55   C57   1.586836 S    
O6    C3    1.278895 A    
O1    C1    1.279567 A    
C18   C20   1.416968 A    
C53   H12   1.112823 S    
C46   C49   1.555523 S    
C7    C11   1.410532 A    
C28   C29   1.391292 A    
C59   F10   1.387111 S    
C49   H9    1.108840 S    
C14   C36   1.391803 A    
C54   H13   1.112932 S    
C42   H7    1.114917 S    
N11   O26   1.301446 A    
C44   C47   1.571508 S    
C40   F2    1.358599 S    
C33   C36   1.413161 A    
C47   C50   1.466446 S    
N7    O18   1.301369 A    
C34   C35   1.408342 A    
N2    C32   1.437015 S    
C49   H8    1.110247 S    
N8    O20   1.301295 A    
N1    C11   1.436166 S    
N5    O14   1.301410 A    
C55   F5    1.389814 S    
C54   C58   1.561631 S    
O3    C2    1.284549 A    
C26   N2    1.364603 A    
C39   N9    1.431959 S    
C9    C16   1.415499 A    
O8    C4    1.285468 A    
C55   C56   1.594687 S    
C36   F12   1.356906 S    
C31   N10   1.440281 S    
C41   N12   1.473331 S    
N16   O35   1.301297 A    
C35   C40   1.411338 A    
N4    C62   1.170620 T    
C42   N11   1.475046 S    
N13   O29   1.301184 A    
C42   C46   1.571479 S    
Cu1   O5    1.930885 S    
C31   C32   1.412596 A    
C43   H5    1.115785 S    
C20   C24   1.413770 A    
O2    Cu2   1.930297 S    
C6    C15   1.413799 A    
C38   N8    1.440947 S    
N18   O39   1.301347 A    
C57   C60   1.571575 S    
O4    Cu2   1.949834 S    
C44   N14   1.475054 S    
C14   H2    1.083301 S    
C53   F4    1.383124 S    
C19   C35   1.421248 A    
N1    C6    1.368971 A    
N12   O28   1.301366 A    
O2    C1    1.279351 A    
C45   C50   1.199132 T    
C48   C49   1.545435 S    
N17   O37   1.300758 A    
O4    C2    1.283669 A    
C41   C46   1.570932 S    
N7    O17   1.301146 A    
C19   C20   1.416965 A    
N15   O33   1.301136 A    
N5    O13   1.301352 A    
N10   O24   1.301246 A    
C59   F8    1.388331 S    
C56   N16   1.478032 S    
C5    C13   1.399596 A    
C6    O11   1.348315 S    
C44   H4    1.114910 S    
C59   C60   1.574059 S    
Cu2   O6    1.930101 S    
C33   C34   1.413370 A    
C17   C30   1.410328 A    
C58   C61   1.512145 S    
N8    O19   1.301545 A    
N16   O36   1.301692 A    
C10   C11   1.398318 A    
C46   C51   1.466385 S    
N12   O27   1.301196 A    
C28   C32   1.398431 A    
C48   H10   1.108847 S    
C3    C45   1.422686 S    
