data_mof_unit_67984.cif
_audit_creation_date              2013-03-05T16:49:26-0500
_audit_creation_method            fapswitch 2.2
_symmetry_space_group_name_H-M    P1
_symmetry_Int_Tables_number       1
_space_group_crystal_system       triclinic
_cell_length_a                    10.905115
_cell_length_b                    9.082182
_cell_length_c                    8.281302
_cell_angle_alpha                 89.87198
_cell_angle_beta                  90.251352
_cell_angle_gamma                 94.020054
_cell_volume                      818.17125562

loop_
_atom_site_label
_atom_site_type_symbol
_atom_site_description
_atom_site_fract_x
_atom_site_fract_y
_atom_site_fract_z
_atom_type_partial_charge
O1    O     O_R   0.499990 0.285340 0.636850 -0.614127
O2    O     O_R   0.500010 0.714660 0.363150 -0.616494
O3    O     O_R   0.500010 0.285350 0.363100 -0.627563
O4    O     O_R   0.499990 0.714650 0.636900 -0.643117
C1    C     C_R   0.497803 0.218268 0.499972 0.920587
C2    C     C_R   0.500998 0.781648 0.499946 0.923665
O5    O     O_R   0.316750 0.500000 0.636870 -0.654492
O6    O     O_R   0.683250 0.500000 0.363130 -0.652134
O7    O     O_R   0.316770 0.500020 0.363120 -0.599142
O8    O     O_R   0.683230 0.499980 0.636880 -0.615417
C3    C     C_R   0.259867 0.498936 0.499608 0.844135
C4    C     C_R   0.740322 0.506273 0.500513 0.828443
Zn1   Zn    Zn3+2 0.499990 0.499990 0.682780 0.935343
Zn2   Zn    Zn3+2 0.500010 0.500010 0.317220 0.947454
H1    H     H_    0.343255 0.703314 0.857601 0.213567
H2    H     H_    0.715924 0.297877 0.189033 0.212784
C5    C     C_R   0.279886 0.793044 0.081860 0.183845
C6    C     C_R   0.782236 0.214066 0.964588 0.166674
C7    C     C_R   0.203765 0.760505 0.218783 0.119584
C8    C     C_R   0.825685 0.257297 0.809527 0.114980
C9    C     C_R   0.132774 0.622548 0.225919 0.040879
C10   C     C_R   0.873024 0.404780 0.784736 0.013549
C11   C     C_R   0.144543 0.515580 0.104838 0.199188
C12   C     C_R   0.845722 0.515659 0.895879 0.213572
C13   C     C_R   0.225677 0.546708 0.979470 -0.222962
C14   C     C_R   0.782459 0.473490 0.035042 -0.233406
H3    H     H_    0.243456 0.460179 0.896787 0.188053
H4    H     H_    0.750247 0.558628 0.109977 0.183168
C15   C     C_R   0.286663 0.684920 0.962505 -0.171059
C16   C     C_R   0.758056 0.325142 0.074734 -0.181874
C17   C     C_R   0.939979 0.577906 0.376873 -0.283466
C18   C     C_R   0.060887 0.438082 0.625385 -0.265368
H5    H     H_    0.894411 0.634625 0.281754 0.157964
H6    H     H_    0.106337 0.379229 0.718831 0.141920
C19   C     C_R   0.873467 0.510820 0.503453 -0.108526
C20   C     C_R   0.127438 0.503600 0.498528 -0.086840
C21   C     C_R   0.935394 0.448387 0.633130 0.072687
C22   C     C_R   0.066817 0.574281 0.373357 0.077830
C23   C     C_1   0.497853 0.064822 0.499822 -0.255238
C24   C     C_1   0.499588 0.934893 0.499922 -0.236168
N1    N     N_1   0.500020 0.500030 0.073640 -0.052896
N2    N     N_1   0.499980 0.499970 0.926360 -0.066416
C25   C     C_3   0.357266 0.938669 0.068263 -0.437999
C26   C     C_3   0.426516 0.967892 0.910222 -0.857352
H7    H     H_    0.496832 0.886674 0.894524 0.269859
H8    H     H_    0.361404 0.963048 0.806523 0.263298
H9    H     H_    0.474317 0.079965 0.913563 0.269132
H10   H     H_    0.295808 0.028492 0.081068 0.216220
H11   H     H_    0.425373 0.945865 0.168040 0.231414
C27   C     C_3   0.764372 0.051249 0.008823 -0.418792
C28   C     C_3   0.720870 0.016515 0.180579 -0.909106
H12   H     H_    0.786906 0.068491 0.269218 0.259133
H13   H     H_    0.628448 0.056820 0.199308 0.280976
H14   H     H_    0.714993 0.895208 0.200334 0.260004
H15   H     H_    0.697835 0.994098 0.924783 0.216500
H16   H     H_    0.854545 0.003196 0.995378 0.225071
C29   C     C_3   0.201471 0.867264 0.359905 -0.408219
C30   C     C_3   0.074876 0.924044 0.383079 -0.928673
H17   H     H_    0.023630 0.929316 0.267190 0.265831
H18   H     H_    0.021520 0.851013 0.468413 0.283688
H19   H     H_    0.084989 0.036230 0.435995 0.263569
H20   H     H_    0.229686 0.811849 0.472428 0.201378
H21   H     H_    0.267351 0.964422 0.345946 0.208316
C31   C     C_3   0.791913 0.160906 0.664617 -0.366084
C32   C     C_3   0.875424 0.037991 0.641903 -0.975760
H22   H     H_    0.972656 0.076433 0.665983 0.278433
H23   H     H_    0.845174 0.946962 0.722421 0.266470
H24   H     H_    0.863549 0.995659 0.517350 0.269393
H25   H     H_    0.696623 0.112832 0.679079 0.216098
H26   H     H_    0.791360 0.224826 0.550753 0.200568
C33   C     C_3   0.079843 0.362573 0.111134 -0.413066
C34   C     C_3   0.164501 0.249427 0.173181 -0.853139
H27   H     H_    0.256539 0.265996 0.116530 0.266625
H28   H     H_    0.174713 0.256890 0.306073 0.261786
H29   H     H_    0.122988 0.138287 0.142219 0.249461
H30   H     H_    0.996303 0.357465 0.186730 0.232641
H31   H     H_    0.049487 0.329418 0.988092 0.198066
C35   C     C_3   0.861178 0.679575 0.855867 -0.405571
C36   C     C_3   0.991431 0.744431 0.883505 -0.912026
H32   H     H_    0.008775 0.749498 0.014266 0.263562
H33   H     H_    0.057483 0.679273 0.819221 0.291409
H34   H     H_    0.005007 0.858770 0.838334 0.252019
H35   H     H_    0.834851 0.700190 0.729529 0.219832
H36   H     H_    0.798243 0.742310 0.930124 0.191866

loop_
_geom_bond_atom_site_label_1
_geom_bond_atom_site_label_2
_geom_bond_distance
_ccdc_geom_bond_type
C5    C15   1.400683 A    
N1    N2    1.219669 T    
O7    Zn2   2.035729 S    
C29   H20   1.110581 S    
C7    C29   1.521600 S    
O5    C3    1.292287 A    
O1    C1    1.287379 A    
C18   C20   1.388440 A    
C3    C20   1.447720 S    
C7    C9    1.427155 A    
C12   C14   1.385182 A    
C33   H30   1.105882 S    
C30   H18   1.106931 S    
O4    Zn1   1.985426 S    
C35   H35   1.102785 S    
C9    C22   1.470177 S    
C32   H23   1.094602 S    
C17   H5    1.078624 S    
H1    C15   1.073819 S    
C6    C16   1.400989 A    
C31   H26   1.106435 S    
C25   H10   1.097085 S    
C6    C8    1.415841 A    
C26   H9    1.110925 S    
C30   H19   1.108215 S    
O2    C2    1.286725 A    
C34   H29   1.107080 S    
Zn1   N2    2.017160 S    
C26   H8    1.110869 S    
C29   H21   1.104324 S    
C13   C15   1.385901 A    
C28   H12   1.108822 S    
C11   C33   1.514646 S    
C2    C24   1.392966 S    
C34   H28   1.107403 S    
C23   C24   1.181510 T    
C36   H33   1.103170 S    
C35   C36   1.515716 S    
C25   H11   1.107560 S    
C30   H17   1.111080 S    
C31   H25   1.105456 S    
C10   C21   1.470791 S    
C27   H16   1.109594 S    
C28   H13   1.107801 S    
C18   H6    1.078031 S    
C8    C31   1.515831 S    
C25   C26   1.527309 S    
C5    C25   1.522391 S    
O6    C4    1.293865 A    
C32   H24   1.105489 S    
C27   C28   1.526637 S    
C18   C21   1.380025 A    
C4    C19   1.449757 S    
O7    C3    1.291508 A    
O3    Zn2   1.985425 S    
O8    C4    1.291158 A    
Zn2   N1    2.017160 S    
O4    C2    1.285604 A    
C8    C10   1.416174 A    
C14   C16   1.393795 A    
C9    C11   1.410202 A    
C17   C19   1.392121 A    
O1    Zn1   1.987083 S    
C33   H31   1.105874 S    
C26   H7    1.108873 S    
C6    C27   1.522034 S    
C12   C35   1.522363 S    
C1    C23   1.393667 S    
O6    Zn2   2.032467 S    
C19   C21   1.405499 A    
C34   H27   1.110296 S    
O3    C1    1.285159 A    
O8    Zn1   2.035729 S    
C36   H34   1.103362 S    
C13   H3    1.071897 S    
C14   H4    1.071700 S    
C27   H15   1.106633 S    
C17   C22   1.386308 A    
C28   H14   1.110894 S    
C31   C32   1.501987 S    
C20   C22   1.405042 A    
C33   C34   1.516181 S    
C29   C30   1.520267 S    
C5    C7    1.426365 A    
C10   C12   1.413674 A    
C11   C13   1.382860 A    
O2    Zn2   1.987084 S    
C36   H32   1.098953 S    
C35   H36   1.110810 S    
O5    Zn1   2.032468 S    
C32   H22   1.110182 S    
H2    C16   1.074795 S    
