data_mof_unit_5864.cif
_audit_creation_date              2012-10-26T20:18:20-0400
_audit_creation_method            fapswitch 2.2
_symmetry_space_group_name_H-M    P1
_symmetry_Int_Tables_number       1
_space_group_crystal_system       triclinic
_cell_length_a                    23.451776
_cell_length_b                    8.658119
_cell_length_c                    7.452864
_cell_angle_alpha                 102.812843
_cell_angle_beta                  95.386478
_cell_angle_gamma                 91.986469
_cell_volume                      1466.69245981

loop_
_atom_site_label
_atom_site_type_symbol
_atom_type_description
_atom_site_fract_x
_atom_site_fract_y
_atom_site_fract_z
_atom_type_partial_charge
C1    C     C_R   0.491586 0.199963 0.453724 0.572563
C2    C     C_R   0.699350 0.534585 0.368109 -0.152509
C3    C     C_R   0.246879 0.419255 0.651604 -0.057461
C4    C     C_R   0.758489 0.530538 0.369509 -0.068055
C5    C     C_R   0.209261 0.483093 0.535420 0.237830
C6    C     C_R   0.790564 0.467916 0.501207 0.236434
C7    C     C_2   0.474193 0.032340 0.425032 -0.006759
C8    C     C_2   0.476851 0.961456 0.569718 -0.002557
C9    C     C_R   0.390738 0.501383 0.500741 0.542236
C10   C     C_R   0.608787 0.491267 0.498623 0.582204
C11   C     C_R   0.883777 0.599367 0.612308 0.389902
C12   C     C_R   0.493237 0.797753 0.545635 0.567853
C13   C     C_R   0.117089 0.339160 0.455003 0.389524
C14   C     C_R   0.876684 0.345831 0.401067 0.386223
C15   C     C_R   0.124224 0.597444 0.655901 0.371078
C16   C     C_R   0.936561 0.340394 0.414478 0.025351
C17   C     C_R   0.064385 0.597985 0.653214 0.018253
C18   C     C_R   0.970287 0.469197 0.528869 -0.028106
C19   C     C_R   0.030624 0.467307 0.542876 -0.027148
C20   C     C_R   0.943830 0.600684 0.627610 0.028185
C21   C     C_R   0.057075 0.335597 0.444640 0.026280
C22   C     C_R   0.963371 0.209322 0.317906 -0.132350
C23   C     C_R   0.230147 0.555069 0.399832 0.067091
C24   C     C_R   0.037579 0.727744 0.752583 -0.134980
C25   C     C_R   0.023043 0.206487 0.333809 -0.131698
C26   C     C_R   0.977877 0.728973 0.740146 -0.129182
C27   C     C_3   0.188971 0.635355 0.284128 -0.238301
C28   C     C_3   0.162843 0.521035 0.107257 -0.395437
C29   C     C_3   0.798727 0.337387 0.776055 -0.251530
C30   C     C_3   0.803739 0.158283 0.715189 -0.375010
C31   C     C_3   0.444990 0.951025 0.233866 -0.272734
C32   C     C_3   0.389497 0.029029 0.187178 -0.433520
C33   C     C_3   0.454840 0.038921 0.752394 -0.273902
C34   C     C_R   0.763194 0.402636 0.631039 0.062180
C35   C     C_3   0.394695 0.097920 0.722041 -0.448377
C36   C     C_R   0.289586 0.554388 0.377807 0.067500
C37   C     C_R   0.702698 0.403101 0.626697 0.068591
C38   C     C_R   0.327739 0.496413 0.504245 0.005759
C39   C     C_R   0.671046 0.474906 0.497837 0.008469
C40   C     C_R   0.305426 0.431409 0.641110 -0.153960
Cu1   Cu    Cu3+1 0.506340 0.517380 0.684380 0.982831
Cu2   Cu    Cu3+1 0.493660 0.482620 0.315620 0.963106
H1    H     H_    0.938370 0.108566 0.229919 0.164841
H2    H     H_    0.546823 0.616393 0.050899 0.247101
H3    H     H_    0.196695 0.480408 0.017135 0.186478
H4    H     H_    0.140599 0.416430 0.137688 0.181119
H5    H     H_    0.130947 0.582357 0.032885 0.168418
H6    H     H_    0.153719 0.686113 0.363264 0.170265
H7    H     H_    0.210495 0.739368 0.249406 0.198054
H8    H     H_    0.760827 0.095081 0.679495 0.194921
H9    H     H_    0.828299 0.129627 0.593198 0.194902
H10   H     H_    0.826827 0.114453 0.829447 0.186174
H11   H     H_    0.842619 0.394933 0.806658 0.159663
H12   H     H_    0.062607 0.829286 0.838833 0.167248
H13   H     H_    0.780134 0.366125 0.910251 0.181615
H14   H     H_    0.359880 0.027558 0.294739 0.172519
H15   H     H_    0.397554 0.153198 0.176474 0.178927
H16   H     H_    0.367832 0.961570 0.052346 0.174610
H17   H     H_    0.475600 0.954777 0.130369 0.154313
H18   H     H_    0.431131 0.826040 0.220866 0.217319
H19   H     H_    0.394390 0.185237 0.633705 0.155658
H20   H     H_    0.363951 0.996603 0.654543 0.172260
H21   H     H_    0.380037 0.156425 0.856218 0.131086
H22   H     H_    0.450554 0.950756 0.837720 0.160229
H23   H     H_    0.042388 0.104068 0.256661 0.160809
H24   H     H_    0.485324 0.134138 0.835510 0.186972
H25   H     H_    0.958538 0.831064 0.818012 0.159072
H26   H     H_    0.333357 0.386524 0.739244 0.141205
H27   H     H_    0.675718 0.587820 0.267549 0.147799
H28   H     H_    0.230665 0.360522 0.751635 0.135794
H29   H     H_    0.779808 0.579092 0.269754 0.138483
H30   H     H_    0.452121 0.387487 0.950072 0.237280
I1    I     I_    0.319423 0.638540 0.152021 -0.462282
I2    I     I_    0.659788 0.284428 0.806123 -0.361756
N1    N     N_R   0.851730 0.471964 0.502983 -0.399997
N2    N     N_R   0.149011 0.471457 0.552934 -0.400692
N3    N     N_2   0.484110 0.456420 0.038520 -0.254343
N4    N     N_2   0.515890 0.543580 0.961480 -0.244998
O1    O     O_R   0.504120 0.286130 0.619770 -0.495519
O2    O     O_2   0.143389 0.213647 0.363684 -0.501166
O3    O     O_2   0.843577 0.225889 0.288379 -0.508922
O4    O     O_2   0.157398 0.723442 0.755766 -0.494303
O5    O     O_R   0.495880 0.713870 0.380230 -0.518766
O6    O     O_R   0.493410 0.256770 0.308360 -0.504318
O7    O     O_R   0.506590 0.743230 0.691640 -0.501059
O8    O     O_R   0.423230 0.514630 0.655730 -0.516064
O9    O     O_R   0.576770 0.485370 0.344270 -0.493541
O10   O     O_R   0.412530 0.485280 0.344320 -0.485296
O11   O     O_R   0.587470 0.514720 0.655680 -0.461172
O12   O     O_2   0.857488 0.723148 0.707340 -0.506814

loop_
_geom_bond_atom_site_label_1
_geom_bond_atom_site_label_2
_ccdc_geom_bond_type
C27   H6    S    
Cu1   O11   S    
C30   H9    S    
C28   H5    S    
C34   C37   A    
Cu1   Cu2   S    
C32   H16   S    
C37   I2    S    
C7    C8    D    
N3    N4    D    
C1    O6    A    
Cu1   O8    S    
C28   H4    S    
C29   C30   S    
C29   H11   S    
C12   O7    A    
C26   H25   S    
C19   C21   A    
C24   C26   A    
C9    O10   A    
C24   H12   S    
C18   C19   A    
C31   H17   S    
C30   H10   S    
C17   C19   A    
C2    C39   A    
C22   H1    S    
C10   O11   A    
C22   C25   A    
C23   C27   S    
C2    H27   S    
C15   N2    A    
C30   H8    S    
C13   O2    S    
C32   H15   S    
C33   H24   S    
C15   O4    S    
C10   O9    A    
C11   C20   A    
C17   C24   A    
C7    C31   S    
C6    N1    S    
C3    H28   S    
Cu2   O6    S    
C4    C6    A    
Cu1   N4    S    
C28   H3    S    
C29   H13   S    
C29   C34   S    
C6    C34   A    
C12   O5    A    
C10   C39   S    
C31   H18   S    
C2    C4    A    
H30   N3    S    
C9    O8    A    
C31   C32   S    
C5    C23   A    
C13   N2    A    
C8    C12   S    
C13   C21   A    
C35   H19   S    
C3    C40   A    
C1    O1    A    
C14   C16   A    
Cu2   O10   S    
C15   C17   A    
C21   C25   A    
C16   C22   A    
C1    C7    S    
Cu2   O5    S    
C3    C5    A    
Cu1   O1    S    
Cu1   O7    S    
C14   N1    A    
C5    N2    S    
C36   C38   A    
C37   C39   A    
C11   N1    A    
C38   C40   A    
C11   O12   S    
C20   C26   A    
C33   H22   S    
H2    N4    S    
C9    C38   S    
C33   C35   S    
C35   H20   S    
C18   C20   A    
C8    C33   S    
C36   I1    S    
Cu2   N3    S    
C16   C18   A    
C23   C36   A    
C40   H26   S    
C27   C28   S    
C25   H23   S    
C35   H21   S    
Cu2   O9    S    
C14   O3    S    
C32   H14   S    
C4    H29   S    
C27   H7    S    
