data_mof_unit_45016.cif
_audit_creation_date              2012-12-10T16:44:14-0500
_audit_creation_method            fapswitch 2.2
_symmetry_space_group_name_H-M    P1
_symmetry_Int_Tables_number       1
_space_group_crystal_system       triclinic
_cell_length_a                    7.548574
_cell_length_b                    8.695501
_cell_length_c                    13.493264
_cell_angle_alpha                 96.380278
_cell_angle_beta                  79.781446
_cell_angle_gamma                 102.519946
_cell_volume                      848.466446189

loop_
_atom_site_label
_atom_site_type_symbol
_atom_type_description
_atom_site_fract_x
_atom_site_fract_y
_atom_site_fract_z
_atom_type_partial_charge
C1    C     C_R   0.544732 0.799790 0.503479 0.875798
C2    C     C_R   0.428004 0.405197 0.963418 0.075379
C3    C     C_R   0.487133 0.418655 0.858282 0.109297
C4    C     C_R   0.560540 0.454318 0.030269 0.070980
C5    C     C_R   0.748388 0.505971 0.989713 0.181306
C6    C     C_R   0.804071 0.494389 0.886615 -0.288846
C7    C     C_R   0.677181 0.438851 0.822580 -0.230798
C8    C     C_R   0.513589 0.458410 0.135723 -0.257027
C9    C     C_R   0.832252 0.562184 0.156036 -0.208321
C10   C     C_R   0.354186 0.407820 0.793033 -0.100442
C11   C     C_2   0.568797 0.967996 0.507364 -0.367274
C12   C     C_R   0.403079 0.467678 0.690262 0.780362
C13   C     C_2   0.434771 0.032586 0.489242 -0.368765
C14   C     C_R   0.456267 0.200349 0.495234 0.876242
C15   C     C_R   0.596700 0.508408 0.307227 0.800813
C16   C     C_R   0.881414 0.561732 0.052354 -0.198117
C17   C     C_R   0.648832 0.509875 0.198068 -0.041407
C18   C     C_R   0.172379 0.335908 0.827118 -0.222648
C19   C     C_R   0.117688 0.298159 0.927105 -0.143111
C20   C     C_R   0.240829 0.339912 0.996044 -0.197588
Cu1   Cu    Cu3+1 0.321300 0.483160 0.488710 0.923843
Cu2   Cu    Cu3+1 0.678700 0.516840 0.511290 0.925133
H1    H     H_    0.937690 0.603751 0.203231 0.162075
H2    H     H_    0.308255 0.962181 0.468326 0.164001
H3    H     H_    0.984065 0.363115 0.431285 0.214835
H4    H     H_    0.947532 0.527872 0.855161 0.159686
H5    H     H_    0.024435 0.602301 0.020933 0.153135
H6    H     H_    0.372977 0.422743 0.171001 0.152079
H7    H     H_    0.071586 0.310003 0.776446 0.162337
H8    H     H_    0.187008 0.314654 0.073290 0.132694
H9    H     H_    0.976321 0.242821 0.952523 0.158552
H10   H     H_    0.733678 0.408257 0.745770 0.194726
H11   H     H_    0.697543 0.039125 0.526144 0.176129
N1    N     N_2   0.947230 0.542220 0.528320 -0.125309
N2    N     N_2   0.052770 0.457780 0.471680 -0.217555
O1    O     O_R   0.383920 0.714220 0.492660 -0.608412
O2    O     O_R   0.685730 0.742660 0.511730 -0.597825
O3    O     O_R   0.275440 0.478800 0.636790 -0.606969
O4    O     O_R   0.577250 0.507240 0.655860 -0.610554
O5    O     O_R   0.314270 0.257340 0.488270 -0.592820
O6    O     O_R   0.616080 0.285780 0.507340 -0.590401
O7    O     O_R   0.422750 0.492760 0.344140 -0.585050
O8    O     O_R   0.724560 0.521200 0.363210 -0.589546
C21   C     C_3   0.031162 0.691423 0.577867 -0.028940
C22   C     C_3   0.914518 0.753798 0.672945 -0.404811
C23   C     C_3   0.009571 0.918350 0.710477 -0.926531
H12   H     H_    0.148149 0.915965 0.726753 0.261250
H13   H     H_    0.023452 0.003931 0.652871 0.263467
H14   H     H_    0.926599 0.959186 0.781006 0.261277
H15   H     H_    0.776025 0.762571 0.663493 0.275010
H16   H     H_    0.900213 0.674815 0.733168 0.219700
H17   H     H_    0.147374 0.676685 0.610339 0.215622
H18   H     H_    0.068401 0.781674 0.522019 0.163340

loop_
_geom_bond_atom_site_label_1
_geom_bond_atom_site_label_2
_ccdc_geom_bond_type
C2    C4    A    
C6    C7    A    
Cu1   N2    S    
C15   O7    A    
C8    C17   A    
C1    C11   S    
C1    O2    A    
C4    C8    A    
C19   H9    S    
Cu1   Cu2   S    
C21   H17   S    
C12   O4    A    
C2    C3    A    
C15   O8    A    
C18   H7    S    
C20   H8    S    
C13   C14   S    
C11   C13   D    
C23   H14   S    
C6    H4    S    
Cu1   O5    S    
C10   C12   S    
C22   H15   S    
H3    N2    S    
C14   O6    A    
C3    C10   A    
Cu2   O4    S    
C9    C17   A    
C9    C16   A    
C10   C18   A    
C18   C19   A    
C3    C7    A    
C12   O3    A    
C5    C6    A    
Cu2   N1    S    
C23   H13   S    
Cu2   O6    S    
C22   H16   S    
C14   O5    A    
Cu1   O7    S    
C11   H11   S    
N1    C21   S    
C21   C22   S    
C13   H2    S    
C8    H6    S    
C15   C17   S    
N1    N2    D    
C16   H5    S    
Cu1   O1    S    
C23   H12   S    
C9    H1    S    
C5    C16   A    
C7    H10   S    
C22   C23   S    
Cu2   O2    S    
C2    C20   A    
C21   H18   S    
Cu2   O8    S    
Cu1   O3    S    
C19   C20   A    
C1    O1    A    
C4    C5    A    
