data_mof_unit_24379.cif
_audit_creation_date              2012-12-10T19:00:13-0500
_audit_creation_method            fapswitch 2.2
_symmetry_space_group_name_H-M    P1
_symmetry_Int_Tables_number       1
_space_group_crystal_system       triclinic
_cell_length_a                    9.571448
_cell_length_b                    10.832969
_cell_length_c                    13.450047
_cell_angle_alpha                 91.004244
_cell_angle_beta                  73.514541
_cell_angle_gamma                 90.828307
_cell_volume                      1336.99747586

loop_
_atom_site_label
_atom_site_type_symbol
_atom_type_description
_atom_site_fract_x
_atom_site_fract_y
_atom_site_fract_z
_atom_type_partial_charge
C1    C     C_R   0.499371 0.737435 0.503704 0.809120
C2    C     C_R   0.433462 0.492783 0.979109 0.093981
C3    C     C_R   0.454302 0.536194 0.877118 0.013862
C4    C     C_R   0.533503 0.530783 0.034628 0.091967
C5    C     C_R   0.644830 0.617957 0.990214 0.094306
C6    C     C_R   0.650103 0.671637 0.895769 -0.162123
C7    C     C_R   0.553458 0.633338 0.841382 -0.122131
C8    C     C_R   0.525956 0.485615 0.133170 -0.306184
C9    C     C_R   0.733509 0.612081 0.142504 0.243899
C10   C     C_R   0.372883 0.483799 0.813857 -0.134790
C11   C     C_R   0.368040 0.933620 0.523110 0.129666
C12   C     C_R   0.421606 0.498484 0.699980 0.790856
C13   C     C_R   0.494883 0.870076 0.518266 -0.258231
C14   C     C_R   0.612473 0.935927 0.536794 -0.218041
C15   C     C_R   0.609400 0.064923 0.544420 0.393545
C16   C     C_R   0.490748 0.129307 0.525034 -0.290648
C17   C     C_R   0.365497 0.060422 0.526052 0.048143
C18   C     C_3   0.260100 0.063489 0.462577 0.163643
C19   C     C_3   0.265447 0.922574 0.458376 0.184967
C20   C     C_R   0.960425 0.467450 0.412823 0.215541
C21   C     C_R   0.897147 0.551488 0.580005 0.452263
C22   C     C_R   0.044130 0.546416 0.581467 -0.003101
C23   C     C_R   0.497204 0.262289 0.506276 0.803860
C24   C     C_R   0.107698 0.469797 0.412098 0.239345
C25   C     C_3   0.135702 0.351853 0.352085 -0.508930
C26   C     C_3   0.976090 0.348367 0.354278 -0.470016
C27   C     C_R   0.577497 0.505119 0.300613 0.811616
C28   C     C_R   0.746584 0.654173 0.042491 -0.258974
C29   C     C_R   0.618934 0.530032 0.189182 -0.084216
C30   C     C_R   0.251914 0.406323 0.859194 0.245859
C31   C     C_R   0.220355 0.376546 0.963635 -0.212659
C32   C     C_R   0.312202 0.414976 0.021707 -0.229767
Cu1   Cu    Cu3+1 0.359330 0.500020 0.500010 0.977850
Cu2   Cu    Cu3+1 0.640670 0.499980 0.499990 0.960712
H1    H     H_    0.304949 0.108130 0.386100 0.041832
H2    H     H_    0.315801 0.881744 0.379942 0.044174
H3    H     H_    0.074806 0.584551 0.647208 0.173946
H4    H     H_    0.210622 0.364599 0.273620 0.176982
H5    H     H_    0.166883 0.278528 0.396678 0.241192
H6    H     H_    0.959424 0.358813 0.276373 0.195191
H7    H     H_    0.728890 0.743820 0.863911 0.164924
H8    H     H_    0.913479 0.271708 0.401135 0.241878
H9    H     H_    0.832312 0.719934 0.007768 0.142471
H10   H     H_    0.446206 0.417497 0.170155 0.142536
H11   H     H_    0.283112 0.383749 0.100171 0.133786
H12   H     H_    0.127621 0.317704 0.998848 0.144084
H13   H     H_    0.554713 0.681619 0.771570 0.148707
H14   H     H_    0.707693 0.888118 0.544046 0.188034
N1    N     N_R   0.852320 0.499070 0.499340 -0.236517
N2    N     N_R   0.148230 0.499110 0.499340 -0.219718
O1    O     O_R   0.381190 0.680360 0.500000 -0.550001
O2    O     O_R   0.618780 0.680320 0.499990 -0.615962
O3    O     O_R   0.323230 0.500000 0.650990 -0.556389
O4    O     O_R   0.560820 0.499960 0.650980 -0.566186
O5    O     O_R   0.381220 0.319680 0.500010 -0.550797
O6    O     O_R   0.618810 0.319640 0.500000 -0.567716
O7    O     O_R   0.439180 0.500040 0.349020 -0.590210
O8    O     O_R   0.676770 0.500000 0.349010 -0.549121
N3    N     N_2   0.830351 0.658200 0.197633 -0.416742
H15   H     H_    0.937831 0.659141 0.153424 0.245602
C33   C     C_3   0.787814 0.775610 0.249506 -0.656008
H16   H     H_    0.800238 0.849959 0.191636 0.205823
H17   H     H_    0.858149 0.797862 0.300497 0.223831
H18   H     H_    0.672754 0.771886 0.298013 0.222116
O9    O     O_3   0.725233 0.123412 0.567517 -0.715742
H19   H     H_    0.685079 0.191194 0.617426 0.341357
O10   O     O_3   0.124868 0.108603 0.521727 -0.666705
H20   H     H_    0.057337 0.095848 0.478412 0.344041
O11   O     O_3   0.134562 0.865496 0.513379 -0.661229
H21   H     H_    0.076181 0.855296 0.463442 0.311839
O12   O     O_3   0.804367 0.616139 0.658746 -0.740592
H22   H     H_    0.743385 0.665007 0.626461 0.346206
N4    N     N_2   0.163922 0.354527 0.799548 -0.419480
H23   H     H_    0.053749 0.360230 0.836252 0.250317
C34   C     C_3   0.205371 0.231050 0.761010 -0.588681
H24   H     H_    0.142455 0.202356 0.706649 0.280451
H25   H     H_    0.181804 0.165069 0.826216 0.200525
H26   H     H_    0.323295 0.228246 0.719132 0.210762

loop_
_geom_bond_atom_site_label_1
_geom_bond_atom_site_label_2
_ccdc_geom_bond_type
Cu1   O5    S    
Cu2   O6    S    
C27   C29   S    
C32   H11   S    
C4    C8    A    
C21   N1    A    
C23   O6    A    
C11   C19   S    
C21   O12   S    
C8    C29   A    
C3    C7    A    
C19   H2    S    
C5    C6    A    
C15   C16   A    
C15   O9    S    
C2    C32   A    
C18   C19   S    
N4    H23   S    
C33   H17   S    
Cu1   N2    S    
C20   C24   A    
C16   C17   A    
C31   H12   S    
C18   H1    S    
C12   O3    A    
C9    C29   A    
C22   N2    A    
N3    H15   S    
C13   C14   A    
C24   N2    A    
N4    C34   S    
O11   H21   S    
C34   H26   S    
Cu1   Cu2   S    
Cu1   O3    S    
N3    C33   S    
O10   H20   S    
C24   C25   S    
C27   O7    A    
C30   N4    S    
C14   H14   S    
C25   C26   S    
C22   H3    S    
C6    H7    S    
C9    N3    S    
C7    H13   S    
C33   H18   S    
C2    C4    A    
C34   H24   S    
C20   N1    A    
C25   H4    S    
C5    C28   A    
C1    O1    A    
C10   C30   A    
C31   C32   A    
C17   C18   S    
C34   H25   S    
C10   C12   S    
Cu2   O4    S    
C16   C23   S    
C19   O11   S    
C1    C13   S    
C26   H8    S    
C11   C17   A    
Cu2   N1    S    
Cu1   O7    S    
C8    H10   S    
C4    C5    A    
C27   O8    A    
C23   O5    A    
C6    C7    A    
Cu1   O1    S    
C28   H9    S    
Cu2   O2    S    
C2    C3    A    
C18   O10   S    
O12   H22   S    
C3    C10   A    
C25   H5    S    
C11   C13   A    
C26   H6    S    
C30   C31   A    
C20   C26   S    
C33   H16   S    
C1    O2    A    
O9    H19   S    
Cu2   O8    S    
C14   C15   A    
C21   C22   A    
C12   O4    A    
C9    C28   A    
