data_mof_unit_60927.cif
_audit_creation_date              2012-12-10T16:51:56-0500
_audit_creation_method            fapswitch 2.2
_symmetry_space_group_name_H-M    P1
_symmetry_Int_Tables_number       1
_space_group_crystal_system       triclinic
_cell_length_a                    18.370273
_cell_length_b                    18.387275
_cell_length_c                    18.364754
_cell_angle_alpha                 90.787844
_cell_angle_beta                  119.50696
_cell_angle_gamma                 119.524999
_cell_volume                      4419.97643338

loop_
_atom_site_label
_atom_site_type_symbol
_atom_type_description
_atom_site_fract_x
_atom_site_fract_y
_atom_site_fract_z
_atom_type_partial_charge
C1    C     C_R   0.777008 0.638301 0.638542 0.845755
C2    C     C_2   0.112297 0.307772 0.303341 -0.294549
C3    C     C_2   0.440275 0.162599 0.718709 -0.156198
C4    C     C_R   0.223006 0.361598 0.361210 0.854115
C5    C     C_2   0.504589 0.195394 0.807677 -0.293016
C6    C     C_2   0.442890 0.218839 0.662556 -0.163964
C7    C     C_2   0.498614 0.307738 0.695474 -0.290830
C8    C     C_2   0.056282 0.775976 0.718777 -0.163111
C9    C     C_2   0.112349 0.808344 0.807839 -0.292735
C10   C     C_2   0.943870 0.721444 0.662533 -0.168382
C11   C     C_2   0.887695 0.691934 0.695490 -0.291436
C12   C     C_3   0.572925 0.770812 0.836325 -0.285137
C13   C     C_2   0.436002 0.161114 0.219354 -0.170254
C14   C     C_2   0.507906 0.195197 0.203813 -0.284176
C15   C     C_2   0.440449 0.216776 0.279467 -0.168456
C16   C     C_R   0.502069 0.640461 0.363109 0.725654
C17   C     C_2   0.491413 0.304313 0.295982 -0.287468
C18   C     C_2   0.436809 0.773278 0.217927 -0.117258
C19   C     C_2   0.491578 0.796711 0.183822 -0.243463
C20   C     C_2   0.432112 0.708805 0.264896 -0.267279
C21   C     C_2   0.513389 0.706459 0.317897 0.354249
C22   C     C_R   0.500478 0.138575 0.861598 0.855266
C23   C     C_3   0.593133 0.793753 0.764181 -0.335585
C24   C     C_R   0.498692 0.860156 0.137115 0.831093
C25   C     C_R   0.777070 0.138578 0.138829 0.854878
C26   C     C_R   0.223060 0.861766 0.861632 0.845998
C27   C     C_R   0.501151 0.140831 0.142158 0.863398
C28   C     C_R   0.499754 0.361595 0.638577 0.856404
C29   C     C_R   0.500387 0.858609 0.858404 0.842046
C30   C     C_R   0.498743 0.359065 0.357832 0.863764
C31   C     C_R   0.499686 0.641433 0.641646 0.845572
C32   C     C_3   0.479843 0.676892 0.769716 0.583125
C33   C     C_3   0.406945 0.706315 0.735877 -0.337780
C34   C     C_3   0.520250 0.823175 0.730408 0.581328
C35   C     C_3   0.500352 0.801041 0.801415 -0.075587
C36   C     C_3   0.447487 0.594577 0.858028 0.071138
C37   C     C_3   0.537018 0.599645 0.938166 -0.313938
C38   C     C_3   0.529304 0.598481 0.017250 -0.985542
C39   C     C_3   0.663438 0.750560 0.330416 0.086932
C40   C     C_3   0.761635 0.778242 0.419178 -0.292682
C41   C     C_3   0.819262 0.747460 0.406400 -0.957277
C42   C     C_3   0.558246 0.908073 0.645727 0.077692
C43   C     C_3   0.669920 0.982211 0.685717 -0.351804
C44   C     C_3   0.691921 0.991011 0.615094 -0.939551
C45   C     C_3   0.427148 0.729272 0.663783 -0.286223
C46   C     C_3   0.499684 0.698986 0.698644 -0.077855
C47   C     C_2   0.943963 0.162620 0.219937 -0.161044
C48   C     C_2   0.887764 0.195417 0.196738 -0.293350
C49   C     C_2   0.056314 0.218849 0.278626 -0.160730
H1    H     H_    0.331770 0.670827 0.726247 0.155231
H2    H     H_    0.529777 0.765807 0.187009 0.153918
H3    H     H_    0.359315 0.661792 0.254743 0.138207
H4    H     H_    0.631607 0.788053 0.907359 0.164417
H5    H     H_    0.668333 0.828585 0.773965 0.153757
H6    H     H_    0.368978 0.713177 0.592869 0.167979
H7    H     H_    0.906752 0.091420 0.196121 0.175172
H8    H     H_    0.093725 0.184978 0.301144 0.175046
H9    H     H_    0.395814 0.185010 0.591291 0.175056
H10   H     H_    0.544151 0.343854 0.765646 0.150954
H11   H     H_    0.093678 0.790211 0.684775 0.175347
H12   H     H_    0.078291 0.343960 0.280476 0.149765
H13   H     H_    0.373188 0.091113 0.188467 0.180072
H14   H     H_    0.375511 0.530313 0.836604 0.161377
H15   H     H_    0.441417 0.647823 0.878276 0.120104
H16   H     H_    0.537666 0.542253 0.919664 0.231597
H17   H     H_    0.610087 0.661639 0.957960 0.217016
H18   H     H_    0.531169 0.656668 0.038298 0.263900
H19   H     H_    0.594865 0.601611 0.073964 0.267172
H20   H     H_    0.457344 0.536428 0.999473 0.264836
H21   H     H_    0.574709 0.263391 0.237874 0.147835
H22   H     H_    0.390947 0.798078 0.207869 0.167817
H23   H     H_    0.383759 0.091417 0.684782 0.177625
H24   H     H_    0.685936 0.786310 0.289078 0.146699
H25   H     H_    0.616896 0.678477 0.292463 0.136895
H26   H     H_    0.811667 0.851816 0.449874 0.215802
H27   H     H_    0.743695 0.749880 0.465738 0.243249
H28   H     H_    0.772613 0.673747 0.380115 0.273752
H29   H     H_    0.891913 0.771587 0.471221 0.256634
H30   H     H_    0.837469 0.774554 0.359479 0.259608
H31   H     H_    0.508782 0.924644 0.594938 0.166670
H32   H     H_    0.538695 0.844839 0.609938 0.125057
H33   H     H_    0.687471 0.046230 0.716393 0.234626
H34   H     H_    0.563841 0.265481 0.843850 0.150020
H35   H     H_    0.720482 0.967849 0.738489 0.216069
H36   H     H_    0.677062 0.928288 0.584941 0.268433
H37   H     H_    0.773310 0.045523 0.646116 0.265809
H38   H     H_    0.643230 0.006708 0.562159 0.267131
H39   H     H_    0.921603 0.265536 0.220917 0.150572
H40   H     H_    0.078527 0.797354 0.844361 0.149300
H41   H     H_    0.906523 0.704420 0.591135 0.176824
H42   H     H_    0.921420 0.705385 0.765877 0.150064
H43   H     H_    0.400317 0.184749 0.309652 0.179757
H44   H     H_    0.526514 0.337210 0.262526 0.146173
O1    O     O_3   0.500000 0.500000 0.500000 -0.486752
O2    O     O_R   0.270900 0.886160 0.946260 -0.648449
O3    O     O_R   0.560160 0.177420 0.117340 -0.648067
O4    O     O_R   0.729180 0.615300 0.675360 -0.646435
O5    O     O_R   0.440020 0.882760 0.822680 -0.620240
O6    O     O_R   0.439990 0.057240 0.117340 -0.646917
O7    O     O_R   0.560190 0.882760 0.942820 -0.658588
O8    O     O_R   0.729270 0.053840 0.113900 -0.640281
O9    O     O_R   0.270910 0.884750 0.824690 -0.645554
O10   O     O_R   0.560170 0.175430 0.946260 -0.645413
O11   O     O_R   0.440000 0.886160 0.115330 -0.643355
O12   O     O_R   0.439910 0.615300 0.386140 -0.653166
O13   O     O_R   0.270820 0.446200 0.386140 -0.643632
O14   O     O_R   0.560090 0.613880 0.384720 -0.656168
O15   O     O_R   0.439920 0.324620 0.553780 -0.645728
O16   O     O_R   0.560100 0.442800 0.382710 -0.650812
O17   O     O_R   0.560070 0.617290 0.677370 -0.620480
O18   O     O_R   0.439930 0.322630 0.382710 -0.648544
O19   O     O_R   0.439900 0.617290 0.557220 -0.654826
O20   O     O_3   0.457804 0.596441 0.786466 -0.645200
O21   O     O_3   0.610470 0.777852 0.345185 -0.638099
O22   O     O_3   0.540706 0.903100 0.712973 -0.644119
O23   O     O_R   0.560080 0.446200 0.675360 -0.638420
O24   O     O_R   0.729180 0.613880 0.553780 -0.646930
O25   O     O_R   0.270820 0.324620 0.384720 -0.643782
O26   O     O_3   0.500090 0.000040 0.000040 -0.491530
O27   O     O_R   0.440010 0.053840 0.824690 -0.636364
O28   O     O_R   0.560180 0.884750 0.113900 -0.648695
O29   O     O_R   0.729260 0.175430 0.115330 -0.644720
Zn1   Zn    Zn3+2 0.414150 0.543930 0.458110 0.964686
Zn2   Zn    Zn3+2 0.585850 0.541910 0.456060 0.948514
Zn3   Zn    Zn3+2 0.414160 0.370220 0.456060 0.963438
Zn4   Zn    Zn3+2 0.585840 0.543930 0.629770 0.986314
Zn5   Zn    Zn3+2 0.585940 0.956110 0.041940 0.961468
Zn6   Zn    Zn3+2 0.585930 0.129820 0.043980 0.972061
Zn7   Zn    Zn3+2 0.414240 0.958130 0.043980 0.959907
Zn8   Zn    Zn3+2 0.414250 0.956110 0.870280 0.979789

loop_
_geom_bond_atom_site_label_1
_geom_bond_atom_site_label_2
_ccdc_geom_bond_type
C42   H31   S    
C16   C21   S    
C17   C30   S    
O7    Zn5   S    
C33   C45   S    
C6    H9    S    
C1    C11   S    
C3    C6    S    
C47   C49   S    
C45   C46   S    
C22   O27   A    
C12   C23   S    
C27   O6    A    
C29   O5    A    
O27   Zn8   S    
C36   C37   S    
O24   Zn2   S    
O28   Zn5   S    
C41   H28   S    
C5    H34   S    
C18   H22   S    
O26   Zn8   S    
C49   H8    S    
O3    Zn6   S    
C34   C35   S    
C39   H25   S    
C28   O23   A    
C16   O14   A    
O8    Zn5   S    
C15   H43   S    
C13   H13   S    
C8    C9    D    
C31   C46   S    
C37   H16   S    
O13   Zn1   S    
O18   Zn3   S    
C31   O19   A    
C48   H39   S    
O25   Zn3   S    
O15   Zn3   S    
C36   H14   S    
C25   O29   A    
C12   H4    S    
C2    H12   S    
O1    Zn1   S    
C23   C34   S    
C38   H20   S    
C23   C46   S    
O23   Zn4   S    
C13   C14   D    
C12   C32   S    
C43   H35   S    
C14   H21   S    
C4    O25   A    
C27   O3    A    
C42   H32   S    
O14   Zn2   S    
C44   H37   S    
C36   O20   S    
C7    H10   S    
C9    C26   S    
O1    Zn4   S    
O6    Zn7   S    
C30   O16   A    
O4    Zn4   S    
O19   Zn1   S    
C9    H40   S    
C41   H29   S    
C18   C19   D    
C34   O22   S    
C4    O13   A    
C7    C28   S    
C40   H27   S    
C24   O11   A    
C2    C4    S    
C43   C44   S    
C37   C38   S    
C2    C49   D    
C11   H42   S    
O26   Zn7   S    
C47   C48   D    
C39   O21   S    
C37   H17   S    
O5    Zn8   S    
O26   Zn6   S    
C34   C45   S    
C1    O24   A    
C38   H18   S    
C12   C35   S    
O10   Zn6   S    
C25   C48   S    
C45   H6    S    
C16   O12   A    
O17   Zn4   S    
C40   C41   S    
C38   H19   S    
O11   Zn7   S    
C13   C15   S    
C14   C27   S    
C17   H44   S    
C42   C43   S    
C1    O4    A    
C44   H36   S    
C44   H38   S    
C39   C40   S    
C23   H5    S    
O1    Zn3   S    
C26   O2    A    
C15   C17   D    
C29   O7    A    
C32   C46   S    
O9    Zn8   S    
C21   O21   S    
C3    C5    D    
C41   H30   S    
O16   Zn2   S    
C6    C7    D    
C5    C22   S    
C29   C35   S    
C32   O20   S    
C40   H26   S    
C30   O18   A    
C32   C33   S    
C19   C24   S    
C33   H1    S    
C20   H3    S    
C26   O9    A    
C25   O8    A    
C28   O15   A    
C24   O28   A    
C33   C35   S    
C31   O17   A    
C3    H23   S    
C18   C20   S    
C39   H24   S    
O29   Zn6   S    
C10   C11   D    
C22   O10   A    
C19   H2    S    
C42   O22   S    
C20   C21   D    
C10   H41   S    
C8    C10   S    
O2    Zn7   S    
C43   H33   S    
O12   Zn1   S    
C36   H15   S    
C8    H11   S    
O1    Zn2   S    
C47   H7    S    
O26   Zn5   S    
