data_mof_unit_34009.cif
_audit_creation_date              2012-12-10T20:53:07-0500
_audit_creation_method            fapswitch 2.2
_symmetry_space_group_name_H-M    P1
_symmetry_Int_Tables_number       1
_space_group_crystal_system       triclinic
_cell_length_a                    18.286615
_cell_length_b                    18.268601
_cell_length_c                    18.288678
_cell_angle_alpha                 60.147098
_cell_angle_beta                  60.183005
_cell_angle_gamma                 60.051388
_cell_volume                      4332.65416341

loop_
_atom_site_label
_atom_site_type_symbol
_atom_type_description
_atom_site_fract_x
_atom_site_fract_y
_atom_site_fract_z
_atom_type_partial_charge
C1    C     C_R   0.390013 0.111945 0.108219 0.519488
C2    C     C_R   0.335178 0.841583 0.911683 -0.088856
C3    C     C_R   0.039600 0.543252 0.906361 0.042551
C4    C     C_R   0.468547 0.095795 0.957247 0.006529
C5    C     C_R   0.531452 0.904205 0.042752 0.006524
C6    C     C_R   0.963928 0.930288 0.558252 0.002953
C7    C     C_R   0.036072 0.069712 0.441748 0.002953
C8    C     C_R   0.948352 0.550346 0.943711 0.029341
C9    C     C_R   0.051648 0.449654 0.056286 0.029391
C10   C     C_R   0.552871 0.943449 0.948423 0.012215
C11   C     C_R   0.447129 0.056551 0.051576 0.012212
C12   C     C_2   0.981659 0.656644 0.116089 0.242615
C13   C     C_R   0.199800 0.228106 0.619509 -0.089658
C14   C     C_2   0.018514 0.343352 0.883812 0.242566
C15   C     C_2   0.662741 0.171771 0.876606 0.240134
C16   C     C_2   0.337258 0.828218 0.123415 0.240123
C17   C     C_2   0.105268 0.038979 0.754031 0.223308
C18   C     C_2   0.894735 0.961016 0.245970 0.223315
C19   C     C_R   0.800200 0.771891 0.380492 -0.089672
C20   C     C_R   0.123359 0.627024 0.263985 0.105843
C21   C     C_R   0.876671 0.372986 0.736044 0.105850
C22   C     C_R   0.621028 0.247656 0.085549 0.133903
C23   C     C_R   0.378976 0.752348 0.914460 0.133906
C24   C     C_R   0.287496 0.186340 0.572324 0.124219
C25   C     C_R   0.712504 0.813658 0.427676 0.124216
C26   C     C_R   0.052660 0.592434 0.309248 0.020539
C27   C     C_R   0.609987 0.888055 0.891781 0.519488
C28   C     C_R   0.947380 0.407572 0.690742 0.020543
C29   C     C_R   0.587912 0.313063 0.014752 0.021934
C30   C     C_R   0.412089 0.686936 0.985257 0.021932
C31   C     C_R   0.316494 0.094818 0.584540 0.027169
C32   C     C_R   0.683507 0.905181 0.415459 0.027172
C33   C     C_R   0.005025 0.603880 0.261099 -0.059755
C34   C     C_R   0.995056 0.396129 0.738849 -0.059792
C35   C     C_R   0.601932 0.288336 0.946177 -0.068219
C36   C     C_R   0.398067 0.711658 0.053837 -0.068249
C37   C     C_R   0.256909 0.046581 0.644247 -0.069774
C38   C     C_R   0.103476 0.116021 0.389084 0.519764
C39   C     C_R   0.743092 0.953416 0.355753 -0.069777
C40   C     C_R   0.029008 0.647062 0.168090 0.032598
C41   C     C_R   0.971112 0.352947 0.831856 0.032585
C42   C     C_R   0.646793 0.198742 0.948660 0.030053
C43   C     C_R   0.353207 0.801252 0.051358 0.030037
C44   C     C_R   0.168698 0.088877 0.691149 0.027519
C45   C     C_R   0.831303 0.911119 0.308852 0.027521
C46   C     C_R   0.099821 0.680664 0.123872 -0.157823
C47   C     C_R   0.900287 0.319350 0.876117 -0.157779
C48   C     C_R   0.677377 0.133992 0.020607 -0.154424
C49   C     C_R   0.896523 0.883979 0.610916 0.519763
C50   C     C_R   0.322625 0.866006 0.979410 -0.154425
C51   C     C_R   0.140744 0.179860 0.678430 -0.161549
C52   C     C_R   0.859256 0.820136 0.321571 -0.161551
C53   C     C_R   0.976934 0.592990 0.463235 -0.129542
C54   C     C_R   0.023063 0.407013 0.536760 -0.129540
C55   C     C_R   0.591476 0.464380 0.957457 -0.122635
C56   C     C_R   0.408524 0.535620 0.042548 -0.122645
C57   C     C_R   0.465529 0.990185 0.590483 -0.125213
C58   C     C_R   0.534472 0.009815 0.409517 -0.125215
C59   C     C_R   0.947612 0.551745 0.555794 0.043955
C60   C     C_R   0.109832 0.390491 0.110187 0.534147
C61   C     C_R   0.052386 0.448258 0.444201 0.043956
C62   C     C_R   0.552074 0.555494 0.947272 0.044419
C63   C     C_R   0.447926 0.444507 0.052732 0.044416
C64   C     C_R   0.555114 0.943878 0.552515 0.048371
C65   C     C_R   0.444886 0.056122 0.447484 0.048370
C66   C     C_R   0.971772 0.457171 0.593344 -0.008364
C67   C     C_R   0.028232 0.542833 0.406649 -0.008371
C68   C     C_R   0.459145 0.591808 0.990303 -0.009097
C69   C     C_R   0.540855 0.408192 0.009703 -0.009098
C70   C     C_R   0.590074 0.953154 0.460879 -0.010217
C71   C     C_R   0.890168 0.609509 0.889813 0.534146
C72   C     C_R   0.409927 0.046846 0.539121 -0.010218
C73   C     C_R   0.109386 0.390635 0.389548 0.537332
C74   C     C_R   0.890614 0.609365 0.610451 0.537338
C75   C     C_R   0.390521 0.389690 0.109162 0.540666
C76   C     C_R   0.609479 0.610310 0.890839 0.540673
C77   C     C_R   0.389720 0.111119 0.390387 0.527561
C78   C     C_R   0.610280 0.888881 0.609613 0.527563
C79   C     C_R   0.045419 0.042023 0.314656 0.147637
C80   C     C_R   0.954586 0.957974 0.685343 0.147635
C81   C     C_R   0.915149 0.421797 0.187675 0.132482
C82   C     C_R   0.146226 0.671121 0.171618 -0.114701
C83   C     C_R   0.084852 0.578197 0.812319 0.132493
C84   C     C_R   0.441593 0.190859 0.910398 0.100395
C85   C     C_R   0.558406 0.809140 0.089601 0.100383
C86   C     C_R   0.063103 0.977519 0.282591 -0.073965
C87   C     C_R   0.936906 0.022475 0.717408 -0.073959
C88   C     C_R   0.828196 0.422416 0.217631 -0.056457
C89   C     C_R   0.171815 0.577558 0.782360 -0.056421
C90   C     C_R   0.461304 0.223264 0.817897 -0.033982
C91   C     C_R   0.538694 0.776735 0.182102 -0.033995
C92   C     C_R   0.057525 0.893438 0.341326 -0.118846
C93   C     C_R   0.853837 0.328895 0.828412 -0.114670
C94   C     C_R   0.942483 0.106557 0.658675 -0.118846
C95   C     C_R   0.783067 0.460122 0.158300 -0.111596
C96   C     C_R   0.216949 0.539842 0.841689 -0.111584
C97   C     C_R   0.509391 0.165482 0.769315 -0.103409
C98   C     C_R   0.490608 0.834518 0.230684 -0.103415
C99   C     C_R   0.025991 0.876519 0.432872 -0.066811
C100  C     C_R   0.974012 0.123479 0.567128 -0.066817
C101  C     C_R   0.822578 0.501546 0.068483 -0.094627
C102  C     C_R   0.177430 0.498436 0.931509 -0.094617
C103  C     C_R   0.539723 0.074057 0.812115 -0.097523
C104  C     C_R   0.664826 0.158419 0.088330 -0.088853
C105  C     C_R   0.460279 0.925943 0.187884 -0.097526
C106  C     C_R   0.006485 0.941480 0.466462 -0.008197
C107  C     C_R   0.993515 0.058519 0.533538 -0.008199
C108  C     C_R   0.910514 0.502969 0.034766 -0.007026
C109  C     C_R   0.089488 0.497026 0.965230 -0.007004
C110  C     C_R   0.520411 0.037391 0.906094 -0.019381
C111  C     C_R   0.479589 0.962609 0.093905 -0.019385
C112  C     C_R   0.030416 0.018938 0.406624 0.015243
C113  C     C_R   0.969585 0.981061 0.593375 0.015241
C114  C     C_R   0.960400 0.456747 0.093635 0.042592
H1    H     H_    0.928650 0.156377 0.683730 0.133315
H2    H     H_    0.337664 0.563619 0.076032 0.148343
H3    H     H_    0.438675 0.983875 0.660477 0.142327
H4    H     H_    0.561326 0.016125 0.339522 0.142324
H5    H     H_    0.076062 0.994251 0.212522 0.137230
H6    H     H_    0.923953 0.005741 0.787477 0.137237
H7    H     H_    0.794174 0.395002 0.288189 0.156512
H8    H     H_    0.205841 0.604962 0.711803 0.156508
H9    H     H_    0.440618 0.294620 0.782444 0.158271
H10   H     H_    0.559379 0.705380 0.217555 0.158271
H11   H     H_    0.018338 0.811824 0.477240 0.158247
H12   H     H_    0.071361 0.843616 0.316271 0.133321
H13   H     H_    0.981663 0.188175 0.522761 0.158239
H14   H     H_    0.783119 0.531633 0.025988 0.155003
H15   H     H_    0.216888 0.468344 0.974003 0.154992
H16   H     H_    0.578340 0.032631 0.770020 0.119374
H17   H     H_    0.421662 0.967370 0.229979 0.119376
H18   H     H_    0.119406 0.714174 0.052229 0.125273
H19   H     H_    0.880732 0.285840 0.947761 0.125275
H20   H     H_    0.711750 0.064528 0.023981 0.108523
H21   H     H_    0.288254 0.935469 0.976038 0.108525
H22   H     H_    0.073161 0.213529 0.714335 0.103720
H23   H     H_    0.284304 0.539956 0.817503 0.155944
H24   H     H_    0.926839 0.786467 0.285667 0.103717
H25   H     H_    0.200760 0.697425 0.136444 0.136547
H26   H     H_    0.799296 0.302592 0.863617 0.136525
H27   H     H_    0.689501 0.107755 0.143071 0.141560
H28   H     H_    0.310505 0.892251 0.856942 0.141555
H29   H     H_    0.177331 0.298232 0.610761 0.141356
H30   H     H_    0.822668 0.701766 0.389240 0.141356
H31   H     H_    0.950590 0.577353 0.296185 0.169057
H32   H     H_    0.049497 0.422656 0.703732 0.169055
H33   H     H_    0.577644 0.339083 0.891129 0.182573
H34   H     H_    0.715721 0.459990 0.182484 0.155954
H35   H     H_    0.422353 0.660908 0.108885 0.182570
H36   H     H_    0.279685 0.976027 0.654061 0.173772
H37   H     H_    0.720318 0.023970 0.345937 0.173769
H38   H     H_    0.002518 0.688548 0.044057 0.123241
H39   H     H_    0.997670 0.311468 0.955850 0.123228
H40   H     H_    0.694177 0.101671 0.881675 0.105423
H41   H     H_    0.305826 0.898318 0.118347 0.105424
H42   H     H_    0.037513 0.072953 0.789813 0.092583
H43   H     H_    0.962491 0.927041 0.210192 0.092585
H44   H     H_    0.475321 0.808153 0.302426 0.140943
H45   H     H_    0.524679 0.191848 0.697574 0.140943
H46   H     H_    0.959738 0.665131 0.434186 0.144414
H47   H     H_    0.040260 0.334870 0.565813 0.144407
H48   H     H_    0.662336 0.436380 0.923973 0.148345
I1    I     I_    0.001459 0.176067 0.230124 -0.279641
I2    I     I_    0.394346 0.720560 0.809674 -0.313327
I3    I     I_    0.373143 0.264172 0.485648 -0.305989
I4    I     I_    0.626855 0.735828 0.514352 -0.306004
I5    I     I_    0.998547 0.823929 0.769873 -0.279607
I6    I     I_    0.957766 0.380019 0.296550 -0.302160
I7    I     I_    0.042223 0.619997 0.703444 -0.302144
I8    I     I_    0.379008 0.298728 0.961055 -0.365966
I9    I     I_    0.620991 0.701269 0.038944 -0.365958
I10   I     I_    0.199536 0.612367 0.330688 -0.336086
I11   I     I_    0.800431 0.387635 0.669402 -0.336095
I12   I     I_    0.605663 0.279453 0.190327 -0.313339
O1    O     O_3   0.250000 0.250000 0.250000 -0.445481
O2    O     O_R   0.865800 0.694910 0.573470 -0.546028
O3    O     O_R   0.305090 0.426530 0.134200 -0.544626
O4    O     O_R   0.694910 0.573470 0.865800 -0.544623
O5    O     O_R   0.426530 0.134200 0.305090 -0.541610
O6    O     O_R   0.573470 0.865800 0.694910 -0.541608
O7    O     O_R   0.134190 0.426530 0.134200 -0.536181
O8    O     O_R   0.865810 0.573470 0.865800 -0.536225
O9    O     O_R   0.426530 0.134200 0.134190 -0.533182
O10   O     O_R   0.573470 0.865800 0.865810 -0.533182
O11   O     O_R   0.134200 0.134190 0.426530 -0.542441
O12   O     O_3   0.750000 0.750000 0.750000 -0.445481
O13   O     O_R   0.865800 0.865810 0.573470 -0.542441
O14   O     O_R   0.426530 0.305080 0.134210 -0.511207
O15   O     O_R   0.573470 0.694920 0.865790 -0.511202
O16   O     O_R   0.305080 0.134210 0.426530 -0.532921
O17   O     O_R   0.694920 0.865790 0.573470 -0.532921
O18   O     O_R   0.134210 0.426530 0.305080 -0.520832
O19   O     O_R   0.865790 0.573470 0.694920 -0.520818
O20   O     O_2   0.919074 0.629033 0.152760 -0.492466
O21   O     O_2   0.081134 0.370933 0.847102 -0.492434
O22   O     O_2   0.641572 0.227287 0.810568 -0.478388
O23   O     O_R   0.305080 0.134200 0.134200 -0.522020
O24   O     O_2   0.358422 0.772698 0.189456 -0.478385
O25   O     O_2   0.127607 0.959620 0.766659 -0.484826
O26   O     O_2   0.872395 0.040375 0.233339 -0.484827
O27   O     O_R   0.694920 0.865800 0.865800 -0.522021
O28   O     O_R   0.134200 0.134200 0.305080 -0.516434
O29   O     O_R   0.865800 0.865800 0.694920 -0.516435
O30   O     O_R   0.134200 0.305080 0.134200 -0.492527
O31   O     O_R   0.865800 0.694920 0.865800 -0.492503
O32   O     O_R   0.134200 0.305090 0.426530 -0.546029
Zn1   Zn    Zn3+2 0.206620 0.206630 0.380140 0.966112
Zn2   Zn    Zn3+2 0.793380 0.793370 0.619860 0.966115
Zn3   Zn    Zn3+2 0.206630 0.380140 0.206620 0.982748
Zn4   Zn    Zn3+2 0.793370 0.619860 0.793380 0.982741
Zn5   Zn    Zn3+2 0.380140 0.206620 0.206630 0.974299
Zn6   Zn    Zn3+2 0.619860 0.793380 0.793370 0.974305
Zn7   Zn    Zn3+2 0.206620 0.206620 0.206620 0.994364
Zn8   Zn    Zn3+2 0.793380 0.793380 0.793380 0.994373

loop_
_geom_bond_atom_site_label_1
_geom_bond_atom_site_label_2
_ccdc_geom_bond_type
C10   C27   S    
C14   O21   D    
C49   O29   A    
C19   H30   S    
C22   C29   A    
C20   C82   A    
C100  H13   S    
O19   Zn4   S    
C90   H9    S    
O11   Zn1   S    
O29   Zn8   S    
C75   O14   A    
C1    C11   S    
C102  H15   S    
O1    Zn1   S    
C37   H36   S    
C73   O32   A    
C6    C49   S    
C92   C99   A    
C1    O9    A    
C16   O24   D    
C99   H11   S    
C106  C112  A    
C40   C46   A    
C85   I9    S    
C98   C105  A    
C20   C26   A    
C79   C112  A    
C103  C110  A    
C78   O6    A    
C77   O16   A    
O1    Zn7   S    
C48   H20   S    
C3    C109  A    
C80   C87   A    
C76   O4    A    
C50   H21   S    
C59   C66   A    
C46   H18   S    
O14   Zn5   S    
C36   H35   S    
C96   C102  A    
O9    Zn5   S    
C48   C104  A    
C87   C94   A    
C39   H37   S    
O8    Zn4   S    
C101  H14   S    
C22   C104  A    
C7    C112  A    
O4    Zn4   S    
O7    Zn3   S    
C32   C39   A    
O3    Zn3   S    
O6    Zn6   S    
C58   H4    S    
C12   H38   S    
C27   O10   A    
C107  C113  A    
C15   H40   S    
C76   O15   A    
C2    C50   A    
C13   C51   A    
C19   C52   A    
C60   O30   A    
C98   H44   S    
C100  C107  A    
C49   O13   A    
C81   C114  A    
C74   O19   A    
C52   H24   S    
C17   O25   D    
C86   H5    S    
C7    C38   S    
C64   C70   A    
C90   C97   A    
C39   C45   A    
C5    C85   A    
C101  C108  A    
O1    Zn3   S    
C105  C111  A    
C88   C95   A    
C28   C34   A    
C57   C72   A    
C46   C82   A    
C47   H19   S    
C9    C109  A    
C77   O5    A    
C71   O8    A    
C62   C76   S    
C34   C41   A    
C84   C90   A    
C53   C67   A    
C8    C108  A    
C22   I12   S    
O10   Zn6   S    
C29   C69   S    
C53   C59   A    
C83   C89   A    
C33   C40   A    
C65   C77   S    
C95   H34   S    
C11   C111  A    
C81   C88   A    
C23   C30   A    
C63   C69   A    
C41   C47   A    
C15   C42   S    
C105  H17   S    
C3    C8    A    
C96   H23   S    
O32   Zn1   S    
C58   C70   A    
O5    Zn5   S    
C32   C70   S    
C56   H2    S    
C45   C52   A    
C61   C73   S    
C56   C68   A    
C84   I8    S    
O30   Zn7   S    
C31   C37   A    
O13   Zn2   S    
C12   C40   S    
C42   C48   A    
C28   C66   S    
C6    C113  A    
C74   O2    A    
C82   H25   S    
O12   Zn8   S    
C51   H22   S    
C61   C67   A    
C58   C65   A    
C4    C84   A    
C94   C100  A    
C16   H41   S    
C6    C106  A    
C56   C63   A    
C35   H33   S    
C80   C113  A    
C4    C11   A    
C16   C43   S    
C97   C103  A    
C33   H31   S    
C14   C41   S    
C54   C66   A    
C15   O22   D    
C44   C51   A    
C31   C72   S    
C20   I10   S    
C21   C28   A    
O31   Zn8   S    
O1    Zn5   S    
C91   H10   S    
O12   Zn4   S    
C14   H39   S    
C18   O26   D    
C91   C98   A    
C2    H28   S    
C7    C107  A    
C9    C114  A    
C38   O11   A    
C18   C45   S    
C97   H45   S    
O23   Zn7   S    
C63   C75   S    
C57   C64   A    
C57   H3    S    
C23   I2    S    
O18   Zn3   S    
C60   O7    A    
C99   C106  A    
C4    C110  A    
C53   H46   S    
C80   I5    S    
C27   O27   A    
C12   O20   D    
C1    O23   A    
C78   O17   A    
C55   H48   S    
C79   I1    S    
C88   H7    S    
C102  C109  A    
O15   Zn6   S    
C92   H12   S    
C71   O31   A    
C94   H1    S    
C43   C50   A    
C26   C67   S    
C59   C74   S    
C54   C61   A    
C30   C36   A    
C25   I4    S    
C65   C72   A    
C5    C111  A    
C29   C35   A    
C21   I11   S    
C64   C78   S    
C62   C68   A    
C9    C60   S    
C108  C114  A    
C55   C69   A    
C89   C96   A    
C24   I3    S    
C17   C44   S    
C5    C10   A    
C18   H43   S    
C86   C92   A    
C3    C83   A    
C34   H32   S    
O2    Zn2   S    
O12   Zn6   S    
C21   C93   A    
C25   C32   A    
C83   I7    S    
C35   C42   A    
C81   I6    S    
C54   H47   S    
C10   C110  A    
O17   Zn2   S    
C13   H29   S    
O28   Zn7   S    
O12   Zn2   S    
C75   O3    A    
C103  H16   S    
O27   Zn8   S    
C24   C31   A    
C73   O18   A    
C47   C93   A    
C19   C25   A    
C37   C44   A    
O16   Zn1   S    
C87   H6    S    
C55   C62   A    
C13   C24   A    
C38   O28   A    
C2    C23   A    
C93   H26   S    
C104  H27   S    
C36   C43   A    
C17   H42   S    
C85   C91   A    
C79   C86   A    
C30   C68   S    
C89   H8    S    
C95   C101  A    
C26   C33   A    
C8    C71   S    
