data_mof_unit_36431.cif
_audit_creation_date              2012-12-10T20:51:46-0500
_audit_creation_method            fapswitch 2.2
_symmetry_space_group_name_H-M    P1
_symmetry_Int_Tables_number       1
_space_group_crystal_system       triclinic
_cell_length_a                    8.16939
_cell_length_b                    8.923289
_cell_length_c                    16.796291
_cell_angle_alpha                 89.518257
_cell_angle_beta                  92.926437
_cell_angle_gamma                 89.831422
_cell_volume                      1222.76619083

loop_
_atom_site_label
_atom_site_type_symbol
_atom_type_description
_atom_site_fract_x
_atom_site_fract_y
_atom_site_fract_z
_atom_type_partial_charge
C1    C     C_R   0.500090 0.218264 0.499812 0.986420
C2    C     C_R   0.630022 0.480497 0.145754 -0.089028
C3    C     C_R   0.578696 0.560807 0.902568 0.159914
C4    C     C_R   0.484655 0.468083 0.096619 0.180558
C5    C     C_R   0.651075 0.435716 0.866952 -0.057970
C6    C     C_R   0.338610 0.423111 0.131218 -0.165883
C7    C     C_R   0.627292 0.413880 0.784641 -0.135563
C8    C     C_R   0.331515 0.425783 0.215057 -0.131497
C9    C     C_1   0.500135 0.065273 0.499877 -0.132585
C10   C     C_1   0.499759 0.934737 0.500015 -0.145124
C11   C     C_2   0.742205 0.312990 0.253031 0.977320
C12   C     C_R   0.499874 0.781737 0.500086 0.925783
C13   C     C_2   0.366020 0.757674 0.725837 0.932501
C14   C     C_2   0.786706 0.535512 0.117346 1.032193
C15   C     C_2   0.414186 0.797867 0.897162 1.054851
C16   C     C_2   0.743467 0.323292 0.916671 1.022322
C17   C     C_2   0.200240 0.365490 0.079842 1.054208
C18   C     C_2   0.697521 0.279730 0.746047 0.959401
C19   C     C_2   0.177957 0.394756 0.254288 1.028438
C20   C     C_R   0.519046 0.503105 0.653222 0.905920
C21   C     C_R   0.481197 0.485274 0.346986 0.936662
C22   C     C_R   0.529570 0.517134 0.739296 -0.150438
C23   C     C_R   0.477366 0.449916 0.261550 -0.207224
C24   C     C_R   0.459827 0.644094 0.774759 -0.092895
C25   C     C_R   0.626292 0.434478 0.224865 -0.100687
C26   C     C_R   0.488002 0.667399 0.856878 -0.199017
H1    H     H_    0.902238 0.153124 0.222351 0.375757
H2    H     H_    0.348918 0.971974 0.687531 0.372074
H3    H     H_    0.961853 0.694112 0.124915 0.364968
H4    H     H_    0.628349 0.859613 0.952978 0.320078
H5    H     H_    0.736024 0.149098 0.993610 0.361743
H6    H     H_    0.029917 0.204296 0.061898 0.388983
H7    H     H_    0.660718 0.107618 0.670310 0.357451
H8    H     H_    0.066052 0.271189 0.336661 0.355748
N1    N     N_1   0.073640 0.500030 0.499990 0.001723
N2    N     N_1   0.926360 0.499970 0.500010 0.001207
N3    N     N_2   0.579065 0.569959 0.985938 -0.172974
N4    N     N_2   0.486215 0.473934 0.012595 -0.080787
O1    O     O_R   0.636850 0.285340 0.500000 -0.594659
O2    O     O_R   0.838756 0.241671 0.198265 -0.759445
O3    O     O_2   0.236126 0.724032 0.691315 -0.558273
O4    O     O_R   0.423935 0.904515 0.721958 -0.782099
O5    O     O_2   0.855242 0.467826 0.065897 -0.581993
O6    O     O_R   0.855204 0.666323 0.149564 -0.750275
O7    O     O_2   0.269177 0.827630 0.884427 -0.510674
O8    O     O_R   0.507694 0.886851 0.950265 -0.714050
O9    O     O_2   0.892957 0.319684 0.916514 -0.506136
O10   O     O_R   0.659428 0.219832 0.962142 -0.741246
O11   O     O_2   0.164368 0.425259 0.015504 -0.511113
O12   O     O_R   0.363150 0.714660 0.500000 -0.603606
O13   O     O_R   0.116682 0.237383 0.103277 -0.750265
O14   O     O_2   0.841802 0.246293 0.758663 -0.550309
O15   O     O_R   0.598653 0.193867 0.693780 -0.793187
O16   O     O_2   0.061189 0.479235 0.243656 -0.616410
O17   O     O_R   0.171480 0.273843 0.307527 -0.775741
O18   O     O_R   0.363100 0.285350 0.500000 -0.609423
O19   O     O_R   0.636900 0.714650 0.500000 -0.613857
O20   O     O_R   0.652140 0.498630 0.616140 -0.617323
O21   O     O_R   0.347860 0.501370 0.383860 -0.617048
O22   O     O_R   0.378390 0.498650 0.616130 -0.570330
O23   O     O_R   0.621610 0.501350 0.383870 -0.584081
O24   O     O_2   0.742988 0.265092 0.321452 -0.628320
Zn1   Zn    Zn3+2 0.682780 0.499990 0.500010 1.070118
Zn2   Zn    Zn3+2 0.317220 0.500010 0.499990 1.075200

loop_
_geom_bond_atom_site_label_1
_geom_bond_atom_site_label_2
_ccdc_geom_bond_type
C2    C4    A    
O18   Zn2   S    
H6    O13   S    
C21   O21   A    
N1    Zn2   S    
C20   O22   A    
C7    C22   A    
O1    Zn1   S    
C9    C10   T    
C11   O24   D    
C12   O12   A    
N1    N2    T    
C18   O15   S    
H1    O2    S    
O22   Zn2   S    
C7    C18   S    
C17   O13   S    
C13   O3    D    
C14   O6    S    
C18   O14   D    
H8    O17   S    
H3    O6    S    
C16   O10   S    
O21   Zn2   S    
N3    N4    D    
C10   C12   S    
C12   O19   A    
C13   C24   S    
C19   O16   D    
H2    O4    S    
C13   O4    S    
C1    O18   A    
C20   C22   S    
O19   Zn1   S    
C2    C25   A    
C5    C7    A    
H5    O10   S    
C23   C25   A    
C21   C23   S    
H7    O15   S    
C11   O2    S    
C2    C14   S    
C22   C24   A    
C8    C19   S    
C1    O1    A    
C15   O7    D    
C20   O20   A    
N2    Zn1   S    
C8    C23   A    
C1    C9    S    
C16   O9    D    
C4    C6    A    
C19   O17   S    
O20   Zn1   S    
O23   Zn1   S    
C6    C17   S    
C11   C25   S    
C5    C16   S    
C6    C8    A    
O12   Zn2   S    
C15   O8    S    
C3    C5    A    
C4    N4    S    
C21   O23   A    
H4    O8    S    
C3    C26   A    
C17   O11   D    
C3    N3    S    
C24   C26   A    
C14   O5    D    
C15   C26   S    
