data_mof_unit_30248.cif
_audit_creation_date              2012-12-10T19:06:29-0500
_audit_creation_method            fapswitch 2.2
_symmetry_space_group_name_H-M    P1
_symmetry_Int_Tables_number       1
_space_group_crystal_system       triclinic
_cell_length_a                    23.458557
_cell_length_b                    10.808219
_cell_length_c                    9.670093
_cell_angle_alpha                 90.932796
_cell_angle_beta                  90.083602
_cell_angle_gamma                 91.933401
_cell_volume                      2450.08042077

loop_
_atom_site_label
_atom_site_type_symbol
_atom_type_description
_atom_site_fract_x
_atom_site_fract_y
_atom_site_fract_z
_atom_type_partial_charge
C1    C     C_R   0.498719 0.262738 0.499067 0.875285
C2    C     C_R   0.119332 0.505766 0.357979 0.593524
C3    C     C_R   0.239079 0.589828 0.454447 -0.166281
C4    C     C_R   0.391278 0.495254 0.499887 0.986670
C5    C     C_R   0.298657 0.596144 0.461294 0.309954
C6    C     C_R   0.328644 0.489748 0.498437 -0.268234
C7    C     C_R   0.297585 0.378458 0.529908 0.353331
C8    C     C_R   0.238329 0.374072 0.515126 -0.126169
C9    C     C_R   0.208789 0.479067 0.479844 0.191983
C10   C     C_R   0.754490 0.363828 0.477326 -0.172920
C11   C     C_R   0.695088 0.370648 0.488370 0.395296
C12   C     C_R   0.968400 0.367334 0.697998 0.534547
C13   C     C_R   0.670439 0.487419 0.498119 -0.068996
C14   C     C_R   0.705308 0.595073 0.499692 -0.200267
C15   C     C_R   0.764324 0.587454 0.491749 -0.087025
C16   C     C_R   0.499403 0.737444 0.500588 0.863088
C17   C     C_R   0.789136 0.471876 0.480552 0.279642
C18   C     C_R   0.478584 0.064798 0.616360 0.189051
C19   C     C_R   0.492181 0.129349 0.496278 -0.099336
C20   C     C_R   0.498093 0.062504 0.371737 -0.223827
C21   C     C_R   0.498536 0.933856 0.372917 -0.176463
C22   C     C_R   0.494252 0.870732 0.498919 -0.074932
C23   C     C_R   0.027698 0.379190 0.701283 -0.184243
C24   C     C_R   0.480256 0.937662 0.617991 0.192346
C25   C     C_3   0.505259 0.939029 0.759972 -0.538371
C26   C     C_3   0.501863 0.078853 0.759589 -0.424980
C27   C     C_R   0.546780 0.543113 0.074641 0.088325
C28   C     C_R   0.608532 0.497378 0.499838 0.863646
C29   C     C_R   0.454456 0.452909 0.069699 0.305232
C30   C     C_R   0.452082 0.473652 0.925679 0.448793
C31   C     C_R   0.548130 0.535465 0.927149 0.070716
C32   C     C_3   0.576294 0.660672 0.917575 0.195689
C33   C     C_3   0.569423 0.674580 0.073544 0.210875
C34   C     C_R   0.058058 0.425449 0.587953 -0.092553
C35   C     C_R   0.878243 0.506217 0.359524 0.574281
C36   C     C_R   0.878101 0.417896 0.584486 0.576158
C37   C     C_R   0.937867 0.413305 0.584177 -0.119462
C38   C     C_R   0.968117 0.457862 0.467303 -0.106175
C39   C     C_R   0.938369 0.500095 0.349797 -0.139634
C40   C     C_3   0.930497 0.188386 0.788676 0.079174
C41   C     C_3   0.977254 0.114296 0.854655 -0.789559
C42   C     C_3   0.662052 0.202194 0.606491 0.064673
C43   C     C_3   0.646924 0.065538 0.582459 -0.807318
C44   C     C_3   0.377606 0.597308 0.887370 0.069718
C45   C     C_R   0.028459 0.461231 0.469150 -0.014839
C46   C     C_3   0.313294 0.592708 0.866089 -0.550895
C47   C     C_3   0.651499 0.757896 0.803117 0.114550
C48   C     C_3   0.716368 0.763723 0.794544 -0.656433
C49   C     C_R   0.059341 0.502179 0.353392 -0.076693
C50   C     C_R   0.030046 0.537063 0.234957 -0.194728
C51   C     C_R   0.970323 0.535620 0.230008 0.331734
C52   C     C_R   0.117772 0.435925 0.590630 0.587599
Cu1   Cu    Cu3+1 0.500000 0.499980 0.640670 1.019626
Cu2   Cu    Cu3+1 0.500000 0.500020 0.359330 1.092322
H1    H     H_    0.687100 0.685291 0.507456 0.185674
H2    H     H_    0.549622 0.723239 0.857257 0.041044
H3    H     H_    0.536035 0.741027 0.101505 0.013641
H4    H     H_    0.054080 0.566164 0.145051 0.229815
H5    H     H_    0.215690 0.671456 0.430831 0.199555
H6    H     H_    0.214404 0.288578 0.534061 0.204275
H7    H     H_    0.773697 0.274460 0.466342 0.152856
H8    H     H_    0.925368 0.160993 0.677333 0.122666
H9    H     H_    0.889534 0.162459 0.839737 0.204102
H10   H     H_    0.983204 0.143285 0.964606 0.264372
H11   H     H_    0.965121 0.014100 0.849973 0.243092
H12   H     H_    0.790858 0.671409 0.494660 0.162274
H13   H     H_    0.018047 0.128776 0.798337 0.242186
H14   H     H_    0.629980 0.242798 0.676891 0.157598
H15   H     H_    0.704540 0.208106 0.658798 0.159743
H16   H     H_    0.679935 0.022293 0.517132 0.260698
H17   H     H_    0.644746 0.017747 0.683057 0.189563
H18   H     H_    0.605077 0.054037 0.529810 0.254445
H19   H     H_    0.411236 0.190629 0.222374 0.362551
H20   H     H_    0.397395 0.663846 0.813568 0.170882
H21   H     H_    0.385793 0.633728 0.994515 0.137690
H22   H     H_    0.292632 0.528531 0.940766 0.285110
H23   H     H_    0.505920 0.109031 0.274927 0.179038
H24   H     H_    0.296364 0.686537 0.882279 0.204135
H25   H     H_    0.302490 0.560270 0.759948 0.224361
H26   H     H_    0.638030 0.844187 0.856592 0.142803
H27   H     H_    0.633181 0.754688 0.696999 0.114679
H28   H     H_    0.732522 0.672462 0.762376 0.260777
H29   H     H_    0.730431 0.834609 0.718863 0.168361
H30   H     H_    0.735164 0.788828 0.896926 0.291930
H31   H     H_    0.613513 0.836856 0.331520 0.339975
H32   H     H_    0.901670 0.388101 0.058577 0.343901
H33   H     H_    0.275742 0.836403 0.301534 0.365798
H34   H     H_    0.505640 0.885122 0.276248 0.175104
H35   H     H_    0.357841 0.072777 0.494732 0.400479
H36   H     H_    0.476417 0.893946 0.836646 0.211981
H37   H     H_    0.549964 0.909112 0.759635 0.174274
H38   H     H_    0.469779 0.114676 0.833269 0.244339
H39   H     H_    0.544288 0.127634 0.763905 0.191744
H40   H     H_    0.049842 0.349826 0.792857 0.210623
N1    N     N_R   0.850040 0.464153 0.474083 -0.470505
N2    N     N_R   0.147367 0.474042 0.476015 -0.443050
N3    N     N_R   0.500360 0.500930 0.147930 -0.291850
N4    N     N_R   0.500360 0.500890 0.852020 -0.292587
O1    O     O_R   0.500000 0.319640 0.618810 -0.568906
O2    O     O_R   0.582120 0.500020 0.618760 -0.590566
O3    O     O_R   0.582120 0.500060 0.381180 -0.505079
O4    O     O_2   0.847658 0.556198 0.258110 -0.416567
O5    O     O_3   0.940930 0.316974 0.811357 -0.526058
O6    O     O_3   0.661191 0.263690 0.478612 -0.586080
O7    O     O_2   0.347992 0.454524 0.174271 -0.255662
O8    O     O_2   0.369348 0.285579 0.017198 -0.226867
O9    O     O_3   0.406827 0.273855 0.264530 -0.480081
O10   O     O_3   0.399177 0.477665 0.864019 -0.479783
O11   O     O_3   0.633598 0.650501 0.874460 -0.492295
O12   O     O_2   0.847934 0.380309 0.695762 -0.479169
O13   O     O_2   0.668668 0.589258 0.173983 -0.188119
O14   O     O_2   0.668844 0.807354 0.109605 -0.298568
O15   O     O_3   0.616397 0.745688 0.333185 -0.583551
O16   O     O_2   0.913025 0.698221 0.081966 -0.204314
O17   O     O_2   0.983542 0.579378 0.956446 -0.280075
O18   O     O_3   0.888419 0.467383 0.022279 -0.389653
O19   O     O_2   0.366812 0.778662 0.561354 -0.322950
O20   O     O_2   0.374670 0.731104 0.314052 -0.298656
O21   O     O_3   0.286971 0.850944 0.399404 -0.480388
O22   O     O_2   0.382964 0.268895 0.668339 -0.262506
O23   O     O_2   0.146037 0.409231 0.707562 -0.510672
O24   O     O_2   0.287338 0.175154 0.683715 -0.229076
O25   O     O_3   0.341928 0.147793 0.454115 -0.474540
O26   O     O_2   0.149349 0.539637 0.244995 -0.509930
O27   O     O_R   0.500010 0.319680 0.381230 -0.557837
O28   O     O_R   0.417880 0.499940 0.618820 -0.526453
O29   O     O_R   0.417880 0.499980 0.381240 -0.485480
O30   O     O_R   0.499990 0.680320 0.618770 -0.616914
O31   O     O_R   0.500000 0.680360 0.381190 -0.552575
S1    S     S_3+6 0.393454 0.366720 0.132611 0.076848
S2    S     S_3+6 0.633813 0.703359 0.171277 0.060286
S3    S     S_3+6 0.939256 0.573676 0.068541 0.085320
S4    S     S_3+6 0.333937 0.741080 0.433235 0.004443
S5    S     S_3+6 0.328758 0.241513 0.589750 0.064830

loop_
_geom_bond_atom_site_label_1
_geom_bond_atom_site_label_2
_ccdc_geom_bond_type
C39   C51   A    
C43   H18   S    
Cu2   O3    S    
C19   C20   A    
C18   C26   S    
C35   O4    S    
O19   S4    D    
C1    O1    A    
C46   H22   S    
C7    C8    A    
C41   H13   S    
Cu1   Cu2   S    
C27   C33   S    
C5    S4    S    
C12   C23   A    
C25   H36   S    
C37   C38   A    
C40   H9    S    
C20   H23   S    
C18   C24   A    
C36   C37   A    
C2    C49   A    
C1    O27   A    
C5    C6    A    
H19   O9    S    
C10   C17   A    
C26   H38   S    
C40   H8    S    
H32   O18   S    
C18   C19   A    
C31   N4    A    
C12   C37   A    
O24   S5    D    
C38   C45   A    
C28   O3    A    
C47   C48   S    
C8    C9    A    
C33   H3    S    
Cu2   N3    S    
C11   O6    S    
C17   N1    S    
C33   S2    S    
C26   H39   S    
C14   H1    S    
C21   H34   S    
C13   C14   A    
C42   H14   S    
C47   H26   S    
O9    S1    S    
C44   C46   S    
O17   S3    D    
C44   O10   S    
Cu1   O2    S    
C38   C39   A    
Cu2   O27   S    
C25   H37   S    
C1    C19   S    
C32   O11   S    
O25   S5    S    
C27   C31   A    
C50   H4    S    
C24   C25   S    
C12   O5    S    
C4    C6    S    
Cu1   O28   S    
C46   H24   S    
C41   H11   S    
H35   O25   S    
C25   C26   S    
C47   O11   S    
C15   H12   S    
C42   H15   S    
Cu1   O1    S    
C48   H30   S    
C16   C22   S    
C44   H21   S    
C35   C39   A    
H33   O21   S    
C29   C30   A    
C3    C9    A    
Cu1   O30   S    
C52   O23   S    
C29   S1    S    
O18   S3    S    
C45   C49   A    
C23   C34   A    
C50   C51   A    
C13   C28   S    
C34   C45   A    
O21   S4    S    
C44   H20   S    
C16   O31   A    
C16   O30   A    
C9    N2    S    
C6    C7    A    
O20   S4    D    
C29   N3    A    
C7    S5    S    
O13   S2    D    
C40   C41   S    
C43   H16   S    
C2    O26   S    
C36   O12   S    
C22   C24   A    
C10   H7    S    
C42   C43   S    
O8    S1    D    
Cu2   O31   S    
C27   N3    A    
C43   H17   S    
O15   S2    S    
C4    O29   A    
C30   O10   S    
O16   S3    D    
C31   C32   S    
C3    C5    A    
C42   O6    S    
C51   S3    S    
C23   H40   S    
C15   C17   A    
O7    S1    D    
C35   N1    A    
Cu1   N4    S    
Cu2   O29   S    
C30   N4    A    
C34   C52   A    
C48   H29   S    
C4    O28   A    
C32   C33   S    
H31   O15   S    
C8    H6    S    
C40   O5    S    
C11   C13   A    
C36   N1    A    
C28   O2    A    
C46   H25   S    
C2    N2    A    
C48   H28   S    
C52   N2    A    
O22   S5    D    
C47   H27   S    
O14   S2    D    
C10   C11   A    
C20   C21   A    
C49   C50   A    
C14   C15   A    
C41   H10   S    
C21   C22   A    
C32   H2    S    
C3    H5    S    
