data_mof_unit_17856.cif
_audit_creation_date              2012-12-10T16:56:34-0500
_audit_creation_method            fapswitch 2.2
_symmetry_space_group_name_H-M    P1
_symmetry_Int_Tables_number       1
_space_group_crystal_system       triclinic
_cell_length_a                    7.841665
_cell_length_b                    8.577428
_cell_length_c                    15.693929
_cell_angle_alpha                 92.081929
_cell_angle_beta                  85.345278
_cell_angle_gamma                 92.738741
_cell_volume                      1050.35264145

loop_
_atom_site_label
_atom_site_type_symbol
_atom_type_description
_atom_site_fract_x
_atom_site_fract_y
_atom_site_fract_z
_atom_type_partial_charge
C1    C     C_R   0.543873 0.793995 0.497525 0.915052
C2    C     C_3   0.345987 0.442480 0.032793 -0.311006
C3    C     C_1   0.503488 0.500556 0.750577 -0.052772
C4    C     C_1   0.496512 0.499443 0.249423 -0.052772
C5    C     C_3   0.375854 0.589936 0.978441 0.152052
C6    C     C_3   0.624146 0.410064 0.021559 0.152052
C7    C     C_3   0.501396 0.500837 0.916830 -0.094147
C8    C     C_3   0.498603 0.499163 0.083170 -0.094147
C9    C     C_1   0.503385 0.500761 0.825900 0.119931
C10   C     C_1   0.496615 0.499239 0.174100 0.119931
C11   C     C_R   0.456127 0.206005 0.502475 0.915052
C12   C     C_R   0.501241 0.500402 0.661789 0.887427
C13   C     C_R   0.498759 0.499598 0.338211 0.887427
C14   C     C_2   0.560567 0.953578 0.481802 0.107664
C15   C     C_2   0.439433 0.046422 0.518198 0.107665
C16   C     C_3   0.527425 0.645341 0.030055 0.422600
C17   C     C_3   0.472575 0.354659 0.969945 0.422600
C18   C     C_3   0.654013 0.557520 0.967207 -0.311007
Cl1   Cl    Cl    0.565330 0.838308 0.072382 -0.439507
Cl2   Cl    Cl    0.434670 0.161692 0.927618 -0.439508
Cl3   Cl    Cl    0.715337 0.006895 0.397382 -0.459350
Cl4   Cl    Cl    0.284663 0.993105 0.602617 -0.459352
Cl5   Cl    Cl    0.040928 0.326599 0.403287 -0.371932
Cl6   Cl    Cl    0.959072 0.673401 0.596713 -0.371932
H1    H     H_    0.778904 0.605080 0.938614 0.225335
H2    H     H_    0.221096 0.394920 0.061386 0.225335
I1    I     I_    0.821889 0.268375 0.057321 -0.083277
I2    I     I_    0.178111 0.731625 0.942679 -0.083278
N1    N     N_2   0.950320 0.457950 0.477300 0.137508
N2    N     N_2   0.049680 0.542050 0.522700 0.137508
O1    O     O_R   0.389250 0.738570 0.505570 -0.582699
O2    O     O_R   0.610750 0.261430 0.494430 -0.582700
O3    O     O_R   0.678390 0.711630 0.491020 -0.561506
O4    O     O_R   0.321610 0.288370 0.508980 -0.561505
O5    O     O_R   0.355460 0.513480 0.630490 -0.581368
O6    O     O_R   0.644540 0.486520 0.369510 -0.581367
O7    O     O_R   0.644600 0.486540 0.615950 -0.593700
O8    O     O_R   0.355400 0.513460 0.384050 -0.593699
Zn1   Zn    Zn3+2 0.306940 0.517990 0.509710 1.163695
Zn2   Zn    Zn3+2 0.693060 0.482010 0.490290 1.163695

loop_
_geom_bond_atom_site_label_1
_geom_bond_atom_site_label_2
_ccdc_geom_bond_type
N2    Zn1   S    
O5    Zn1   S    
N1    N2    D    
C3    C9    T    
C1    C14   S    
C5    I2    S    
C6    I1    S    
C11   O4    A    
O6    Zn2   S    
C7    C18   S    
C1    O3    A    
C2    H2    S    
C12   O7    A    
C2    C17   S    
C13   O8    A    
C18   H1    S    
C16   Cl1   S    
Cl5   N1    S    
N1    Zn2   S    
C16   C18   S    
O1    Zn1   S    
C11   O2    A    
O7    Zn2   S    
O2    Zn2   S    
O8    Zn1   S    
C6    C18   S    
Cl6   N2    S    
C2    C5    S    
C4    C10   T    
O4    Zn1   S    
O3    Zn2   S    
C7    C9    S    
C1    O1    A    
C17   Cl2   S    
C14   Cl3   S    
C13   O6    A    
C8    C10   S    
C8    C16   S    
C4    C13   S    
C5    C7    S    
C6    C17   S    
C14   C15   D    
C5    C16   S    
C6    C8    S    
C3    C12   S    
C12   O5    A    
C11   C15   S    
C15   Cl4   S    
C2    C8    S    
C7    C17   S    
