data_mof_unit_26851.cif
_audit_creation_date              2012-12-11T14:41:09-0500
_audit_creation_method            fapswitch 2.2
_symmetry_space_group_name_H-M    P1
_symmetry_Int_Tables_number       1
_space_group_crystal_system       triclinic
_cell_length_a                    24.821607
_cell_length_b                    17.647384
_cell_length_c                    15.870742
_cell_angle_alpha                 90.508964
_cell_angle_beta                  130.589926
_cell_angle_gamma                 89.592372
_cell_volume                      5279.00509723

loop_
_atom_site_label
_atom_site_type_symbol
_atom_type_description
_atom_site_fract_x
_atom_site_fract_y
_atom_site_fract_z
_atom_type_partial_charge
C1    C     C_R   0.359179 0.353220 0.259785 -0.118278
C2    C     C_R   0.682116 0.626524 0.508356 0.042881
C3    C     C_2   0.929579 0.304560 0.680859 0.407979
C4    C     C_2   0.218751 0.395031 0.486958 0.646069
C5    C     C_2   0.239533 0.617337 0.509507 0.759406
C6    C     C_2   0.718738 0.895037 0.486923 0.645945
C7    C     C_2   0.739535 0.117338 0.509511 0.759429
C8    C     C_R   0.343272 0.180681 0.432924 0.131054
C9    C     C_R   0.321841 0.121452 0.356160 -0.172351
C10   C     C_R   0.368596 0.089724 0.344903 -0.097233
C11   C     C_R   0.437698 0.116908 0.408930 -0.095474
C12   C     C_R   0.459918 0.176079 0.483821 -0.103635
C13   C     C_R   0.187607 0.886893 0.509157 0.042986
C14   C     C_R   0.413349 0.207995 0.495499 -0.147216
C15   C     C_R   0.351121 0.841825 0.449215 0.181385
C16   C     C_R   0.390131 0.805847 0.424249 -0.094089
C17   C     C_R   0.448354 0.841053 0.446060 -0.044548
C18   C     C_R   0.468896 0.913247 0.493264 -0.078584
C19   C     C_R   0.430832 0.950516 0.517771 -0.113660
C20   C     C_R   0.371724 0.916207 0.494123 -0.148329
C21   C     C_R   0.843278 0.680681 0.432939 0.131056
C22   C     C_R   0.821849 0.621453 0.356175 -0.172351
C23   C     C_R   0.868606 0.589728 0.344919 -0.097238
C24   C     C_R   0.182118 0.126518 0.508355 0.042872
C25   C     C_R   0.937707 0.616915 0.408947 -0.095474
C26   C     C_R   0.959925 0.676084 0.483839 -0.103633
C27   C     C_R   0.913354 0.707998 0.495516 -0.147213
C28   C     C_R   0.851120 0.341824 0.449214 0.181379
C29   C     C_R   0.890132 0.305846 0.424250 -0.094095
C30   C     C_R   0.948355 0.341051 0.446062 -0.044542
C31   C     C_R   0.968897 0.413245 0.493266 -0.078579
C32   C     C_R   0.930833 0.450514 0.517771 -0.113669
C33   C     C_R   0.871724 0.416207 0.494122 -0.148335
C34   C     C_R   0.810729 0.352542 0.999407 0.146050
C35   C     C_R   0.337962 0.344831 0.504171 -0.096722
C36   C     C_R   0.858172 0.412611 0.036546 -0.202690
C37   C     C_R   0.897459 0.417622 0.002033 -0.090512
C38   C     C_R   0.890298 0.361919 0.932126 -0.114069
C39   C     C_R   0.844571 0.300682 0.898099 -0.157124
C40   C     C_R   0.805612 0.295382 0.932545 -0.145198
C41   C     C_R   0.802993 0.680418 0.980152 0.150570
C42   C     C_R   0.799672 0.751929 0.939074 -0.129999
C43   C     C_R   0.842335 0.767932 0.913076 -0.104086
C44   C     C_R   0.886475 0.711927 0.923591 -0.121752
C45   C     C_R   0.888809 0.640086 0.961905 -0.109072
C46   C     C_R   0.346719 0.669282 0.503734 -0.028416
C47   C     C_R   0.848516 0.624932 0.992661 -0.224507
C48   C     C_R   0.310729 0.852541 0.999407 0.146046
C49   C     C_R   0.358175 0.912608 0.036550 -0.202694
C50   C     C_R   0.397463 0.917617 0.002038 -0.090496
C51   C     C_R   0.390300 0.861915 0.932128 -0.114070
C52   C     C_R   0.344570 0.800681 0.898098 -0.157124
C53   C     C_R   0.305610 0.795382 0.932543 -0.145196
C54   C     C_R   0.302994 0.180417 0.980153 0.150561
C55   C     C_R   0.299681 0.251930 0.939083 -0.130001
C56   C     C_R   0.342346 0.267929 0.913090 -0.104057
C57   C     C_R   0.837960 0.844834 0.504170 -0.096706
C58   C     C_R   0.386482 0.211920 0.923599 -0.121751
C59   C     C_R   0.388808 0.140078 0.961904 -0.109072
C60   C     C_R   0.348513 0.124927 0.992658 -0.224504
C61   C     C_2   0.247242 0.393402 0.302995 0.368933
C62   C     C_2   0.251179 0.616014 0.298100 0.376358
C63   C     C_2   0.747243 0.893401 0.302991 0.368961
C64   C     C_2   0.751178 0.116014 0.298099 0.376383
C65   C     C_2   0.351653 0.319811 0.713867 0.407630
C66   C     C_2   0.377914 0.722063 0.730494 0.387566
C67   C     C_2   0.851643 0.819822 0.713860 0.407610
C68   C     C_R   0.846718 0.169282 0.503734 -0.028419
C69   C     C_2   0.877915 0.222065 0.730496 0.387574
C70   C     C_3   0.340885 0.256447 0.636695 0.006435
C71   C     C_3   0.358082 0.772032 0.635726 -0.019305
C72   C     C_3   0.840880 0.756455 0.636695 0.006451
C73   C     C_R   0.354647 0.643813 0.249169 -0.140405
C74   C     C_3   0.858083 0.272033 0.635726 -0.019304
C75   C     C_3   0.795731 0.694547 0.632867 -0.501210
C76   C     C_3   0.812945 0.339641 0.625154 -0.585659
C77   C     C_3   0.295736 0.194539 0.632866 -0.501204
C78   C     C_3   0.312945 0.839640 0.625154 -0.585654
C79   C     C_3   0.223696 0.315484 0.455515 -0.254620
C80   C     C_3   0.239427 0.698433 0.477127 -0.293140
C81   C     C_3   0.723691 0.815485 0.455504 -0.254569
C82   C     C_3   0.739427 0.198433 0.477130 -0.293149
C83   C     C_3   0.286346 0.214527 0.434524 -0.137707
C84   C     C_R   0.859179 0.853220 0.259785 -0.118281
C85   C     C_3   0.289610 0.798219 0.428033 -0.161492
C86   C     C_3   0.786349 0.714527 0.434531 -0.137714
C87   C     C_3   0.789610 0.298218 0.428033 -0.161489
C88   C     C_3   0.300285 0.284544 0.510897 0.120530
C89   C     C_3   0.311282 0.732347 0.513638 0.226335
C90   C     C_3   0.800283 0.784548 0.510896 0.120518
C91   C     C_3   0.811282 0.232347 0.513639 0.226331
C92   C     C_3   0.727024 0.681356 0.512747 0.317911
C93   C     C_3   0.735154 0.334578 0.513965 0.357415
C94   C     C_3   0.227027 0.181350 0.512747 0.317887
C95   C     C_R   0.854647 0.143813 0.249170 -0.140407
C96   C     C_3   0.235153 0.834578 0.513965 0.357414
C97   C     C_3   0.684766 0.757010 0.468618 -0.341465
C98   C     C_3   0.707167 0.254570 0.506194 -0.386492
C99   C     C_3   0.184770 0.257005 0.468623 -0.341401
C100  C     C_3   0.207166 0.754570 0.506192 -0.386493
C101  C     C_R   0.669820 0.398200 0.800627 -0.141378
C102  C     C_R   0.668806 0.606903 0.797307 -0.116391
C103  C     C_R   0.169820 0.898201 0.800627 -0.141379
C104  C     C_R   0.168806 0.106905 0.797305 -0.116389
C105  C     C_3   0.747424 0.652259 0.444464 -0.507946
C106  C     C_R   0.653654 0.379199 0.866258 0.149862
C107  C     C_3   0.733583 0.348878 0.415653 -0.487116
C108  C     C_3   0.247423 0.152257 0.444458 -0.507942
C109  C     C_3   0.233583 0.848879 0.415653 -0.487118
C110  C     C_2   0.704044 0.355635 0.983978 -0.281727
C111  C     C_2   0.704391 0.650210 0.980382 -0.285161
C112  C     C_2   0.204044 0.855635 0.983978 -0.281728
C113  C     C_2   0.204391 0.150212 0.980380 -0.285159
C114  C     C_2   0.774361 0.342463 0.043923 0.083725
C115  C     C_2   0.772597 0.670635 0.034782 0.067637
C116  C     C_2   0.274361 0.842462 0.043922 0.083727
C117  C     C_R   0.652562 0.627585 0.862394 0.158032
C118  C     C_2   0.272596 0.170636 0.034780 0.067638
C119  C     C_2   0.374880 0.764478 0.188579 -0.228023
C120  C     C_2   0.379338 0.231498 0.198542 -0.187798
C121  C     C_2   0.874880 0.264479 0.188580 -0.228025
C122  C     C_2   0.879338 0.731498 0.198542 -0.187800
C123  C     C_2   0.312369 0.796632 0.145351 -0.172670
C124  C     C_2   0.313897 0.204399 0.146514 -0.167940
C125  C     C_2   0.812370 0.296633 0.145351 -0.172668
C126  C     C_2   0.813898 0.704398 0.146516 -0.167946
C127  C     C_R   0.618624 0.400905 0.413520 -0.165216
C128  C     C_R   0.153654 0.879200 0.866258 0.149860
C129  C     C_R   0.615803 0.605781 0.412542 -0.162526
C130  C     C_R   0.118624 0.900905 0.413520 -0.165216
C131  C     C_R   0.115804 0.105777 0.412542 -0.162522
C132  C     C_R   0.400049 0.377065 0.595041 -0.161483
C133  C     C_R   0.405981 0.632549 0.594619 0.012852
C134  C     C_R   0.900047 0.877068 0.595041 -0.161494
C135  C     C_R   0.905980 0.132549 0.594619 0.012850
C136  C     C_R   0.690754 0.400411 0.597240 -0.141536
C137  C     C_R   0.688641 0.605553 0.597403 -0.136627
C138  C     C_R   0.190754 0.900410 0.597240 -0.141536
C139  C     C_R   0.152561 0.127587 0.862392 0.158035
C140  C     C_R   0.188642 0.105550 0.597403 -0.136622
C141  C     C_R   0.319462 0.378990 0.408843 -0.020044
C142  C     C_R   0.322822 0.626903 0.408571 -0.117199
C143  C     C_R   0.819461 0.878991 0.408842 -0.020060
C144  C     C_R   0.822822 0.126903 0.408571 -0.117210
C145  C     C_R   0.581670 0.395944 0.804774 -0.093973
C146  C     C_R   0.581570 0.607078 0.803857 -0.089210
C147  C     C_R   0.081670 0.895944 0.804774 -0.093979
C148  C     C_R   0.081570 0.107079 0.803857 -0.089205
C149  C     C_R   0.450057 0.352611 0.261609 -0.136440
C150  C     C_R   0.687607 0.386893 0.509157 0.042985
C151  C     C_R   0.447629 0.645309 0.256286 -0.123167
C152  C     C_R   0.950057 0.852611 0.261609 -0.136438
C153  C     C_R   0.947629 0.145309 0.256286 -0.123169
C154  C     C_R   0.396893 0.308616 0.242051 0.130694
C155  C     C_R   0.392002 0.687809 0.231196 0.131309
C156  C     C_R   0.896894 0.808616 0.242051 0.130700
C157  C     C_R   0.892003 0.187810 0.231197 0.131313
C158  C     C_2   0.412141 0.218521 0.689157 0.356916
C159  C     C_2   0.429579 0.804559 0.680860 0.407974
C160  C     C_2   0.912138 0.718530 0.689166 0.356906
H1    H     H_    0.314700 0.335356 0.250269 0.156132
H2    H     H_    0.315213 0.839388 0.697015 0.148216
H3    H     H_    0.844962 0.448035 0.515560 0.095981
H4    H     H_    0.865947 0.453728 0.094550 0.118569
H5    H     H_    0.934292 0.463836 0.030936 0.116623
H6    H     H_    0.920856 0.365712 0.905692 0.102706
H7    H     H_    0.839049 0.256621 0.845696 0.151511
H8    H     H_    0.771275 0.247044 0.907140 0.141307
H9    H     H_    0.767581 0.796586 0.934191 0.135357
H10   H     H_    0.842734 0.824579 0.888400 0.172751
H11   H     H_    0.919823 0.724444 0.903994 0.141323
H12   H     H_    0.923754 0.597161 0.971509 0.122214
H13   H     H_    0.782339 0.711173 0.685103 0.199320
H14   H     H_    0.853973 0.571152 0.029010 0.123604
H15   H     H_    0.365952 0.953723 0.094557 0.118573
H16   H     H_    0.434298 0.963830 0.030945 0.116633
H17   H     H_    0.420858 0.865707 0.905695 0.102707
H18   H     H_    0.339047 0.756621 0.845694 0.151512
H19   H     H_    0.271271 0.747046 0.907134 0.141306
H20   H     H_    0.267594 0.296590 0.934206 0.135359
H21   H     H_    0.342753 0.324577 0.888423 0.172746
H22   H     H_    0.419831 0.224434 0.904004 0.141318
H23   H     H_    0.423749 0.097149 0.971503 0.122215
H24   H     H_    0.815213 0.339390 0.697015 0.148216
H25   H     H_    0.353963 0.071146 0.028998 0.123607
H26   H     H_    0.225801 0.450067 0.284535 0.028092
H27   H     H_    0.242056 0.565295 0.251662 0.047929
H28   H     H_    0.725803 0.950068 0.284524 0.028114
H29   H     H_    0.742057 0.065297 0.251659 0.047923
H30   H     H_    0.404244 0.338576 0.785690 0.073136
H31   H     H_    0.417400 0.742606 0.815157 0.014109
H32   H     H_    0.904232 0.838588 0.785686 0.073149
H33   H     H_    0.917401 0.242609 0.815158 0.014108
H34   H     H_    0.677227 0.777977 0.526797 0.208077
H35   H     H_    0.721434 0.240335 0.586844 0.217712
H36   H     H_    0.177230 0.277966 0.526803 0.208098
H37   H     H_    0.221432 0.740334 0.586842 0.217714
H38   H     H_    0.746711 0.733924 0.347689 0.189068
H39   H     H_    0.761320 0.273866 0.344722 0.178066
H40   H     H_    0.246705 0.233926 0.347684 0.189074
H41   H     H_    0.306426 0.660034 0.229732 0.118107
H42   H     H_    0.261321 0.773867 0.344722 0.178067
H43   H     H_    0.781560 0.600990 0.485417 0.168138
H44   H     H_    0.738136 0.409881 0.405556 0.156606
H45   H     H_    0.281559 0.100987 0.485407 0.168138
H46   H     H_    0.238137 0.909881 0.405557 0.156606
H47   H     H_    0.699377 0.634557 0.359805 0.155498
H48   H     H_    0.680444 0.332568 0.336792 0.168888
H49   H     H_    0.199375 0.134556 0.359800 0.155496
H50   H     H_    0.180444 0.832569 0.336791 0.168888
H51   H     H_    0.191626 0.319448 0.364808 0.161186
H52   H     H_    0.814700 0.835355 0.250269 0.156129
H53   H     H_    0.200159 0.696118 0.386018 0.173181
H54   H     H_    0.691624 0.819439 0.364796 0.161239
H55   H     H_    0.700159 0.196117 0.386020 0.173187
H56   H     H_    0.720310 0.408238 0.823469 0.121625
H57   H     H_    0.719680 0.599947 0.820196 0.110998
H58   H     H_    0.220310 0.908240 0.823470 0.121624
H59   H     H_    0.219679 0.099950 0.820192 0.110998
H60   H     H_    0.630608 0.748802 0.386793 0.145424
H61   H     H_    0.648184 0.250961 0.441656 0.154439
H62   H     H_    0.130612 0.248798 0.386797 0.145408
H63   H     H_    0.806426 0.160034 0.229733 0.118101
H64   H     H_    0.148183 0.750961 0.441653 0.154437
H65   H     H_    0.281790 0.775659 0.166977 0.141813
H66   H     H_    0.283944 0.224013 0.170385 0.159126
H67   H     H_    0.781790 0.275659 0.166977 0.141811
H68   H     H_    0.783946 0.724011 0.170387 0.159127
H69   H     H_    0.408402 0.787388 0.173585 0.162612
H70   H     H_    0.411921 0.207771 0.181614 0.150718
H71   H     H_    0.908402 0.287388 0.173585 0.162608
H72   H     H_    0.911921 0.707771 0.181613 0.150716
H73   H     H_    0.680686 0.342864 0.021081 0.149853
H74   H     H_    0.824447 0.639483 0.668271 0.132669
H75   H     H_    0.684813 0.651888 0.024899 0.141550
H76   H     H_    0.180686 0.842864 0.021081 0.149854
H77   H     H_    0.184812 0.151891 0.024897 0.141548
H78   H     H_    0.597741 0.399618 0.328850 0.098677
H79   H     H_    0.594952 0.609061 0.328000 0.095357
H80   H     H_    0.097741 0.899618 0.328850 0.098677
H81   H     H_    0.094953 0.109058 0.328000 0.095356
H82   H     H_    0.429844 0.370519 0.682055 0.136275
H83   H     H_    0.436851 0.642721 0.681741 0.132788
H84   H     H_    0.929840 0.870524 0.682055 0.136281
H85   H     H_    0.834534 0.395867 0.630062 0.155272
H86   H     H_    0.936850 0.142721 0.681741 0.132794
H87   H     H_    0.736284 0.400577 0.684742 0.104435
H88   H     H_    0.734881 0.605959 0.684697 0.100800
H89   H     H_    0.236284 0.900577 0.684742 0.104434
H90   H     H_    0.234883 0.105954 0.684697 0.100798
H91   H     H_    0.554548 0.398029 0.837203 0.111112
H92   H     H_    0.555697 0.604729 0.838272 0.088966
H93   H     H_    0.054548 0.898029 0.837203 0.111120
H94   H     H_    0.055698 0.104729 0.838272 0.088965
H95   H     H_    0.489192 0.334400 0.255810 0.105302
H96   H     H_    0.324451 0.139473 0.668265 0.132670
H97   H     H_    0.486375 0.663302 0.250078 0.100621
H98   H     H_    0.989192 0.834400 0.255809 0.105301
H99   H     H_    0.986376 0.163302 0.250080 0.100620
H100  H     H_    0.412766 0.165211 0.655284 0.071757
H101  H     H_    0.450653 0.854154 0.734657 0.034865
H102  H     H_    0.912766 0.665218 0.655300 0.071761
H103  H     H_    0.950651 0.354158 0.734649 0.034866
H104  H     H_    0.265188 0.431057 0.538402 0.039576
H105  H     H_    0.260376 0.571794 0.491660 -0.065836
H106  H     H_    0.765179 0.931051 0.538415 0.039676
H107  H     H_    0.334534 0.895866 0.630063 0.155272
H108  H     H_    0.760377 0.071794 0.491663 -0.065815
H109  H     H_    0.268120 0.099954 0.303428 0.114479
H110  H     H_    0.350982 0.044289 0.285790 0.121269
H111  H     H_    0.473846 0.092458 0.399950 0.125187
H112  H     H_    0.513460 0.197601 0.532920 0.131423
H113  H     H_    0.434018 0.253206 0.554531 0.148136
H114  H     H_    0.376071 0.749847 0.388926 0.112967
H115  H     H_    0.477963 0.811943 0.427209 0.119340
H116  H     H_    0.514347 0.940286 0.511020 0.131259
H117  H     H_    0.447171 0.006310 0.555474 0.132066
H118  H     H_    0.282347 0.211163 0.685107 0.199321
H119  H     H_    0.344963 0.948035 0.515563 0.095978
H120  H     H_    0.768129 0.599952 0.303443 0.114480
H121  H     H_    0.850994 0.544294 0.285806 0.121270
H122  H     H_    0.973856 0.592468 0.399967 0.125187
H123  H     H_    0.013466 0.697609 0.532938 0.131422
H124  H     H_    0.934021 0.753208 0.554547 0.148137
H125  H     H_    0.876071 0.249846 0.388927 0.112969
H126  H     H_    0.977965 0.311940 0.427213 0.119343
H127  H     H_    0.014349 0.440284 0.511023 0.131271
H128  H     H_    0.947171 0.506309 0.555475 0.132070
N1    N     N_R   0.389430 0.421450 0.294590 -0.053569
N2    N     N_R   0.581780 0.577610 0.443390 -0.032756
N3    N     N_R   0.081780 0.922390 0.443390 -0.034530
N4    N     N_R   0.081780 0.077610 0.443390 -0.032757
N5    N     N_R   0.419850 0.423100 0.556610 -0.045074
N6    N     N_R   0.419850 0.576900 0.556610 -0.062657
N7    N     N_R   0.919850 0.923100 0.556610 -0.045072
N8    N     N_R   0.919850 0.076900 0.556610 -0.062656
N9    N     N_R   0.627410 0.423100 0.556610 -0.036308
N10   N     N_R   0.627410 0.576900 0.556610 -0.033646
N11   N     N_R   0.127410 0.923100 0.556610 -0.036308
N12   N     N_R   0.389430 0.578550 0.294590 -0.049894
N13   N     N_R   0.127410 0.076900 0.556610 -0.033646
N14   N     N_R   0.374220 0.422390 0.443390 -0.071657
N15   N     N_R   0.374220 0.577610 0.443390 -0.075733
N16   N     N_R   0.874220 0.922390 0.443390 -0.071657
N17   N     N_R   0.874220 0.077610 0.443390 -0.075732
N18   N     N_R   0.555000 0.424040 0.705410 -0.050194
N19   N     N_R   0.555000 0.575960 0.705410 -0.044138
N20   N     N_R   0.055000 0.924040 0.705410 -0.050194
N21   N     N_R   0.055000 0.075960 0.705410 -0.044138
N22   N     N_R   0.446630 0.421450 0.294590 -0.042853
N23   N     N_R   0.889430 0.921450 0.294590 -0.053570
N24   N     N_R   0.446630 0.578550 0.294590 -0.041490
N25   N     N_R   0.946630 0.921450 0.294590 -0.042853
N26   N     N_R   0.946630 0.078550 0.294590 -0.041489
N27   N     N_R   0.889430 0.078550 0.294590 -0.049894
N28   N     N_R   0.612200 0.424040 0.705410 -0.052111
N29   N     N_R   0.612200 0.575960 0.705410 -0.049022
N30   N     N_R   0.112200 0.924040 0.705410 -0.052111
N31   N     N_R   0.112200 0.075960 0.705410 -0.049023
N32   N     N_R   0.581780 0.422390 0.443390 -0.034530
Ni1   Ni    Ni4+2 0.382890 0.500000 0.370170 0.204695
Ni2   Ni    Ni4+2 0.882890 0.000000 0.370170 0.204692
Ni3   Ni    Ni4+2 0.618740 0.500000 0.629830 0.209481
Ni4   Ni    Ni4+2 0.118740 0.000000 0.629830 0.209480
Ni5   Ni    Ni4+2 0.514090 0.500000 0.370170 0.219374
Ni6   Ni    Ni4+2 0.014090 0.000000 0.370170 0.219374
Ni7   Ni    Ni4+2 0.487550 0.500000 0.629830 0.212277
Ni8   Ni    Ni4+2 0.987550 0.000000 0.629830 0.212276
O1    O     O_2   0.468798 0.243686 0.771785 -0.617652
O2    O     O_2   0.204344 0.663480 0.252369 -0.626822
O3    O     O_2   0.711424 0.843094 0.235037 -0.620510
O4    O     O_2   0.704343 0.163478 0.252371 -0.626821
O5    O     O_2   0.301681 0.348505 0.700389 -0.608800
O6    O     O_2   0.352623 0.659701 0.716769 -0.581489
O7    O     O_2   0.801669 0.848518 0.700372 -0.608835
O8    O     O_2   0.852626 0.159701 0.716772 -0.581497
O9    O     O_2   0.466546 0.774671 0.664510 -0.582107
O10   O     O_2   0.968793 0.743698 0.771795 -0.617658
O11   O     O_2   0.966548 0.274669 0.664514 -0.582109
O12   O     O_2   0.161450 0.420947 0.450486 -0.574529
O13   O     O_2   0.213978 0.601248 0.551793 -0.544602
O14   O     O_2   0.661424 0.920973 0.450366 -0.574567
O15   O     O_2   0.713981 0.101249 0.551799 -0.544612
O16   O     O_2   0.211424 0.343097 0.235036 -0.620506

loop_
_geom_bond_atom_site_label_1
_geom_bond_atom_site_label_2
_ccdc_geom_bond_type
C145  N18   A    
C5    H105  S    
C142  N15   A    
C87   C91   S    
C55   H20   S    
C19   C20   A    
C159  O9    D    
C20   H119  S    
C138  H89   S    
C137  N10   A    
C24   C140  A    
C79   C99   S    
C41   C115  S    
C127  C150  A    
C98   H61   S    
C3    C74   S    
C102  H57   S    
C21   C86   S    
C152  C156  A    
C78   C96   S    
N7    Ni8   S    
C151  C155  A    
C6    O14   D    
C15   C85   S    
C83   C88   S    
C99   H62   S    
C59   C60   A    
C21   C22   A    
C82   C98   S    
C135  H86   S    
C93   C150  S    
C48   C53   A    
C77   H96   S    
C63   O3    D    
C43   H10   S    
C45   C47   A    
C15   C20   A    
C7    O15   D    
C57   C90   S    
C51   C52   A    
C131  H81   S    
C120  H70   S    
C137  H88   S    
N26   N27   A    
C73   H41   S    
C82   C91   S    
C136  H87   S    
C117  C146  A    
N18   Ni7   S    
C37   C38   A    
N12   N24   A    
C127  N32   A    
C73   C155  A    
C69   H33   S    
C1    N1    A    
C69   C74   S    
C118  C124  S    
C115  C126  S    
N6    N15   A    
C85   H42   S    
C86   H38   S    
C81   C90   S    
C132  H82   S    
C28   C33   A    
C153  H99   S    
C45   H12   S    
C49   H15   S    
C144  N17   A    
N6    Ni7   S    
C62   O2    D    
C128  C147  A    
C123  H65   S    
C119  C123  D    
C96   C109  S    
C84   C156  A    
C24   C131  A    
C1    C154  A    
C66   O6    D    
C47   H14   S    
C119  H69   S    
C82   H55   S    
C87   C107  S    
C127  H78   S    
C22   C23   A    
N21   Ni8   S    
C35   C132  A    
N15   Ni1   S    
C148  H94   S    
C61   O16   D    
C8    C83   S    
N19   N29   A    
N1    Ni1   S    
N9    Ni3   S    
C46   C89   S    
C132  N5    A    
C74   C76   S    
C36   C37   A    
C33   H3    S    
C38   C39   A    
C22   H120  S    
C65   C70   S    
C77   C94   S    
C2    C129  A    
C67   C72   S    
N3    Ni6   S    
C130  N3    A    
C6    H106  S    
C113  C139  S    
C9    C10   A    
C110  C114  D    
C110  H73   S    
C4    H104  S    
C48   C116  S    
C103  N30   A    
C129  H79   S    
C70   C77   S    
C160  H102  S    
C62   C142  S    
C72   C75   S    
C53   H19   S    
C17   H115  S    
C92   C97   S    
C18   H116  S    
C149  N22   A    
C139  C148  A    
C13   C96   S    
C140  H90   S    
N14   Ni1   S    
C16   H114  S    
C27   H124  S    
C67   H32   S    
N11   Ni4   S    
C69   O8    D    
C37   H5    S    
C25   C26   A    
C147  N20   A    
C147  H93   S    
C95   H63   S    
C152  N25   A    
C77   H118  S    
C104  H59   S    
C121  C125  D    
C29   C30   A    
C72   C90   S    
C31   C32   A    
C13   C130  A    
C28   C87   S    
C120  C154  S    
C17   C18   A    
C41   C47   A    
C97   H60   S    
N4    N13   A    
C133  N6    A    
C59   H23   S    
C134  H84   S    
C102  C117  A    
C143  N16   A    
C61   C141  S    
C129  N2    A    
N23   N25   A    
C112  C116  D    
C136  N9    A    
C151  H97   S    
C36   H4    S    
C101  C106  A    
C9    H109  S    
C54   C55   A    
C29   H125  S    
C95   C157  A    
C104  N31   A    
C11   H111  S    
C145  H91   S    
C68   C135  A    
C31   H127  S    
C32   H128  S    
C80   H53   S    
C149  H95   S    
N30   Ni4   S    
C111  C117  S    
C13   C138  A    
N5    Ni7   S    
C138  N11   A    
C158  H100  S    
C96   C100  S    
C56   C58   A    
C68   C144  A    
C34   C36   A    
C10   C11   A    
C103  H58   S    
C39   C40   A    
C102  N29   A    
C67   O7    D    
C49   C50   A    
C63   C143  S    
C140  N13   A    
C83   H40   S    
C51   H17   S    
C84   N23   A    
C148  N21   A    
C55   C56   A    
C60   H25   S    
C121  H71   S    
C160  O10   D    
C41   C42   A    
C76   H85   S    
N2    N10   A    
C87   H39   S    
C64   H29   S    
C64   O4    D    
C46   C142  A    
C52   C53   A    
C79   H51   S    
C26   C27   A    
C106  C145  A    
C28   C29   A    
C116  C123  S    
C85   C109  S    
N27   Ni2   S    
C3    O11   D    
C30   C31   A    
C105  H43   S    
C56   H21   S    
N8    N17   A    
C83   C108  S    
C75   H74   S    
C18   C19   A    
C80   C89   S    
C16   C17   A    
C111  H75   S    
C21   C27   A    
C1    H1    S    
N19   Ni7   S    
C79   C88   S    
C23   H121  S    
C141  N14   A    
N17   Ni2   S    
C85   C89   S    
N26   Ni6   S    
C58   C59   A    
C112  H76   S    
C99   H36   S    
C146  H92   S    
C70   C158  S    
C97   H34   S    
C149  C154  A    
N20   Ni8   S    
C42   H9    S    
C76   C93   S    
C101  N28   A    
C66   C71   S    
C159  H101  S    
C94   C108  S    
N13   Ni4   S    
C50   C51   A    
N32   Ni5   S    
C5    O13   D    
N2    Ni5   S    
C107  H48   S    
C48   C49   A    
C19   H117  S    
C86   C90   S    
C8    C14   A    
C57   C134  A    
C42   C43   A    
C109  H50   S    
C44   C45   A    
C38   H6    S    
C158  O1    D    
N31   Ni4   S    
N8    Ni8   S    
C2    C137  A    
C122  C156  S    
C12   H112  S    
C108  H45   S    
C124  H66   S    
C84   H52   S    
C122  H72   S    
C104  C139  A    
C58   H22   S    
C32   C33   A    
C44   H11   S    
C95   N27   A    
C78   H107  S    
C46   C133  A    
C153  C157  A    
C52   H18   S    
C112  C128  S    
C65   O5    D    
C152  H98   S    
C92   C105  S    
C65   H30   S    
N24   Ni5   S    
C10   H110  S    
C30   H126  S    
N16   Ni2   S    
C25   H122  S    
C125  H67   S    
C133  H83   S    
C62   H27   S    
C74   C91   S    
C75   H13   S    
C4    O12   D    
C43   C44   A    
C70   C88   S    
C108  H49   S    
C54   C60   A    
C130  H80   S    
C131  N4    A    
C34   C40   A    
C100  H64   S    
C101  H56   S    
C15   C16   A    
C68   C91   S    
C50   H16   S    
C134  N7    A    
N28   Ni3   S    
C8    C9    A    
N25   Ni6   S    
N3    N11   A    
C100  H37   S    
C113  H77   S    
C151  N24   A    
C121  C157  S    
C80   C100  S    
C73   N12   A    
N12   Ni1   S    
C109  H46   S    
N4    Ni6   S    
C105  H47   S    
C57   C143  A    
C4    C79   S    
C114  C125  S    
C64   C144  S    
C122  C126  D    
C135  N8    A    
C24   C94   S    
C35   C88   S    
N29   Ni3   S    
C81   H54   S    
C71   C89   S    
C66   H31   S    
C5    C80   S    
C2    C92   S    
C103  C128  A    
C26   H123  S    
C75   C92   S    
C35   C141  A    
C12   C14   A    
C78   H2    S    
C3    H103  S    
C54   C118  S    
N10   Ni3   S    
C86   C105  S    
N23   Ni2   S    
C106  C110  S    
N1    N22   A    
C119  C155  S    
C126  H68   S    
C146  N19   A    
C136  C150  A    
C11   C12   A    
C34   C114  S    
C71   C159  S    
C72   C160  S    
N18   N28   A    
C107  H44   S    
N20   N30   A    
C93   C107  S    
N21   N31   A    
C14   H113  S    
N22   Ni5   S    
C81   C97   S    
C94   C99   S    
C61   H26   S    
C98   H35   S    
C23   C25   A    
C39   H7    S    
C7    H108  S    
C40   H8    S    
C153  N26   A    
C113  C118  D    
C7    C82   S    
C63   H28   S    
C6    C81   S    
C111  C115  D    
N9    N32   A    
N5    N14   A    
C76   H24   S    
C93   C98   S    
C71   C78   S    
C120  C124  D    
N7    N16   A    
