data_mof_unit_21788.cif
_audit_creation_date              2013-03-05T15:54:37-0500
_audit_creation_method            fapswitch 2.2
_symmetry_space_group_name_H-M    P1
_symmetry_Int_Tables_number       1
_space_group_crystal_system       triclinic
_cell_length_a                    14.034327
_cell_length_b                    14.044943
_cell_length_c                    30.086562
_cell_angle_alpha                 97.139956
_cell_angle_beta                  97.046006
_cell_angle_gamma                 61.391762
_cell_volume                      5152.41734171

loop_
_atom_site_label
_atom_site_type_symbol
_atom_site_description
_atom_site_fract_x
_atom_site_fract_y
_atom_site_fract_z
_atom_type_partial_charge
O1    O     O_R   0.688580 0.499770 0.460490 -0.502145
O2    O     O_R   0.480400 0.672610 0.462660 -0.515478
C1    C     C_R   0.385573 0.711588 0.442150 0.860727
O3    O     O_R   0.315310 0.685650 0.451800 -0.511449
O4    O     O_R   0.346220 0.474990 0.446280 -0.524287
C2    C     C_R   0.398701 0.381057 0.426551 0.805651
O5    O     O_R   0.492270 0.312460 0.441630 -0.528779
O6    O     O_R   0.669740 0.350480 0.455640 -0.544517
C3    C     C_R   0.711324 0.404771 0.442755 0.859139
O7    O     O_R   0.691150 0.501150 0.557860 -0.524613
O8    O     O_R   0.482790 0.673890 0.552920 -0.525145
C4    C     C_R   0.389666 0.711862 0.568188 0.807131
O9    O     O_R   0.317880 0.687030 0.549170 -0.534687
O10   O     O_R   0.348600 0.476260 0.536540 -0.534557
C5    C     C_R   0.402007 0.382880 0.552250 0.800238
O11   O     O_R   0.494840 0.313840 0.539010 -0.541567
O12   O     O_R   0.672120 0.351750 0.545910 -0.535848
C6    C     C_R   0.713082 0.407839 0.568513 0.811849
Cr1   Cr    Cr6+3 0.581000 0.584320 0.508140 1.061744
Cr2   Cr    Cr6+3 0.339110 0.576430 0.496080 1.032764
Cr3   Cr    Cr6+3 0.579910 0.339270 0.495810 1.002392
O13   O     O_3   0.500010 0.500010 0.500010 -0.363561
C7    C     C_1   0.362798 0.362283 0.381461 -0.069610
C8    C     C_R   0.256687 0.432240 0.271253 -0.173519
C9    C     C_R   0.249091 0.426186 0.224422 0.285499
C10   C     C_R   0.367856 0.230325 0.223218 0.179941
C11   C     C_R   0.375292 0.236631 0.270510 0.347927
C12   C     C_R   0.319829 0.338573 0.294311 -0.090550
C13   C     C_R   0.306158 0.325544 0.200295 -0.106503
C14   C     C_1   0.296908 0.317358 0.152001 0.132498
C15   C     C_1   0.339397 0.350544 0.342138 0.138590
C16   C     C_1   0.288519 0.301529 0.111871 -0.061054
H1    H     H_    0.215193 0.510693 0.289741 0.206068
C17   C     C_R   0.770932 0.363083 0.401586 -0.226737
C18   C     C_R   0.752546 0.286008 0.372603 -0.219327
C19   C     C_R   0.787558 0.258851 0.329520 0.270661
C20   C     C_R   0.842421 0.308440 0.314639 -0.144510
C21   C     C_R   0.870271 0.378954 0.344181 0.325605
C22   C     C_R   0.835460 0.405457 0.388179 0.216653
C23   C     C_R   0.858802 0.391142 0.164281 0.230366
C24   C     C_R   0.870630 0.389441 0.118476 0.281482
C25   C     C_R   0.884108 0.208111 0.106669 0.246841
C26   C     C_R   0.870490 0.212167 0.152069 -0.140217
C27   C     C_R   0.863628 0.300227 0.181011 -0.116650
C28   C     C_1   0.860075 0.297528 0.228037 0.142939
C29   C     C_1   0.855122 0.299629 0.267622 0.170820
C30   C     C_R   0.893666 0.293141 0.089954 -0.288368
H2    H     H_    0.704766 0.251084 0.382285 0.203966
H3    H     H_    0.867904 0.144899 0.165074 0.227230
H4    H     H_    0.138885 0.916630 0.098299 0.235843
H5    H     H_    0.214434 0.808036 0.300959 0.227541
C31   C     C_R   0.365646 0.769959 0.401179 -0.247828
C32   C     C_R   0.444693 0.797153 0.389406 0.194326
C33   C     C_R   0.446167 0.815663 0.344618 0.298624
C34   C     C_R   0.365315 0.814456 0.312742 -0.104764
C35   C     C_R   0.279266 0.803846 0.325606 -0.167584
C36   C     C_R   0.277844 0.782184 0.369227 0.250536
C37   C     C_R   0.243169 0.862003 0.157623 0.366387
C38   C     C_R   0.220546 0.891404 0.113557 -0.246782
C39   C     C_R   0.406473 0.857970 0.109840 0.330360
C40   C     C_R   0.429939 0.829012 0.154606 0.229178
C41   C     C_R   0.346993 0.835887 0.178815 -0.176257
C42   C     C_1   0.363748 0.826407 0.226306 0.177895
C43   C     C_1   0.368629 0.821426 0.266043 0.149450
C44   C     C_R   0.299022 0.895095 0.090113 -0.276828
H6    H     H_    0.133974 0.442070 0.894717 0.186499
H7    H     H_    0.180077 0.500087 0.670131 0.168084
H8    H     H_    0.218673 0.518613 0.595489 0.153548
C45   C     C_R   0.363389 0.361235 0.591277 -0.061195
C46   C     C_R   0.428134 0.264666 0.612799 -0.128436
C47   C     C_R   0.405834 0.254820 0.655362 -0.073984
C48   C     C_R   0.318348 0.340812 0.676488 0.109228
C49   C     C_R   0.248068 0.433250 0.653844 0.004010
C50   C     C_R   0.270290 0.443483 0.611302 -0.112529
C51   C     C_R   0.211213 0.409542 0.833200 0.430360
C52   C     C_R   0.207021 0.390486 0.877416 -0.206035
C53   C     C_R   0.388230 0.236783 0.875915 -0.132150
C54   C     C_R   0.393255 0.254484 0.831997 -0.172133
C55   C     C_R   0.304088 0.337587 0.810038 0.003277
C56   C     C_1   0.306091 0.339885 0.762768 0.147111
C57   C     C_1   0.309535 0.339980 0.723166 0.114460
C58   C     C_R   0.293279 0.301730 0.898346 -0.107140
H9    H     H_    0.499980 0.199660 0.598118 0.160900
H10   H     H_    0.464836 0.199485 0.814299 0.148274
H11   H     H_    0.455977 0.167913 0.891173 0.162229
H12   H     H_    0.460387 0.182876 0.672796 0.158675
C59   C     C_1   0.763107 0.376432 0.612362 -0.087323
C60   C     C_R   0.929742 0.275196 0.715127 0.306038
C61   C     C_R   0.950810 0.256957 0.761408 0.325302
C62   C     C_R   0.755970 0.354772 0.770876 -0.184976
C63   C     C_R   0.735377 0.373133 0.725456 -0.177351
C64   C     C_R   0.821195 0.334528 0.697538 -0.059981
C65   C     C_R   0.862819 0.297614 0.789096 -0.040034
C66   C     C_1   0.882414 0.289152 0.836922 0.087995
C67   C     C_1   0.794132 0.355031 0.650731 0.107317
C68   C     C_1   0.907559 0.281181 0.876531 -0.092217
H13   H     H_    0.688383 0.387011 0.792022 0.161020
H14   H     H_    0.651845 0.418104 0.712021 0.197184
C69   C     C_1   0.377093 0.757751 0.613635 -0.046901
C70   C     C_R   0.365142 0.725132 0.726595 0.358889
C71   C     C_R   0.349498 0.749166 0.772619 -0.190552
C72   C     C_R   0.344203 0.922863 0.769604 -0.133590
C73   C     C_R   0.359798 0.901856 0.723435 0.373317
C74   C     C_R   0.367577 0.803184 0.701504 -0.152832
C75   C     C_R   0.338427 0.847411 0.793890 -0.014373
C76   C     C_1   0.316702 0.873598 0.840518 0.070220
C77   C     C_1   0.371374 0.783360 0.653331 0.185301
C78   C     C_1   0.294282 0.902926 0.878901 -0.101816
H15   H     H_    0.345902 0.691029 0.792012 0.184408
H16   H     H_    0.336435 0.998498 0.786834 0.199218
O14   O     O_R   0.167510 0.972920 0.030390 -0.536234
O15   O     O_R   0.990840 0.178580 0.027590 -0.519207
C79   C     C_R   0.949343 0.273626 0.048131 0.866051
O16   O     O_R   0.972840 0.345510 0.038590 -0.501714
O17   O     O_R   0.181550 0.320660 0.045200 -0.525080
C80   C     C_R   0.275055 0.269996 0.065563 0.796681
O18   O     O_R   0.346150 0.177650 0.050510 -0.514598
O19   O     O_R   0.314200 0.996600 0.036060 -0.504444
C81   C     C_R   0.261199 0.952996 0.048595 0.879012
O20   O     O_R   0.168690 0.969990 0.933130 -0.529659
O21   O     O_R   0.991920 0.175870 0.937430 -0.527816
C82   C     C_R   0.952211 0.269053 0.922093 0.811843
O22   O     O_R   0.974010 0.342590 0.941330 -0.529124
O23   O     O_R   0.182630 0.317940 0.955040 -0.537579
C83   C     C_R   0.276095 0.265912 0.939276 0.798200
O24   O     O_R   0.347320 0.174720 0.953250 -0.541437
O25   O     O_R   0.315290 0.993890 0.945900 -0.528723
C84   C     C_R   0.261528 0.950968 0.922868 0.820967
Cr4   Cr    Cr6+3 0.082090 0.079210 0.982490 1.031029
Cr5   Cr    Cr6+3 0.082460 0.324610 0.994920 1.049168
Cr6   Cr    Cr6+3 0.323630 0.087860 0.996130 1.061663
O26   O     O_3   0.162730 0.163890 0.991180 -0.368423
Br1   Br    Br    0.888826 0.083255 0.070361 -0.389828
Br2   Br    Br    0.749505 0.160951 0.290625 -0.341573
N1    N     N_R   0.158503 0.863560 0.180890 0.135811
O27   O     O_R   0.056790 0.929605 0.170268 -0.326908
O28   O     O_R   0.181487 0.791076 0.209067 -0.341132
Br3   Br    Br    0.153666 0.767072 0.380474 -0.365316
Br4   Br    Br    0.549577 0.813317 0.433468 -0.330311
Br5   Br    Br    0.575137 0.778922 0.182752 -0.191309
N2    N     N_R   0.491057 0.849376 0.084616 0.160904
O29   O     O_R   0.547907 0.898942 0.099739 -0.269550
O30   O     O_R   0.507843 0.796192 0.045296 -0.340184
Br6   Br    Br    0.159843 0.557103 0.194650 -0.273702
Br7   Br    Br    0.560678 0.837593 0.326139 -0.190455
N3    N     N_R   0.119332 0.498153 0.811949 0.107533
O31   O     O_R   0.022922 0.537514 0.826416 -0.348651
O32   O     O_R   0.132479 0.546023 0.780621 -0.352341
N4    N     N_R   0.017776 0.230913 0.686149 0.146800
O33   O     O_R   0.092002 0.129695 0.687417 -0.309325
O34   O     O_R   0.023218 0.290809 0.657860 -0.344706
Br8   Br    Br    0.437107 0.090883 0.189794 -0.327865
N5    N     N_R   0.061088 0.202126 0.780510 0.118018
O35   O     O_R   0.132084 0.230913 0.772120 -0.331640
O36   O     O_R   0.090498 0.124765 0.807039 -0.387372
N6    N     N_R   0.377025 0.621946 0.706051 0.078113
O37   O     O_R   0.334881 0.571664 0.723527 -0.382357
O38   O     O_R   0.441144 0.571134 0.673705 -0.415407
N7    N     N_R   0.367016 0.981279 0.699751 0.131392
O39   O     O_R   0.421354 0.952246 0.664091 -0.370199
O40   O     O_R   0.329392 0.081552 0.716553 -0.331816
N8    N     N_R   0.439850 0.140468 0.294276 0.151459
O41   O     O_R   0.400336 0.120468 0.326779 -0.334676
O42   O     O_R   0.540742 0.076638 0.285661 -0.257394
N9    N     N_R   0.859782 0.485250 0.101285 0.175219
O43   O     O_R   0.925734 0.524511 0.116550 -0.283427
O44   O     O_R   0.786945 0.530457 0.068763 -0.307947
Br9   Br    Br    0.836261 0.517714 0.204181 -0.219306
N10   N     N_R   0.929974 0.426582 0.328932 0.150456
O45   O     O_R   0.016991 0.366155 0.307462 -0.345467
O46   O     O_R   0.892609 0.531515 0.333100 -0.270110
Br10  Br    Br    0.882823 0.493077 0.429891 -0.318463

loop_
_geom_bond_atom_site_label_1
_geom_bond_atom_site_label_2
_geom_bond_distance
_ccdc_geom_bond_type
C37   C41   1.408043 A    
C34   C35   1.389866 A    
C65   C66   1.440260 S    
N10   O46   1.301089 A    
N10   O45   1.301395 A    
C18   C19   1.386016 A    
C26   C27   1.391385 A    
N1    O27   1.301525 A    
O4    Cr2   1.911701 S    
C53   C54   1.390715 A    
C80   O18   1.268229 A    
C4    O9    1.268654 A    
O8    Cr1   1.916054 S    
C10   C11   1.408682 A    
C20   C21   1.410750 A    
C44   C81   1.476427 S    
C21   N10   1.437833 S    
C25   Br1   1.924343 S    
H4    C38   1.082705 S    
C53   C58   1.402425 A    
C19   C20   1.397865 A    
C17   C18   1.405858 A    
N4    O34   1.301287 A    
C11   N8    1.437212 S    
C30   C79   1.489752 S    
O4    C2    1.271769 A    
C56   C57   1.198573 T    
H8    C50   1.082957 S    
C5    O11   1.271949 A    
C70   C74   1.421512 A    
C6    C59   1.431354 S    
C35   C36   1.388133 A    
C72   C75   1.397411 A    
O14   C81   1.271311 A    
H5    C35   1.084077 S    
C49   C50   1.393830 A    
O19   C81   1.277919 A    
C4    C69   1.430870 S    
O19   Cr6   1.920381 S    
C72   C73   1.405460 A    
C79   O16   1.274576 A    
N6    O38   1.301284 A    
O14   Cr4   2.034640 S    
C60   C64   1.411131 A    
O6    C3    1.275704 A    
C59   C67   1.204249 T    
N7    O40   1.301584 A    
C46   C47   1.393089 A    
H7    C49   1.083707 S    
O15   Cr4   1.916505 S    
N5    O36   1.301253 A    
C62   H13   1.083826 S    
N3    O32   1.301357 A    
C48   C57   1.426801 S    
Cr4   O26   1.975535 S    
C70   N6    1.442687 S    
C83   O24   1.273229 A    
C53   H11   1.083008 S    
N9    O44   1.301155 A    
Cr3   O13   1.977278 S    
C71   C75   1.391853 A    
O16   Cr5   2.036373 S    
C45   C46   1.406517 A    
C18   H2    1.083286 S    
O15   C79   1.281343 A    
O6    Cr3   1.919899 S    
N8    O42   1.300937 A    
C51   N3    1.441921 S    
C9    C13   1.403513 A    
C5    C45   1.472234 S    
O1    Cr1   2.033678 S    
N3    O31   1.301608 A    
O20   Cr4   2.031456 S    
O10   Cr2   1.919736 S    
Cr1   O13   1.975510 S    
O1    C3    1.274285 A    
C8    C9    1.394927 A    
C52   C58   1.406757 A    
C63   C64   1.399884 A    
C54   C55   1.398183 A    
C26   H3    1.084077 S    
C37   C38   1.391505 A    
C28   C29   1.197384 T    
C64   C67   1.440574 S    
O12   Cr3   1.910622 S    
C1    O3    1.276686 A    
C17   C22   1.415087 A    
C24   N9    1.434898 S    
C39   C40   1.409591 A    
C7    C15   1.201172 T    
Cr5   O26   1.977351 S    
C51   C52   1.402699 A    
C58   C83   1.473333 S    
C13   C14   1.437972 S    
C39   N2    1.435517 S    
C47   H12   1.083837 S    
C61   N5    1.438444 S    
N7    O39   1.301177 A    
O7    Cr1   2.032179 S    
O8    C4    1.273732 A    
H6    C52   1.082927 S    
C34   C43   1.428437 S    
C41   C42   1.431597 S    
O12   C6    1.272050 A    
C24   C30   1.425162 A    
O23   Cr5   1.919507 S    
C45   C50   1.406881 A    
C40   Br5   1.927795 S    
C16   C80   1.426613 S    
C66   C68   1.203892 T    
C46   H9    1.082950 S    
O21   C82   1.274719 A    
C10   C13   1.409875 A    
C33   Br7   1.929384 S    
C23   C24   1.404084 A    
Cr2   O13   1.977410 S    
C39   C44   1.415121 A    
O22   Cr5   2.027574 S    
C3    C17   1.477063 S    
C55   C56   1.430594 S    
C72   H16   1.084038 S    
C9    Br6   1.918543 S    
C51   C55   1.411450 A    
C25   C26   1.392783 A    
O25   C84   1.271359 A    
C73   C74   1.418919 A    
C31   C32   1.427531 A    
C62   C65   1.395903 A    
N8    O41   1.301254 A    
N1    O28   1.300817 A    
C60   N4    1.437708 S    
C33   C34   1.398206 A    
N6    O37   1.301379 A    
O9    Cr2   2.027273 S    
O2    Cr1   1.916927 S    
C32   Br4   1.934476 S    
C12   C15   1.435747 S    
C27   C28   1.427651 S    
C8    C12   1.398898 A    
O21   Cr4   1.916716 S    
C48   C49   1.396861 A    
C19   Br2   1.922271 S    
C1    C31   1.488925 S    
O20   C84   1.268525 A    
O11   Cr3   2.036352 S    
C32   C33   1.408137 A    
C2    O5    1.268621 A    
C37   N1    1.441451 S    
C69   C77   1.204707 T    
C75   C76   1.437219 S    
C8    H1    1.084092 S    
C68   C82   1.430353 S    
N2    O30   1.301212 A    
O2    C1    1.279214 A    
N5    O35   1.301075 A    
C47   C48   1.396694 A    
O5    Cr3   2.027523 S    
N4    O33   1.301210 A    
C38   C44   1.402701 A    
C14   C16   1.201858 T    
C73   N7    1.444255 S    
C62   C63   1.391666 A    
C21   C22   1.411229 A    
C76   C78   1.203760 T    
O24   Cr6   2.036681 S    
O7    C6    1.268436 A    
C2    C7    1.426313 S    
C10   Br8   1.928414 S    
C70   C71   1.402471 A    
C36   Br3   1.927039 S    
C25   C30   1.420003 A    
C63   H14   1.083867 S    
C61   C65   1.415565 A    
C40   C41   1.406365 A    
O18   Cr6   2.027074 S    
O25   Cr6   1.910016 S    
C23   Br9   1.930159 S    
C31   C36   1.421208 A    
C42   C43   1.197931 T    
O3    Cr2   2.036594 S    
C54   H10   1.084087 S    
N9    O43   1.301249 A    
C23   C27   1.398915 A    
C60   C61   1.416711 A    
C22   Br10  1.930289 S    
C11   C12   1.408280 A    
C82   O22   1.267223 A    
O10   C5    1.277140 A    
C78   C84   1.430621 S    
O17   C80   1.273044 A    
C20   C29   1.430155 S    
N2    O29   1.300887 A    
C71   H15   1.083904 S    
C74   C77   1.444093 S    
Cr6   O26   1.977233 S    
O23   C83   1.275965 A    
O17   Cr5   1.912149 S    
