data_mof_unit_22306.cif
_audit_creation_date              2012-12-11T14:21:10-0500
_audit_creation_method            fapswitch 2.2
_symmetry_space_group_name_H-M    P1
_symmetry_Int_Tables_number       1
_space_group_crystal_system       triclinic
_cell_length_a                    11.692928
_cell_length_b                    11.47974
_cell_length_c                    19.346065
_cell_angle_alpha                 89.81308
_cell_angle_beta                  90.541432
_cell_angle_gamma                 60.093612
_cell_volume                      2250.86646223

loop_
_atom_site_label
_atom_site_type_symbol
_atom_type_description
_atom_site_fract_x
_atom_site_fract_y
_atom_site_fract_z
_atom_type_partial_charge
C1    C     C_R   0.641069 0.117588 0.598680 0.551106
C2    C     C_1   0.642568 0.701280 0.667428 0.011663
C3    C     C_1   0.127092 0.198753 0.859707 0.011493
C4    C     C_1   0.171177 0.169281 0.727536 -0.024003
C5    C     C_1   0.150368 0.181761 0.799118 -0.022521
C6    C     C_1   0.194647 0.159947 0.666894 0.010258
C7    C     C_1   0.676851 0.191636 0.861217 0.015955
C8    C     C_1   0.659295 0.167407 0.728736 -0.025497
C9    C     C_1   0.664589 0.181364 0.800367 -0.024921
C10   C     C_1   0.654680 0.149523 0.668046 0.013000
C11   C     C_R   0.665856 0.691640 0.188255 -0.044708
C12   C     C_R   0.613105 0.744355 0.597904 0.542753
C13   C     C_R   0.542199 0.745412 0.217761 -0.047453
C14   C     C_R   0.539647 0.708826 0.286533 -0.007908
C15   C     C_R   0.768247 0.652645 0.302795 -0.020480
C16   C     C_R   0.777815 0.660376 0.230497 -0.059378
C17   C     C_R   0.425783 0.802161 0.176141 0.039004
C18   C     C_R   0.323974 0.780334 0.196307 -0.119980
C19   C     C_R   0.333209 0.718162 0.259151 -0.175912
C20   C     C_R   0.435517 0.688588 0.305796 -0.075076
C21   C     C_R   0.646604 0.682721 0.331482 -0.018236
C22   C     C_R   0.181081 0.172122 0.181025 0.029915
C23   C     C_R   0.240207 0.145292 0.597698 0.561900
C24   C     C_R   0.261590 0.224923 0.202071 0.010539
C25   C     C_R   0.288634 0.221394 0.274182 -0.009254
C26   C     C_R   0.213621 0.059775 0.291147 -0.137644
C27   C     C_R   0.163183 0.085436 0.224615 -0.170839
C28   C     C_R   0.299845 0.297561 0.155966 0.094786
C29   C     C_R   0.326760 0.393299 0.183953 -0.069502
C30   C     C_R   0.330028 0.406263 0.254597 -0.106377
C31   C     C_R   0.323428 0.315032 0.298839 -0.078229
C32   C     C_R   0.269840 0.132082 0.318719 0.001853
C33   C     C_R   0.726116 0.212470 0.211608 -0.000716
C34   C     C_R   0.649856 0.120960 0.407656 0.531776
C35   C     C_R   0.821344 0.096928 0.251340 -0.007315
C36   C     C_R   0.816771 0.105427 0.323973 0.013511
C37   C     C_R   0.605568 0.302433 0.318874 -0.138389
C38   C     C_R   0.627041 0.320370 0.249071 -0.154562
C39   C     C_R   0.912888 0.969664 0.224926 -0.137350
C40   C     C_R   0.003229 0.867114 0.269085 -0.138779
C41   C     C_R   0.020258 0.893732 0.338335 0.049875
C42   C     C_R   0.927628 0.019049 0.365410 0.055659
C43   C     C_R   0.692633 0.183324 0.353121 0.030476
C44   C     C_R   0.081981 0.231023 0.928908 0.560838
C45   C     C_R   0.615682 0.737945 0.402042 0.554444
C46   C     C_R   0.682934 0.606097 0.930249 0.563034
C47   C     C_R   0.707702 0.206310 0.930685 0.567668
C48   C     C_R   0.088953 0.231584 0.123096 0.584235
C49   C     C_R   0.684173 0.615096 0.124385 0.555358
C50   C     C_R   0.739685 0.231896 0.135750 0.538880
C51   C     C_R   0.303577 0.115522 0.393458 0.552678
C52   C     C_1   0.668431 0.649455 0.860794 0.020131
C53   C     C_1   0.655497 0.682449 0.728345 -0.027413
C54   C     C_1   0.662407 0.668423 0.799918 -0.026312
Cr1   Cr    Cr6+3 0.404720 0.198220 0.499960 1.023065
Cr2   Cr    Cr6+3 0.698290 0.897110 0.500380 1.106337
Cr3   Cr    Cr6+3 0.396970 0.904720 0.499610 1.108742
Cr4   Cr    Cr6+3 0.926180 0.151990 0.028120 1.072780
Cr5   Cr    Cr6+3 0.921330 0.451820 0.027470 1.112480
Cr6   Cr    Cr6+3 0.626260 0.446870 0.028710 1.087668
H1    H     H_    0.341587 0.326134 0.351963 0.173970
H2    H     H_    0.521069 0.378321 0.345957 0.105451
H3    H     H_    0.437630 0.640153 0.354221 0.160364
H4    H     H_    0.197273 0.992042 0.322840 0.172457
O1    O     O_R   0.267740 0.231960 0.575440 -0.500027
O2    O     O_R   0.685970 0.784660 0.430010 -0.470550
O3    O     O_R   0.502530 0.767000 0.423990 -0.513740
O4    O     O_R   0.288330 0.026350 0.429250 -0.447339
O5    O     O_3   0.499990 0.000020 0.499980 -0.300647
O6    O     O_R   0.821500 0.119340 0.952830 -0.494132
O7    O     O_R   0.037130 0.162530 0.957360 -0.475299
O8    O     O_R   0.056440 0.344740 0.951340 -0.489498
O9    O     O_R   0.797900 0.560360 0.957470 -0.491453
O10   O     O_R   0.596130 0.579390 0.952730 -0.481716
O11   O     O_R   0.639060 0.321160 0.958670 -0.472079
O12   O     O_R   0.527280 0.186640 0.570530 -0.500602
O13   O     O_R   0.821240 0.124200 0.104370 -0.518326
O14   O     O_R   0.036890 0.167040 0.097840 -0.506198
O15   O     O_R   0.056180 0.349610 0.102880 -0.476044
O16   O     O_R   0.797660 0.564870 0.097950 -0.474884
O17   O     O_R   0.595880 0.584250 0.104270 -0.511929
O18   O     O_R   0.638830 0.325670 0.099150 -0.480818
O19   O     O_3   0.824590 0.350230 0.028100 -0.308015
O20   O     O_R   0.728090 0.003450 0.576380 -0.472192
O21   O     O_R   0.682970 0.789190 0.570490 -0.488809
O22   O     O_R   0.499290 0.771880 0.575530 -0.494214
O23   O     O_R   0.285330 0.030870 0.569730 -0.468658
O24   O     O_R   0.270980 0.227080 0.423890 -0.517714
O25   O     O_R   0.530280 0.182120 0.430050 -0.545141
O26   O     O_R   0.731330 0.998570 0.424830 -0.480919
C55   C     C_2   0.884627 0.608436 0.348893 0.593173
O27   O     O_2   0.953723 0.659464 0.343351 -0.453755
O28   O     O_R   0.912454 0.511134 0.399998 -0.670450
H5    H     H_    0.994091 0.489752 0.428357 0.358948
H6    H     H_    0.347170 0.457578 0.151395 0.154882
H7    H     H_    0.349397 0.480597 0.275650 0.114521
H8    H     H_    0.911004 0.941531 0.172214 0.208460
H9    H     H_    0.561291 0.414708 0.223318 0.137534
H10   H     H_    0.061063 0.768147 0.247665 0.188158
C56   C     C_2   0.132310 0.791481 0.381261 0.579872
O29   O     O_2   0.194512 0.825672 0.419081 -0.494383
O30   O     O_R   0.170799 0.655363 0.376715 -0.668609
H11   H     H_    0.249480 0.596211 0.407582 0.317760
C57   C     C_2   0.937462 0.061312 0.437096 0.604621
O31   O     O_2   0.972339 0.981513 0.485461 -0.457555
O32   O     O_R   0.900487 0.195511 0.449198 -0.682838
H12   H     H_    0.909425 0.213356 0.499694 0.341108
C58   C     C_2   0.416201 0.870137 0.108649 0.617107
O33   O     O_2   0.336142 0.879469 0.064798 -0.452499
O34   O     O_R   0.498551 0.922630 0.093611 -0.630684
H13   H     H_    0.544063 0.933976 0.135687 0.302630
C59   C     C_2   0.903162 0.636748 0.198919 0.637631
O35   O     O_2   0.900341 0.716747 0.156273 -0.484378
O36   O     O_R   0.023793 0.523129 0.215366 -0.640867
H14   H     H_    0.013855 0.454605 0.243852 0.302963
H15   H     H_    0.238833 0.808599 0.163116 0.143675
H16   H     H_    0.260902 0.692181 0.271377 0.142759
C60   C     C_2   0.315921 0.275624 0.079611 0.603139
O37   O     O_2   0.327313 0.355895 0.042643 -0.509256
O38   O     O_R   0.320230 0.163165 0.049659 -0.639152
H17   H     H_    0.334824 0.158837 0.997940 0.350825
H18   H     H_    0.103369 0.042629 0.208498 0.138258

loop_
_geom_bond_atom_site_label_1
_geom_bond_atom_site_label_2
_ccdc_geom_bond_type
C25   C31   A    
C22   C48   S    
C26   C32   A    
O28   H5    S    
C41   C42   A    
C31   H1    S    
C36   C42   A    
C35   C36   A    
C46   O10   A    
C38   H9    S    
C2    C12   S    
C40   H10   S    
C59   O36   S    
O36   H14   S    
C47   O6    A    
C53   C54   S    
C58   O33   D    
C1    O20   A    
C16   C59   S    
C26   C27   A    
C29   C30   A    
C12   O21   A    
C48   O15   A    
C28   C29   A    
Cr5   O19   S    
C30   C31   A    
Cr6   O19   S    
Cr4   O7    S    
C39   H8    S    
O32   H12   S    
C49   O17   A    
C15   C16   A    
C46   C52   S    
Cr3   O22   S    
C44   O7    A    
C18   C19   A    
Cr6   O17   S    
C48   O14   A    
Cr1   O24   S    
C26   H4    S    
C60   O37   D    
C57   O31   D    
C30   H7    S    
Cr4   O13   S    
O34   H13   S    
Cr6   O18   S    
C19   C20   A    
C8    C9    S    
C45   O3    A    
Cr5   O9    S    
Cr5   O8    S    
C25   C32   A    
Cr2   O26   S    
C23   O23   A    
C13   C14   A    
Cr3   O3    S    
C57   O32   S    
C59   O35   D    
Cr1   O1    S    
C27   H18   S    
C52   C54   T    
Cr2   O20   S    
C21   C45   S    
C3    C44   S    
C34   C43   S    
C50   O18   A    
C14   C20   A    
C24   C25   A    
C4    C6    T    
C17   C58   S    
Cr5   O15   S    
C39   C40   A    
C29   H6    S    
Cr4   O6    S    
C33   C50   S    
Cr3   O23   S    
C7    C47   S    
C37   C43   A    
C35   C39   A    
C34   O26   A    
C32   C51   S    
C37   C38   A    
C11   C49   S    
C55   O28   S    
C11   C16   A    
C56   O30   S    
C17   C18   A    
C41   C56   S    
Cr1   O5    S    
Cr1   O12   S    
C40   C41   A    
C22   C27   A    
C22   C24   A    
Cr3   O4    S    
C18   H15   S    
C50   O13   A    
C55   O27   D    
O38   H17   S    
C14   C21   A    
C51   O24   A    
C7    C9    T    
C1    O12   A    
C1    C10   S    
C24   C28   A    
C4    C5    S    
C3    C5    T    
C2    C53   T    
C42   C57   S    
Cr5   O16   S    
C12   O22   A    
Cr6   O11   S    
C33   C38   A    
C49   O16   A    
C13   C17   A    
C23   O1    A    
C20   H3    S    
C34   O25   A    
C47   O11   A    
Cr1   O25   S    
C28   C60   S    
Cr4   O19   S    
C11   C13   A    
Cr2   O21   S    
Cr2   O2    S    
C6    C23   S    
Cr6   O10   S    
C56   O29   D    
C33   C35   A    
C58   O34   S    
C44   O8    A    
C51   O4    A    
O30   H11   S    
C60   O38   S    
Cr4   O14   S    
C15   C55   S    
C15   C21   A    
C19   H16   S    
C8    C10   T    
Cr2   O5    S    
C45   O2    A    
C37   H2    S    
C36   C43   A    
Cr3   O5    S    
C46   O9    A    
