data_mof_unit_24836.cif
_audit_creation_date              2012-12-11T15:52:33-0500
_audit_creation_method            fapswitch 2.2
_symmetry_space_group_name_H-M    P1
_symmetry_Int_Tables_number       1
_space_group_crystal_system       triclinic
_cell_length_a                    6.94645
_cell_length_b                    14.54831
_cell_length_c                    16.050172
_cell_angle_alpha                 90.188229
_cell_angle_beta                  89.760738
_cell_angle_gamma                 89.717223
_cell_volume                      1621.9733054

loop_
_atom_site_label
_atom_site_type_symbol
_atom_type_description
_atom_site_fract_x
_atom_site_fract_y
_atom_site_fract_z
_atom_type_partial_charge
O1    O     O_R   0.494400 0.415640 0.412830 -0.551673
O2    O     O_R   0.823920 0.405510 0.586560 -0.498654
O3    O     O_R   0.994250 0.584360 0.587170 -0.543625
C1    C     C_R   0.654906 0.383196 0.615437 0.833035
O4    O     O_R   0.824110 0.404610 0.413450 -0.551143
O5    O     O_R   0.994440 0.583460 0.412820 -0.554072
C2    C     C_R   0.655378 0.382271 0.384381 0.688802
O6    O     O_R   0.494210 0.416540 0.587180 -0.496108
O7    O     O_3   0.660810 0.558680 0.500000 -0.385810
V1    V     V_3+5 0.935650 0.489110 0.500000 1.547931
O8    O     O_R   0.324150 0.594490 0.413440 -0.559610
C3    C     C_R   0.155050 0.616639 0.384521 0.668171
O9    O     O_R   0.323970 0.595390 0.586550 -0.507325
C4    C     C_R   0.154337 0.619707 0.613839 0.786621
V2    V     V_3+5 0.435660 0.510890 0.500000 1.543039
O10   O     O_3   0.160630 0.441320 0.500000 -0.349154
C5    C     C_3   0.001804 0.657333 0.752835 -0.352351
H1    H     H_    0.855929 0.646877 0.726201 0.181448
H2    H     H_    0.046499 0.589117 0.777391 0.248289
C6    C     C_3   0.986929 0.728545 0.824991 0.486729
H3    H     H_    0.836247 0.753670 0.829684 0.090641
H4    H     H_    0.907021 0.775111 0.640616 0.199470
C7    C     C_3   0.059809 0.786067 0.655319 -0.561520
C8    C     C_3   0.348121 0.700471 0.728413 1.009482
C9    C     C_3   0.144825 0.690719 0.684064 -0.178353
C10   C     C_3   0.126740 0.810910 0.811024 -0.183656
C11   C     C_3   0.087226 0.859665 0.726219 0.262352
C12   C     C_3   0.334488 0.770004 0.802495 -0.434011
H5    H     H_    0.376106 0.735925 0.861806 0.233304
H6    H     H_    0.439457 0.826142 0.793673 0.097714
H7    H     H_    0.120332 0.811551 0.596019 0.147324
H8    H     H_    0.222176 0.895444 0.709893 0.119648
C13   C     C_R   0.957973 0.766282 0.209854 -0.186206
H9    H     H_    0.820548 0.777749 0.180042 0.211257
C14   C     C_R   0.968076 0.703070 0.275388 -0.142365
H10   H     H_    0.837787 0.667992 0.294086 0.139521
C15   C     C_R   0.143890 0.684768 0.315574 -0.122769
C16   C     C_R   0.308881 0.731838 0.288781 -0.229461
H11   H     H_    0.446364 0.719903 0.318552 0.141323
C17   C     C_R   0.299138 0.795560 0.223696 0.628470
C18   C     C_R   0.122963 0.813473 0.182807 -0.169594
C19   C     C_R   0.803556 0.257822 0.703245 0.598190
C20   C     C_R   0.792159 0.193385 0.767591 -0.211278
H12   H     H_    0.917284 0.151173 0.780657 0.183350
C21   C     C_R   0.621344 0.182438 0.813640 -0.234336
C22   C     C_R   0.461702 0.237654 0.794009 -0.216042
H13   H     H_    0.328342 0.231262 0.828682 0.173348
C23   C     C_R   0.472597 0.303102 0.730496 0.641485
C24   C     C_R   0.643851 0.314060 0.683757 -0.338228
C25   C     C_R   0.809468 0.266157 0.287877 -0.218916
H14   H     H_    0.947419 0.278393 0.316989 0.147782
C26   C     C_R   0.799249 0.201673 0.223002 0.625405
C27   C     C_R   0.622392 0.183286 0.182865 -0.175394
C28   C     C_R   0.457293 0.230882 0.210521 -0.204643
H15   H     H_    0.319419 0.219139 0.181335 0.209169
C29   C     C_R   0.467903 0.294845 0.275867 -0.134912
H16   H     H_    0.337347 0.330145 0.295028 0.140593
C30   C     C_R   0.644339 0.313554 0.315347 -0.123122
O11   O     O_R   0.771300 0.080930 0.910090 -0.543902
O12   O     O_R   0.441270 0.092800 0.083770 -0.539202
O13   O     O_R   0.271080 0.913920 0.084380 -0.501260
C31   C     C_R   0.610192 0.114924 0.113219 0.765177
O14   O     O_R   0.441580 0.091910 0.910670 -0.555522
O15   O     O_R   0.271390 0.913020 0.910040 -0.561743
C32   C     C_R   0.610536 0.113942 0.881855 0.727940
O16   O     O_R   0.770990 0.081830 0.084440 -0.502561
O17   O     O_3   0.604750 0.938760 0.997250 -0.368471
V3    V     V_3+5 0.329850 0.008280 0.997210 1.538652
O18   O     O_R   0.941680 0.901940 0.910610 -0.539265
C33   C     C_R   0.112125 0.879010 0.882676 0.804319
O19   O     O_R   0.941370 0.902830 0.083720 -0.537139
C34   C     C_R   0.110665 0.881083 0.113114 0.788026
V4    V     V_3+5 0.829860 0.986420 0.997150 1.570358
O20   O     O_3   0.104830 0.056030 0.997180 -0.371677
F1    F     F_    0.462765 0.840193 0.201888 -0.700890
F2    F     F_    0.970487 0.263512 0.659370 -0.626920
F3    F     F_    0.315754 0.356746 0.716295 -0.606190
F4    F     F_    0.963284 0.156773 0.200649 -0.701248
F5    F     F_    0.028521 0.685601 0.899858 -0.661878
O21   O     O_3   0.958309 0.935937 0.732546 -0.551853
C35   C     C_3   0.767898 0.916672 0.711103 -0.200180
H17   H     H_    0.721583 0.849570 0.735272 0.144604
H18   H     H_    0.752132 0.921336 0.642518 0.152208
H19   H     H_    0.672933 0.969820 0.739439 0.138135
O22   O     O_3   0.513024 0.717445 0.676757 -0.557078
C36   C     C_3   0.487887 0.778786 0.609503 -0.335374
H20   H     H_    0.445429 0.848129 0.630353 0.112462
H21   H     H_    0.392530 0.751903 0.560468 0.148437
H22   H     H_    0.627257 0.786086 0.576842 0.156901
F6    F     F_    0.387229 0.615684 0.764356 -0.654428

loop_
_geom_bond_atom_site_label_1
_geom_bond_atom_site_label_2
_ccdc_geom_bond_type
O14   C32   A    
V4    O20   S    
C14   H10   S    
C1    O6    A    
C35   H17   S    
C21   C22   A    
C10   C11   S    
O15   V3    S    
C12   H5    S    
C14   C15   A    
O5    C3    A    
C16   H11   S    
C36   H21   S    
V3    O20   S    
V2    O10   S    
C5    C6    S    
C29   H16   S    
O12   C31   A    
C22   H13   S    
C3    C15   S    
C5    H2    S    
O14   V3    S    
O8    V2    S    
C25   C26   A    
O18   V4    S    
O17   V4    S    
O15   C33   A    
O7    V1    S    
O11   V4    S    
C2    C30   S    
O9    C4    A    
C26   F4    S    
C35   H18   S    
C25   H14   S    
C22   C23   A    
C28   C29   A    
C31   O16   A    
O17   V3    S    
C25   C30   A    
C13   H9    S    
C8    C9    S    
C11   O21   S    
O4    C2    A    
C36   H20   S    
C27   C28   A    
O16   V4    S    
C7    H7    S    
C23   F3    S    
O2    C1    A    
C20   H12   S    
C15   C16   A    
C27   C31   S    
C5    H1    S    
C20   C21   A    
O22   C36   S    
O3    C4    A    
C18   C34   S    
O1    V2    S    
O13   C34   A    
C23   C24   A    
O6    V2    S    
C7    C11   S    
O9    V2    S    
C21   C32   S    
C10   C33   S    
C19   C20   A    
O2    V1    S    
C35   H19   S    
C26   C27   A    
O19   V4    S    
C8    O22   S    
C28   H15   S    
C17   C18   A    
C6    F5    S    
C11   H8    S    
O1    C2    A    
C19   F2    S    
C8    C12   S    
O21   C35   S    
C36   H22   S    
C8    F6    S    
O5    V1    S    
O8    C3    A    
C10   C12   S    
C17   F1    S    
C1    C24   S    
C13   C18   A    
C12   H6    S    
O7    V2    S    
C5    C9    S    
O4    V1    S    
O3    V1    S    
V1    O10   S    
O11   C32   A    
C16   C17   A    
O13   V3    S    
C6    C10   S    
C13   C14   A    
C29   C30   A    
C7    C9    S    
C4    C9    S    
O18   C33   A    
C19   C24   A    
O19   C34   A    
C6    H3    S    
O12   V3    S    
H4    C7    S    
