data_mof_unit_25017.cif
_audit_creation_date              2012-12-10T20:20:45-0500
_audit_creation_method            fapswitch 2.2
_symmetry_space_group_name_H-M    P1
_symmetry_Int_Tables_number       1
_space_group_crystal_system       triclinic
_cell_length_a                    19.234695
_cell_length_b                    18.434493
_cell_length_c                    10.734139
_cell_angle_alpha                 89.82032
_cell_angle_beta                  89.935404
_cell_angle_gamma                 89.82443
_cell_volume                      3806.09190547

loop_
_atom_site_label
_atom_site_type_symbol
_atom_type_description
_atom_site_fract_x
_atom_site_fract_y
_atom_site_fract_z
_atom_type_partial_charge
C1    C     C_R   0.365288 0.499997 0.503413 0.862796
C2    C     C_R   0.634914 0.499813 0.503017 0.860804
C3    C     C_R   0.812479 0.578124 0.547032 0.017694
C4    C     C_R   0.184859 0.575186 0.502682 0.016396
C5    C     C_R   0.742128 0.570163 0.522370 -0.276773
C6    C     C_R   0.255653 0.566174 0.482884 -0.274137
C7    C     C_R   0.710682 0.501241 0.520396 -0.087873
C8    C     C_R   0.289591 0.501508 0.517154 -0.087974
C9    C     C_R   0.961266 0.533604 0.457411 -0.158406
C10   C     C_R   0.033010 0.533502 0.452889 -0.157529
C11   C     C_R   0.071208 0.520739 0.561667 0.121895
C12   C     C_R   0.927526 0.519501 0.570145 0.122708
C13   C     C_R   0.037372 0.506939 0.674943 -0.202486
C14   C     C_R   0.965194 0.505864 0.679022 -0.208785
C15   C     C_R   0.544073 0.726643 0.423938 -0.013422
C16   C     C_R   0.455360 0.725184 0.577079 0.001021
C17   C     C_R   0.544071 0.802709 0.423217 -0.261310
C18   C     C_R   0.453936 0.801171 0.579740 -0.270332
C19   C     C_R   0.498678 0.840998 0.502097 0.129897
C20   C     C_R   0.437203 0.962534 0.484164 -0.007035
C21   C     C_R   0.561248 0.960976 0.529480 -0.006271
C22   C     C_R   0.500097 0.500010 0.260145 0.892465
C23   C     C_R   0.500747 0.499800 0.739716 0.877891
C24   C     C_R   0.437657 0.038561 0.491994 -0.216546
C25   C     C_R   0.561752 0.037227 0.522775 -0.218641
C26   C     C_R   0.499962 0.076868 0.506688 0.072836
C27   C     C_R   0.499014 0.922337 0.505336 -0.009117
C28   C     C_R   0.532211 0.198848 0.601242 -0.084269
C29   C     C_R   0.468325 0.197553 0.404543 -0.078222
C30   C     C_R   0.531225 0.275023 0.595734 -0.077560
C31   C     C_R   0.468728 0.273849 0.406297 -0.052828
C32   C     C_R   0.500323 0.158463 0.504065 0.020047
C33   C     C_R   0.505598 0.562896 0.061372 0.075487
C34   C     C_R   0.507107 0.562488 0.936935 0.078315
C35   C     C_R   0.500965 0.499134 0.128985 -0.131150
C36   C     C_R   0.502108 0.498694 0.870626 -0.129986
C37   C     C_R   0.497579 0.432723 0.064856 -0.222292
C38   C     C_R   0.498133 0.432523 0.935707 -0.230333
C39   C     C_3   0.512586 0.643223 0.925089 -0.133361
C40   C     C_3   0.509521 0.643997 0.069531 -0.143684
C41   C     C_R   0.751787 0.438167 0.543493 0.102276
C42   C     C_R   0.250978 0.443568 0.571050 0.099862
C43   C     C_R   0.822292 0.447118 0.569883 -0.226492
C44   C     C_R   0.179541 0.452806 0.587641 -0.227011
C45   C     C_R   0.852398 0.515778 0.570183 0.022685
C46   C     C_R   0.146651 0.517516 0.553930 0.025805
H1    H     H_    0.494098 0.381273 0.113504 0.171493
H2    H     H_    0.495170 0.381021 0.887758 0.175102
H3    H     H_    0.579096 0.697223 0.363325 0.116899
H4    H     H_    0.420970 0.694597 0.637141 0.122304
H5    H     H_    0.579172 0.831482 0.361678 0.134366
H6    H     H_    0.418763 0.828667 0.642836 0.134859
H7    H     H_    0.389431 0.068247 0.479536 0.154134
H8    H     H_    0.610281 0.065930 0.535522 0.154834
H9    H     H_    0.555222 0.306391 0.669003 0.138892
H10   H     H_    0.444484 0.304318 0.331632 0.133275
H11   H     H_    0.466174 0.667515 0.879222 0.146710
H12   H     H_    0.558356 0.662513 0.114659 0.143173
H13   H     H_    0.855290 0.399913 0.583438 0.138040
H14   H     H_    0.148745 0.408950 0.626245 0.135584
H15   H     H_    0.711865 0.618878 0.505223 0.170519
H16   H     H_    0.284610 0.610847 0.442434 0.173014
H17   H     H_    0.931878 0.543074 0.372787 0.130357
H18   H     H_    0.058782 0.542049 0.364312 0.131541
H19   H     H_    0.066838 0.496393 0.759049 0.131638
H20   H     H_    0.938739 0.494422 0.765995 0.130992
N1    N     N_R   0.500000 0.689440 0.500000 -0.094737
N2    N     N_R   0.500000 0.310560 0.500000 -0.098005
O1    O     O_R   0.398180 0.560840 0.499970 -0.622489
O2    O     O_R   0.601820 0.560840 0.500030 -0.623538
O3    O     O_R   0.398180 0.439210 0.499910 -0.618680
O4    O     O_R   0.601820 0.439210 0.500090 -0.617784
O5    O     O_R   0.499990 0.560820 0.316770 -0.625148
O6    O     O_R   0.500010 0.560820 0.683230 -0.626136
O7    O     O_R   0.499990 0.439200 0.316710 -0.628407
O8    O     O_R   0.500010 0.439200 0.683290 -0.632473
Zn1   Zn    Zn3+2 0.500000 0.581210 0.500000 0.925338
Zn2   Zn    Zn3+2 0.500000 0.418790 0.500000 0.925690
C47   C     C_R   0.372898 0.927765 0.440013 0.138378
C48   C     C_R   0.370746 0.898454 0.319600 -0.114845
C49   C     C_R   0.308222 0.872504 0.271498 -0.157156
C50   C     C_R   0.247866 0.874574 0.343821 -0.097558
C51   C     C_R   0.249875 0.902546 0.464638 -0.127471
C52   C     C_R   0.312124 0.929803 0.512414 -0.189969
H21   H     H_    0.416935 0.897876 0.261753 0.115855
H22   H     H_    0.306288 0.852176 0.177281 0.122171
H23   H     H_    0.199421 0.855544 0.305360 0.129191
H24   H     H_    0.202958 0.904275 0.520324 0.123924
H25   H     H_    0.312914 0.953073 0.604915 0.118219
C53   C     C_R   0.625094 0.923587 0.572227 0.139381
C54   C     C_R   0.623499 0.881210 0.681223 -0.120720
C55   C     C_R   0.684160 0.848450 0.725562 -0.164522
C56   C     C_R   0.746783 0.857548 0.661578 -0.095950
C57   C     C_R   0.748884 0.899746 0.553179 -0.128042
C58   C     C_R   0.688312 0.932992 0.508738 -0.189430
H26   H     H_    0.575532 0.874557 0.732934 0.117020
H27   H     H_    0.682682 0.816834 0.810442 0.127537
H28   H     H_    0.793688 0.832468 0.696873 0.139237
H29   H     H_    0.797520 0.907217 0.504121 0.122580
H30   H     H_    0.690615 0.965953 0.425142 0.118420
C59   C     C_R   0.567371 0.163854 0.708899 0.115173
C60   C     C_R   0.636875 0.181090 0.736170 -0.189983
C61   C     C_R   0.671590 0.145960 0.833593 -0.131454
C62   C     C_R   0.637421 0.093191 0.904187 -0.106484
C63   C     C_R   0.568230 0.076140 0.878433 -0.135528
C64   C     C_R   0.532825 0.112078 0.782662 -0.117268
H31   H     H_    0.664579 0.220692 0.680532 0.125907
H32   H     H_    0.725241 0.159089 0.853455 0.121988
H33   H     H_    0.664604 0.065358 0.978604 0.114672
H34   H     H_    0.542311 0.034521 0.931925 0.111840
H35   H     H_    0.479052 0.098516 0.764450 0.126460
C65   C     C_R   0.433898 0.160959 0.298077 0.109657
C66   C     C_R   0.364770 0.178532 0.267477 -0.184046
C67   C     C_R   0.330531 0.141508 0.172190 -0.127910
C68   C     C_R   0.364733 0.086407 0.107205 -0.105516
C69   C     C_R   0.433570 0.069019 0.136102 -0.143196
C70   C     C_R   0.468600 0.106981 0.229343 -0.115591
H36   H     H_    0.336915 0.219823 0.319136 0.119225
H37   H     H_    0.277149 0.154901 0.149851 0.122287
H38   H     H_    0.337833 0.057007 0.034763 0.113389
H39   H     H_    0.459463 0.025493 0.087203 0.108442
H40   H     H_    0.522119 0.093087 0.249937 0.126437
C71   C     C_3   0.581578 0.671446 0.868304 -0.389757
C72   C     C_3   0.645175 0.621627 0.888134 -0.304899
C73   C     C_3   0.711508 0.656029 0.837288 -0.904123
H41   H     H_    0.704587 0.672256 0.738309 0.275118
H42   H     H_    0.725486 0.704309 0.893344 0.246971
H43   H     H_    0.754946 0.616334 0.842942 0.249885
H44   H     H_    0.652404 0.610014 0.988908 0.209634
H45   H     H_    0.637042 0.569461 0.838728 0.224340
H46   H     H_    0.573791 0.678909 0.766457 0.225936
H47   H     H_    0.592324 0.725905 0.907928 0.186808
C74   C     C_3   0.443907 0.681486 0.123489 -0.382015
C75   C     C_3   0.375004 0.641621 0.098154 -0.304281
C76   C     C_3   0.312598 0.686599 0.139564 -0.922836
H48   H     H_    0.316706 0.700390 0.239982 0.275559
H49   H     H_    0.309310 0.737039 0.083223 0.252248
H50   H     H_    0.264297 0.655080 0.124561 0.243005
H51   H     H_    0.369381 0.629843 0.997291 0.210486
H52   H     H_    0.374290 0.589374 0.150060 0.222965
H53   H     H_    0.450381 0.686667 0.225832 0.225781
H54   H     H_    0.441136 0.737433 0.084767 0.189874
C77   C     C_3   0.725246 0.360793 0.535294 -0.409240
C78   C     C_3   0.717585 0.337323 0.398800 -0.302009
C79   C     C_3   0.692611 0.259068 0.388790 -0.898235
H55   H     H_    0.729096 0.221757 0.437435 0.251468
H56   H     H_    0.640107 0.253539 0.430123 0.275720
H57   H     H_    0.689797 0.243247 0.289206 0.246759
H58   H     H_    0.680376 0.373181 0.348851 0.234981
H59   H     H_    0.768836 0.341829 0.351406 0.208567
H60   H     H_    0.762673 0.322993 0.580838 0.177390
H61   H     H_    0.676487 0.353711 0.588921 0.214218
C80   C     C_3   0.282575 0.372342 0.615051 -0.413031
C81   C     C_3   0.320762 0.381454 0.739488 -0.305527
C82   C     C_3   0.355144 0.310557 0.780311 -0.869645
H62   H     H_    0.315700 0.266984 0.789576 0.249708
H63   H     H_    0.395054 0.293770 0.711317 0.272137
H64   H     H_    0.380643 0.318095 0.872048 0.244028
H65   H     H_    0.361112 0.424099 0.732256 0.231021
H66   H     H_    0.282952 0.398506 0.812226 0.206035
H67   H     H_    0.241049 0.331241 0.629295 0.179409
H68   H     H_    0.316529 0.348424 0.542358 0.222602
C83   C     C_R   0.843822 0.651598 0.544421 0.118766
C84   C     C_R   0.836438 0.696035 0.438612 -0.161127
C85   C     C_R   0.868623 0.763880 0.433897 -0.124554
C86   C     C_R   0.907919 0.788059 0.534882 -0.127676
C87   C     C_R   0.914686 0.744665 0.641165 -0.149893
C88   C     C_R   0.882672 0.676780 0.646240 -0.123874
H69   H     H_    0.806876 0.677594 0.359014 0.117982
H70   H     H_    0.863227 0.797668 0.351825 0.115363
H71   H     H_    0.932794 0.840598 0.531075 0.107544
H72   H     H_    0.944726 0.763659 0.719687 0.115123
H73   H     H_    0.888240 0.643810 0.729316 0.120072
C89   C     C_R   0.151997 0.645570 0.471344 0.118227
C90   C     C_R   0.122138 0.688395 0.565330 -0.124765
C91   C     C_R   0.089117 0.753721 0.534956 -0.119600
C92   C     C_R   0.084674 0.776016 0.410674 -0.115285
C93   C     C_R   0.114238 0.733552 0.316708 -0.145480
C94   C     C_R   0.148416 0.668855 0.346930 -0.171953
H74   H     H_    0.124445 0.671126 0.661782 0.117289
H75   H     H_    0.066665 0.786884 0.607697 0.112437
H76   H     H_    0.058597 0.826333 0.387228 0.109020
H77   H     H_    0.110857 0.750900 0.220483 0.119377
H78   H     H_    0.170434 0.635925 0.273432 0.122792

loop_
_geom_bond_atom_site_label_1
_geom_bond_atom_site_label_2
_ccdc_geom_bond_type
C30   H9    S    
C76   H50   S    
C63   H34   S    
C26   C32   S    
C85   C86   A    
C71   H47   S    
C82   H63   S    
C1    C8    S    
C29   C65   S    
O1    Zn1   S    
C83   C84   A    
N1    Zn1   S    
C23   O8    A    
C8    C42   A    
C17   H5    S    
C67   C68   A    
C18   H6    S    
C71   C72   S    
C4    C46   A    
C22   C35   S    
C74   H54   S    
C78   H58   S    
C84   C85   A    
C35   C37   A    
C37   C38   A    
O8    Zn2   S    
C94   H78   S    
C29   C32   A    
C75   H52   S    
C65   C70   A    
C77   C78   S    
C92   H76   S    
C39   H11   S    
C59   C64   A    
C39   C71   S    
C69   C70   A    
C76   H49   S    
C18   C19   A    
C89   C90   A    
C65   C66   A    
C78   H59   S    
C17   C19   A    
C54   H26   S    
C28   C59   S    
C2    C7    S    
C7    C41   A    
O6    Zn1   S    
C73   H43   S    
O4    Zn2   S    
C61   H32   S    
C31   H10   S    
C37   H1    S    
C19   C27   S    
C9    C10   A    
C38   H2    S    
C49   H22   S    
C3    C83   S    
C21   C53   S    
C77   H60   S    
C51   H24   S    
C21   C27   A    
C86   H71   S    
C4    C89   S    
C13   C14   A    
O2    Zn1   S    
C41   C43   A    
C84   H69   S    
C91   H75   S    
C42   C44   A    
C22   O7    A    
C2    O4    A    
O7    Zn2   S    
C62   C63   A    
C79   H56   S    
C44   C46   A    
C55   H27   S    
C93   C94   A    
C64   H35   S    
N2    Zn2   S    
C88   H73   S    
C82   H62   S    
C33   C40   S    
C40   H12   S    
C69   H39   S    
C72   H45   S    
C34   C39   S    
C59   C60   A    
C20   C24   A    
C76   H48   S    
C42   C80   S    
C25   H8    S    
C4    C6    A    
C54   C55   A    
C5    C7    A    
C58   H30   S    
C48   C49   A    
C13   H19   S    
C24   H7    S    
C3    C45   A    
C49   C50   A    
C66   H36   S    
C80   H67   S    
C70   H40   S    
C81   H66   S    
C48   H21   S    
C74   C75   S    
C51   C52   A    
C28   C32   A    
C15   N1    A    
C33   C34   A    
C14   H20   S    
C5    H15   S    
C60   H31   S    
C16   N1    A    
C1    O3    A    
C43   C45   A    
C81   C82   S    
C90   H74   S    
C23   C36   S    
C77   H61   S    
C12   C14   A    
C50   C51   A    
C57   C58   A    
C47   C52   A    
C73   H41   S    
C52   H25   S    
C23   O6    A    
C79   H55   S    
C87   C88   A    
C79   H57   S    
C66   C67   A    
C63   C64   A    
C40   C74   S    
C85   H70   S    
C15   C17   A    
C21   C25   A    
C91   C92   A    
O5    Zn1   S    
C20   C47   S    
C71   H46   S    
C9    H17   S    
C31   N2    A    
C10   H18   S    
C93   H77   S    
C24   C26   A    
C12   C45   S    
C3    C5    A    
C53   C58   A    
C6    C8    A    
C68   H38   S    
C41   C77   S    
C87   H72   S    
C20   C27   A    
C43   H13   S    
C56   C57   A    
C75   C76   S    
C74   H53   S    
C80   H68   S    
C78   C79   S    
C6    H16   S    
C28   C30   A    
C83   C88   A    
C25   C26   A    
C81   H65   S    
C29   C31   A    
C90   C91   A    
C11   C13   A    
C53   C54   A    
C86   C87   A    
C67   H37   S    
C57   H29   S    
C44   H14   S    
C56   H28   S    
C36   C38   A    
C55   C56   A    
C33   C35   A    
C72   H44   S    
C34   C36   A    
C15   H3    S    
C60   C61   A    
C16   H4    S    
C9    C12   A    
C1    O1    A    
C10   C11   A    
C47   C48   A    
C39   C40   S    
C16   C18   A    
C92   C93   A    
C61   C62   A    
C73   H42   S    
C75   H51   S    
C62   H33   S    
C11   C46   S    
C22   O5    A    
C68   C69   A    
C80   C81   S    
C2    O2    A    
C89   C94   A    
O3    Zn2   S    
C30   N2    A    
C50   H23   S    
C72   C73   S    
C82   H64   S    
