data_mof_unit_67341.cif
_audit_creation_date              2013-03-05T16:05:44-0500
_audit_creation_method            fapswitch 2.2
_symmetry_space_group_name_H-M    P1
_symmetry_Int_Tables_number       1
_space_group_crystal_system       triclinic
_cell_length_a                    8.441725
_cell_length_b                    14.994027
_cell_length_c                    16.527916
_cell_angle_alpha                 111.183571
_cell_angle_beta                  97.0901
_cell_angle_gamma                 82.040545
_cell_volume                      1925.76165681

loop_
_atom_site_label
_atom_site_type_symbol
_atom_site_description
_atom_site_fract_x
_atom_site_fract_y
_atom_site_fract_z
_atom_type_partial_charge
P1    P     P_3+3 0.592580 0.619730 0.703530 0.603798
O1    O     O_2   0.428380 0.595290 0.716080 -0.311499
O2    O     O_3   0.649320 0.571640 0.606850 -0.357591
O3    O     O_3   0.202060 0.415890 0.655600 -0.433917
O4    O     O_2   0.323416 0.512215 0.807619 -0.284378
O5    O     O_3   0.606965 0.746783 0.762162 -0.639948
O6    O     O_3   0.288692 0.333397 0.784792 -0.428153
H1    H     H_    0.294581 0.248450 0.654484 0.113364
C1    C     C_3   0.296413 0.160927 0.732329 -0.759063
H2    H     H_    0.429069 0.150898 0.741210 0.266616
H3    H     H_    0.246905 0.162557 0.791857 0.303244
P2    P     P_3+3 0.156500 0.273340 0.422460 0.529604
P3    P     P_3+3 0.659411 0.240799 0.603303 0.522615
O7    O     O_2   0.338780 0.265250 0.448290 -0.276285
O8    O     O_3   0.612600 0.359160 0.609560 -0.332465
O9    O     O_2   0.522851 0.185826 0.543677 -0.338973
O10   O     O_3   0.144825 0.222923 0.309088 -0.519139
O11   O     O_3   0.634866 0.236144 0.705310 -0.543960
C2    C     C_3   0.777902 0.255347 0.758873 0.058856
H4    H     H_    0.800194 0.331409 0.775072 0.123178
H5    H     H_    0.880646 0.206882 0.726213 0.046875
C3    C     C_3   0.764021 0.235346 0.842587 0.388285
H6    H     H_    0.727100 0.161577 0.822932 0.065774
C4    C     C_3   0.739720 0.208172 0.291164 0.653790
H7    H     H_    0.843087 0.251566 0.311030 0.010504
C5    C     C_3   0.785322 0.113612 0.217018 -0.275209
H8    H     H_    0.813678 0.129893 0.160346 0.160273
H9    H     H_    0.682119 0.069572 0.195450 0.214391
Ba1   Ba    Ba6+2 0.364200 0.465260 0.540910 1.700641
C6    C     C_3   0.541452 0.821769 0.729835 0.816811
C7    C     C_3   0.571459 0.923450 0.802842 0.030323
H10   H     H_    0.593348 0.976458 0.774205 0.130118
C8    C     C_3   0.162250 0.292490 0.273647 0.234580
H11   H     H_    0.284700 0.315498 0.291588 0.103614
H12   H     H_    0.072200 0.355864 0.295957 0.096971
C9    C     C_3   0.135012 0.248079 0.175190 -0.156917
H13   H     H_    0.146146 0.301329 0.144890 0.096453
H14   H     H_    0.012189 0.225291 0.156949 0.167799
P4    P     P_3+3 0.597130 0.380190 0.296460 0.509423
O12   O     O_2   0.761310 0.404670 0.283870 -0.388133
O13   O     O_3   0.540390 0.428280 0.393140 -0.351077
O14   O     O_3   0.987650 0.584030 0.344390 -0.369750
O15   O     O_3   0.604516 0.254140 0.259314 -0.614291
P5    P     P_3+3 0.534141 0.760600 0.399969 0.596074
O16   O     O_3   0.122140 0.620560 0.549160 -0.401083
O17   O     O_3   0.577110 0.640760 0.390430 -0.345432
O18   O     O_2   0.678831 0.812323 0.454444 -0.283193
O19   O     O_3   0.553962 0.765114 0.297203 -0.496792
Ba2   Ba    Ba6+2 0.825640 0.534660 0.459080 1.689166
P6    P     P_3+3 0.200843 0.437667 0.765567 0.525201
C10   C     C_3   0.240220 0.253315 0.713921 0.510976
H15   H     H_    0.107568 0.258295 0.701580 -0.036278
H16   H     H_    0.255324 0.098334 0.676960 0.198692
O20   O     O_3   0.067570 0.379360 0.450830 -0.433973
C11   C     C_3   0.024718 0.693444 0.719189 0.322985
H17   H     H_    0.918877 0.655505 0.684536 0.017926
H18   H     H_    0.133617 0.643038 0.699958 0.144110
C12   C     C_3   0.019145 0.716738 0.817291 -0.131538
H19   H     H_    0.893876 0.735253 0.834785 0.117878
H20   H     H_    0.063904 0.651779 0.832394 0.107789
P7    P     P_3+3 0.032544 0.741765 0.584417 0.601236
O21   O     O_2   0.850910 0.734710 0.551660 -0.293563
O22   O     O_3   0.027438 0.776536 0.698221 -0.460613
C13   C     C_3   0.434454 0.717731 0.235581 0.727377
H21   H     H_    0.341775 0.693255 0.262954 -0.118185
C14   C     C_3   0.353747 0.782902 0.186577 -0.869112
H22   H     H_    0.443955 0.820586 0.171191 0.295757
H23   H     H_    0.290460 0.740732 0.124874 0.262846
H24   H     H_    0.263005 0.836228 0.225720 0.234293
P8    P     P_3+3 0.987169 0.549659 0.231088 0.491802
C15   C     C_3   0.003303 0.701380 0.193712 0.316171
H25   H     H_    0.099026 0.656565 0.152279 0.065640
O23   O     O_2   0.870337 0.471619 0.190873 -0.342955
O24   O     O_3   0.890722 0.645388 0.201465 -0.447756
H26   H     H_    0.055724 0.743703 0.259312 0.075387
H27   H     H_    0.004593 0.811135 0.137012 0.246924
C16   C     C_3   0.917444 0.769598 0.149396 -0.737573
H28   H     H_    0.826051 0.819943 0.191088 0.274118
H29   H     H_    0.856883 0.728124 0.085939 0.252304
C17   C     C_2   0.302747 0.480413 0.247610 -0.502535
C18   C     C_R   0.873579 0.505310 0.745981 -0.567331
C19   C     C_2   0.466151 0.369487 0.132720 -0.278339
C20   C     C_2   0.452663 0.418371 0.218349 0.296442
C21   C     C_2   0.184086 0.495594 0.189931 0.096654
C22   C     C_3   0.216627 0.464587 0.094404 -0.072357
C23   C     C_3   0.329954 0.372186 0.064969 0.387409
C24   C     C_2   0.079107 0.467172 0.025963 -0.228222
C25   C     C_2   0.096202 0.503933 0.963839 0.370543
C26   C     C_R   0.823875 0.563314 0.921915 0.067117
C27   C     C_R   0.967536 0.509326 0.894304 -0.152207
C28   C     C_R   0.708830 0.591488 0.865307 0.170411
C29   C     C_R   0.729862 0.562520 0.775287 0.203031
C30   C     C_R   0.997038 0.484022 0.805256 0.148053
H30   H     H_    0.569609 0.317697 0.111697 0.189580
H31   H     H_    0.283194 0.505366 0.316285 0.165534
H32   H     H_    0.897197 0.486474 0.678648 0.174458
H33   H     H_    0.971429 0.434246 0.024120 0.215144
C31   C     C_R   0.852360 0.188907 0.553933 0.243242
H34   H     H_    0.875576 0.317315 0.527380 0.179862
H35   H     H_    0.742122 0.065480 0.611815 0.185911
C32   C     C_R   0.070754 0.209941 0.482300 0.256427
C33   C     C_R   0.260082 0.773004 0.487698 -0.369105
C34   C     C_R   0.343193 0.822231 0.451220 0.149394
C35   C     C_R   0.284645 0.916683 0.455286 0.079841
C36   C     C_R   0.145519 0.964443 0.502716 -0.027394
C37   C     C_R   0.071893 0.914051 0.545524 -0.102959
C38   C     C_R   0.073776 0.060043 0.510111 0.064911
C39   C     C_R   0.921481 0.094343 0.544672 -0.024345
C40   C     C_R   0.851467 0.038809 0.579411 -0.201162
C41   C     C_R   0.941201 0.961914 0.594970 0.295000
C42   C     C_R   0.149468 0.125080 0.488350 -0.276187
C43   C     C_R   0.928816 0.245892 0.522597 -0.422696
C44   C     C_R   0.126961 0.817017 0.536020 0.296962
H36   H     H_    0.274877 0.119394 0.487926 0.209843
H37   H     H_    0.303368 0.699373 0.480475 0.176968
I1    I     I_    0.987034 0.026905 0.250840 -0.267423
N1    N     N_R   0.372109 0.819677 0.709696 0.231231
O25   O     O_R   0.292451 0.892480 0.693229 -0.446889
O26   O     O_R   0.324600 0.735990 0.669246 -0.376217
N2    N     N_R   0.608257 0.808997 0.648536 0.195622
O27   O     O_R   0.572941 0.733900 0.581770 -0.347911
O28   O     O_R   0.638373 0.883542 0.632612 -0.443369
I2    I     I_    0.378342 0.000387 0.882932 -0.045424
I3    I     I_    0.761681 0.927674 0.900606 -0.151212
I4    I     I_    0.304922 0.125886 0.125853 -0.132046
N3    N     N_R   0.117854 0.792074 0.871813 0.327696
O29   O     O_R   0.100878 0.828365 0.954977 -0.289081
O30   O     O_R   0.250928 0.800208 0.844891 -0.285254
N4    N     N_R   0.916749 0.239045 0.895830 0.217730
O31   O     O_R   0.036641 0.275608 0.881311 -0.453812
O32   O     O_R   0.930068 0.210400 0.962100 -0.360606
I5    I     I_    0.549907 0.596086 0.143879 -0.145386
I6    I     I_    0.535736 0.699183 0.931842 -0.060965
N5    N     N_R   0.234372 0.552199 0.971761 0.233531
O33   O     O_R   0.216243 0.639960 0.972696 -0.396493
O34   O     O_R   0.375658 0.504432 0.965123 -0.279947
I7    I     I_    0.409820 0.971698 0.378375 -0.188339
I8    I     I_    0.947669 0.985900 0.729525 -0.218420
N6    N     N_R   0.642521 0.303719 0.894211 0.263170
O35   O     O_R   0.666224 0.393924 0.931097 -0.353404
O36   O     O_R   0.517038 0.273259 0.910139 -0.362031
N7    N     N_R   0.694609 0.191051 0.365940 0.210252
O37   O     O_R   0.634321 0.264416 0.427868 -0.349142
O38   O     O_R   0.684588 0.104887 0.365135 -0.367526

loop_
_geom_bond_atom_site_label_1
_geom_bond_atom_site_label_2
_geom_bond_distance
_ccdc_geom_bond_type
C14   H23   1.103754 S    
C11   H17   1.108562 S    
N3    O29   1.300930 A    
C19   H30   1.085640 S    
P2    Ba1   3.415589 S    
C2    H4    1.110899 S    
C1    C10   1.524314 S    
C17   C21   1.349802 D    
C7    I2    2.156145 S    
O2    Ba2   2.859723 S    
P4    O13   1.601023 S    
Ba1   Ba2   4.639616 S    
C16   H28   1.110822 S    
C39   C40   1.392101 A    
C32   C43   1.388711 A    
C36   C38   1.444880 A    
O17   Ba2   2.830636 S    
C5    H8    1.109521 S    
P3    O11   1.750883 S    
O1    Ba1   2.881447 S    
C9    H13   1.103869 S    
C2    H5    1.108725 S    
C4    C5    1.539415 S    
C7    I3    2.123014 S    
O11   C2    1.404564 S    
N1    O26   1.284226 A    
C22   C23   1.527127 S    
C6    C7    1.595794 S    
O19   C13   1.407740 S    
C14   H24   1.106121 S    
Ba1   O20   2.955147 S    
C12   H20   1.097378 S    
O12   Ba2   2.881931 S    
O14   P8    1.753184 S    
C8    C9    1.520283 S    
C31   C39   1.417884 A    
C35   I7    2.178027 S    
O2    Ba1   2.946952 S    
P1    O1    1.537940 D    
P3    C31   1.855416 S    
P7    O22   1.765404 S    
C33   H37   1.081862 S    
C18   C29   1.413833 A    
C21   C22   1.524996 S    
C9    I4    2.135481 S    
P5    O17   1.736116 S    
C11   O22   1.412371 S    
P2    O10   1.744605 S    
P8    O24   1.746056 S    
C38   C39   1.424616 A    
C26   C28   1.394530 A    
P8    C21   1.841353 S    
C1    H2    1.107675 S    
O3    Ba1   2.819555 S    
C28   C29   1.417987 A    
P5    O18   1.546027 D    
C16   H29   1.110135 S    
C14   H22   1.111149 S    
H35   C40   1.078799 S    
Ba2   O20   2.852031 S    
P7    O21   1.566500 D    
O10   C8    1.399331 S    
C17   C20   1.483507 S    
O13   Ba2   2.947881 S    
C35   C36   1.447534 A    
P5    C34   1.878456 S    
N2    O28   1.300399 A    
O8    Ba1   2.829963 S    
C22   C24   1.524407 S    
C31   C43   1.403545 A    
C37   C44   1.422375 A    
C10   H15   1.110233 S    
C13   I5    2.109096 S    
C41   I8    2.115553 S    
C2    C3    1.538723 S    
C4    H7    1.106664 S    
C4    N7    1.452905 S    
P4    O12   1.538247 D    
C18   H32   1.081685 S    
P4    O15   1.758148 S    
C12   H19   1.102324 S    
C19   C23   1.509792 S    
C3    N6    1.457280 S    
O5    C6    1.429863 S    
P1    O5    1.812129 S    
O3    P6    1.727685 S    
P1    O2    1.601026 S    
C13   C14   1.525271 S    
C18   C30   1.424670 A    
C7    H10   1.106364 S    
C28   I6    2.100425 S    
O16   Ba2   2.954220 S    
P8    O23   1.542534 D    
P1    Ba1   3.429846 S    
C8    H11   1.106622 S    
H27   C16   1.107811 S    
C17   H31   1.085282 S    
C1    H3    1.106622 S    
H1    C10   1.109596 S    
P4    Ba2   3.430459 S    
P2    O7    1.545416 D    
C12   N3    1.456715 S    
P1    C29   1.898967 S    
P3    O8    1.731946 S    
C3    N4    1.464309 S    
P7    C44   1.899220 S    
N7    O38   1.301545 A    
O4    P6    1.544161 D    
C11   C12   1.535645 S    
C1    H16   1.108904 S    
O7    Ba1   2.856997 S    
C9    H14   1.108675 S    
C15   C16   1.520901 S    
N2    O27   1.299320 A    
C27   C30   1.425785 A    
N4    O31   1.300450 A    
C37   C41   1.406957 A    
N3    O30   1.294369 A    
Ba2   O21   2.857224 S    
Ba1   O13   2.859067 S    
C3    H6    1.112180 S    
C38   C42   1.404057 A    
O6    P6    1.753564 S    
C25   C27   1.497261 S    
C15   O24   1.397592 S    
N5    O34   1.298644 A    
N6    O35   1.299991 A    
P6    C30   1.868511 S    
N5    O33   1.298204 A    
C6    N1    1.429262 S    
C32   C42   1.382719 A    
C36   C37   1.443168 A    
C5    H9    1.111157 S    
C13   H21   1.112814 S    
C11   H18   1.106099 S    
O6    C10   1.408026 S    
C15   H25   1.107752 S    
C33   C44   1.404094 A    
C40   C41   1.376075 A    
C15   H26   1.111830 S    
N6    O36   1.299885 A    
C6    N2    1.459936 S    
H34   C43   1.081392 S    
O16   P7    1.782456 S    
C8    H12   1.110268 S    
C42   H36   1.050951 S    
C33   C34   1.403573 A    
C5    I1    2.139954 S    
P4    C20   1.853071 S    
O14   Ba2   2.818894 S    
C25   N5    1.424406 S    
P2    C32   1.858110 S    
C24   C25   1.358885 D    
C19   C20   1.349128 D    
P3    O9    1.541171 D    
Ba1   O16   2.852698 S    
C34   C35   1.414228 A    
C4    O15   1.396746 S    
N7    O37   1.294819 A    
N4    O32   1.301162 A    
C26   C27   1.389984 A    
N1    O25   1.297734 A    
P2    O20   1.590026 S    
P5    O19   1.753254 S    
C24   H33   1.085121 S    
