data_mof_unit_10361.cif
_audit_creation_date              2012-12-11T14:56:46-0500
_audit_creation_method            fapswitch 2.2
_symmetry_space_group_name_H-M    P1
_symmetry_Int_Tables_number       1
_space_group_crystal_system       triclinic
_cell_length_a                    10.526141
_cell_length_b                    10.633881
_cell_length_c                    17.144592
_cell_angle_alpha                 80.179012
_cell_angle_beta                  89.886298
_cell_angle_gamma                 118.891811
_cell_volume                      1647.63604771

loop_
_atom_site_label
_atom_site_type_symbol
_atom_type_description
_atom_site_fract_x
_atom_site_fract_y
_atom_site_fract_z
_atom_type_partial_charge
C1    C     C_R   0.278077 0.888096 0.132949 0.562183
C2    C     C_1   0.682444 0.399497 0.709741 -0.040899
C3    C     C_R   0.534026 0.744176 0.782905 0.139795
C4    C     C_R   0.632945 0.272181 0.090069 0.532625
C5    C     C_R   0.529420 0.753411 0.702519 -0.119471
C6    C     C_R   0.652428 0.853327 0.651764 0.001088
C7    C     C_R   0.769344 0.968028 0.679438 -0.131521
C8    C     C_R   0.767963 0.971859 0.759991 -0.167204
C9    C     C_R   0.653493 0.857349 0.812934 0.044245
C10   C     C_R   0.249042 0.966650 0.758354 -0.137670
C11   C     C_R   0.234503 0.951401 0.680399 -0.164325
C12   C     C_R   0.727434 0.275689 0.296920 -0.144038
C13   C     C_R   0.160641 0.811703 0.662374 0.046093
C14   C     C_R   0.116264 0.685037 0.723256 0.114508
C15   C     C_R   0.131497 0.702729 0.801916 -0.133642
C16   C     C_R   0.640240 0.858258 0.125467 0.546092
C17   C     C_R   0.192922 0.842380 0.819325 0.013909
C18   C     C_R   0.686486 0.810014 0.357207 0.548758
C19   C     C_R   0.682205 0.384954 0.399371 0.555488
C20   C     C_R   0.107915 0.812202 0.359737 0.553055
C21   C     C_R   0.674623 0.806734 0.581166 0.538269
C22   C     C_R   0.716387 0.445149 0.626130 0.586096
C23   C     C_R   0.728042 0.268989 0.218033 -0.143812
C24   C     C_R   0.099850 0.800730 0.586376 0.550229
C25   C     C_R   0.224685 0.864229 0.898909 0.561252
C26   C     C_R   0.639461 0.289492 0.861553 0.541541
C27   C     C_R   0.638780 0.869162 0.895387 0.557020
C28   C     C_R   0.533730 0.334173 0.203805 -0.017085
C29   C     C_R   0.539491 0.345531 0.284033 -0.107699
C30   C     C_R   0.640519 0.323267 0.328798 0.011582
C31   C     C_3   0.422224 0.356552 0.154876 -0.244886
C32   C     C_3   0.328827 0.406127 0.196106 -0.316168
C33   C     C_3   0.223037 0.425027 0.140815 -0.411268
C34   C     C_R   0.635900 0.301858 0.169929 0.030802
C35   C     C_3   0.131326 0.492107 0.671961 -0.267821
C36   C     C_3   0.447868 0.497811 0.855219 -0.269689
C37   C     C_1   0.668405 0.848486 0.205532 -0.044768
C38   C     C_1   0.680051 0.839227 0.274862 -0.043530
C39   C     C_1   0.226359 0.853082 0.215476 -0.043545
C40   C     C_1   0.177894 0.833764 0.282913 -0.041215
C41   C     C_1   0.659894 0.355404 0.780095 -0.074511
Cr1   Cr    Cr6+3 0.402240 0.783890 0.019450 1.002468
Cr2   Cr    Cr6+3 0.382360 0.097900 0.991800 0.988054
Cr3   Cr    Cr6+3 0.715380 0.118170 0.988700 1.009036
Cr4   Cr    Cr6+3 0.936650 0.882420 0.465510 1.011710
Cr5   Cr    Cr6+3 0.605770 0.565620 0.493360 1.004810
Cr6   Cr    Cr6+3 0.921340 0.550490 0.496380 1.017619
H1    H     H_    0.272385 0.049044 0.634545 0.139525
H2    H     H_    0.283143 0.505652 0.085424 0.185882
H3    H     H_    0.145152 0.318600 0.125074 0.137314
H4    H     H_    0.160234 0.464902 0.171217 0.158017
H5    H     H_    0.263415 0.322290 0.249634 0.159170
H6    H     H_    0.400155 0.511852 0.214519 0.192601
H7    H     H_    0.481212 0.438893 0.099681 0.158293
H8    H     H_    0.344645 0.250766 0.138506 0.186406
H9    H     H_    0.971016 0.461684 0.754545 0.253502
H10   H     H_    0.190945 0.460944 0.717522 0.101087
H11   H     H_    0.210006 0.578594 0.623037 0.157178
H12   H     H_    0.094528 0.607729 0.849523 0.116472
H13   H     H_    0.060346 0.394040 0.646862 0.153229
H14   H     H_    0.317070 0.584604 0.813056 0.241958
H15   H     H_    0.359089 0.409867 0.899414 0.138917
H16   H     H_    0.552474 0.534830 0.882685 0.160321
H17   H     H_    0.452674 0.452592 0.802154 0.132682
H18   H     H_    0.471595 0.379331 0.311442 0.133198
H19   H     H_    0.803669 0.254426 0.331355 0.138850
H20   H     H_    0.800728 0.235479 0.195249 0.144918
H21   H     H_    0.437915 0.666357 0.681482 0.127550
H22   H     H_    0.865087 0.048714 0.639961 0.137768
H23   H     H_    0.857380 0.061323 0.781002 0.132389
H24   H     H_    0.305047 0.076329 0.770865 0.144478
N1    N     N_2   0.041628 0.540047 0.707653 -0.488209
N2    N     N_2   0.418653 0.617926 0.832705 -0.484159
O1    O     O_R   0.521780 0.757110 0.108900 -0.535907
O2    O     O_R   0.805020 0.410040 0.421340 -0.518210
O3    O     O_R   0.049240 0.685450 0.403290 -0.497180
O4    O     O_R   0.275160 0.783810 0.101120 -0.498173
O5    O     O_R   0.077520 0.903010 0.551800 -0.527809
O6    O     O_R   0.802980 0.872780 0.546830 -0.503995
O7    O     O_R   0.578090 0.681300 0.569920 -0.537014
O8    O     O_R   0.608530 0.436370 0.586530 -0.504850
O9    O     O_R   0.798770 0.401880 0.597100 -0.500043
O10   O     O_R   0.043450 0.677890 0.566230 -0.490371
O11   O     O_3   0.821250 0.666180 0.485090 -0.265409
O12   O     O_R   0.513330 0.228330 0.898660 -0.511406
O13   O     O_R   0.237900 0.972600 0.090980 -0.512548
O14   O     O_R   0.511190 0.220540 0.061620 -0.536656
O15   O     O_R   0.736920 0.257720 0.063840 -0.521032
O16   O     O_R   0.710450 0.984050 0.081720 -0.498956
O17   O     O_R   0.524090 0.765520 0.933110 -0.482588
O18   O     O_R   0.277300 0.791600 0.938160 -0.491019
O19   O     O_R   0.240210 0.981010 0.915190 -0.520098
O20   O     O_R   0.739230 0.266130 0.888050 -0.514170
O21   O     O_R   0.712580 0.991850 0.918770 -0.505508
O22   O     O_3   0.499990 0.999980 0.999980 -0.262467
O23   O     O_R   0.083770 0.911170 0.376030 -0.508862
O24   O     O_R   0.808770 0.880340 0.383890 -0.497010
O25   O     O_R   0.584340 0.689460 0.394160 -0.516750
O26   O     O_R   0.614320 0.443940 0.423590 -0.504867

loop_
_geom_bond_atom_site_label_1
_geom_bond_atom_site_label_2
_ccdc_geom_bond_type
Cr5   O26   S    
C1    O4    A    
C36   H17   S    
C7    C8    A    
C4    O14   A    
C12   C23   A    
C29   C30   A    
C35   H11   S    
C16   O1    A    
C22   O9    A    
C28   C29   A    
C24   O10   A    
Cr6   O3    S    
C5    C6    A    
C20   C40   S    
C10   C17   A    
C33   H2    S    
C20   O3    A    
C27   O17   A    
Cr1   O18   S    
Cr6   O9    S    
C23   H20   S    
C32   H5    S    
Cr3   O20   S    
C8    C9    A    
H9    N1    S    
C2    C22   S    
Cr2   O22   S    
Cr4   O5    S    
C18   O24   A    
Cr6   O10   S    
C36   H16   S    
C16   C37   S    
C10   H24   S    
C26   O20   A    
Cr5   O25   S    
C28   C34   A    
C16   O16   A    
C13   C14   A    
C11   H1    S    
C14   N1    S    
C5    H21   S    
C36   H15   S    
C4    C34   S    
C25   O18   A    
Cr1   O1    S    
Cr1   O22   S    
Cr2   O12   S    
C22   O8    A    
C36   N2    S    
C39   C40   T    
C19   O26   A    
H14   N2    S    
C33   H3    S    
C6    C21   S    
C12   H19   S    
C13   C24   S    
C35   H13   S    
Cr1   O17   S    
C37   C38   T    
C3    C9    A    
Cr5   O8    S    
C31   C32   S    
C23   C34   A    
C21   O6    A    
C19   C30   S    
Cr4   O6    S    
Cr6   O11   S    
C29   H18   S    
C24   O5    A    
C35   N1    S    
Cr5   O11   S    
Cr4   O11   S    
C32   H6    S    
C9    C27   S    
C1    O13   A    
C15   C17   A    
C25   O19   A    
C12   C30   A    
Cr2   O13   S    
C15   H12   S    
C28   C31   S    
C3    C5    A    
C7    H22   S    
C6    C7    A    
C4    O15   A    
C33   H4    S    
C8    H23   S    
Cr2   O19   S    
C35   H10   S    
C17   C25   S    
C32   C33   S    
C19   O2    A    
C18   C38   S    
Cr2   O14   S    
C2    C41   T    
Cr3   O22   S    
Cr4   O24   S    
Cr5   O7    S    
C11   C13   A    
C26   O12   A    
C21   O7    A    
C31   H7    S    
C20   O23   A    
C3    N2    S    
Cr3   O21   S    
C10   C11   A    
C1    C39   S    
Cr6   O2    S    
Cr1   O4    S    
C14   C15   A    
C27   O21   A    
C18   O25   A    
C31   H8    S    
Cr3   O15   S    
Cr4   O23   S    
Cr3   O16   S    
C26   C41   S    
