data_mof_unit_63422.cif
_audit_creation_date              2012-12-10T18:16:58-0500
_audit_creation_method            fapswitch 2.2
_symmetry_space_group_name_H-M    P1
_symmetry_Int_Tables_number       1
_space_group_crystal_system       triclinic
_cell_length_a                    29.179981
_cell_length_b                    29.180015
_cell_length_c                    38.800761
_cell_angle_alpha                 89.999929
_cell_angle_beta                  90.0
_cell_angle_gamma                 90.000096
_cell_volume                      33037.7725616

loop_
_atom_site_label
_atom_site_type_symbol
_atom_type_description
_atom_site_fract_x
_atom_site_fract_y
_atom_site_fract_z
_atom_type_partial_charge
C1    C     C_R   0.500000 0.913185 1.000000 0.910946
C2    C     C_1   0.229426 0.500000 0.000000 0.023283
C3    C     C_R   0.000000 0.500000 0.894324 -0.150744
C4    C     C_R   1.000000 0.500000 0.605675 -0.150721
C5    C     C_R   0.500000 1.000000 0.605676 -0.150731
C6    C     C_R   1.000000 0.500000 0.394324 -0.150734
C7    C     C_R   0.500000 0.000000 0.394325 -0.150713
C8    C     C_R   0.499999 0.000000 0.284689 0.209123
C9    C     C_R   0.999999 0.499999 0.284689 0.209113
C10   C     C_R   0.500000 1.000000 0.715311 0.209118
C11   C     C_R   1.000000 0.500000 0.715311 0.209128
C12   C     C_R   0.000000 0.500000 0.784688 0.209129
C13   C     C_1   0.500000 0.229426 0.000000 0.023284
C14   C     C_R   0.500000 1.000000 0.784688 0.209117
C15   C     C_R   1.000000 0.499999 0.215311 0.209116
C16   C     C_R   0.499999 0.000000 0.215312 0.209116
C17   C     C_1   0.500000 0.862547 1.000000 -0.203185
C18   C     C_1   0.137453 0.500000 0.000000 -0.203185
C19   C     C_1   0.500000 0.137453 0.000000 -0.203185
C20   C     C_1   0.862547 0.500000 0.000000 -0.203186
C21   C     C_1   1.000000 0.362547 0.500000 -0.203183
C22   C     C_1   0.637453 0.000000 0.500000 -0.203181
C23   C     C_1   0.000000 0.637453 0.500000 -0.203182
C24   C     C_1   0.770574 0.500000 0.000000 0.023283
C25   C     C_1   0.362547 1.000000 0.500000 -0.203182
C26   C     C_1   0.500000 0.820364 1.000000 0.020719
C27   C     C_1   0.179636 0.500000 0.000000 0.020719
C28   C     C_1   0.500000 0.179636 0.000000 0.020719
C29   C     C_1   0.820364 0.500000 0.000000 0.020718
C30   C     C_1   1.000000 0.320364 0.500000 0.020721
C31   C     C_1   0.679636 0.000000 0.500000 0.020722
C32   C     C_1   0.000000 0.679636 0.500000 0.020722
C33   C     C_1   0.320364 1.000000 0.500000 0.020721
C34   C     C_2   0.416718 0.974379 0.177742 0.430224
C35   C     C_1   1.000000 0.270574 0.500000 0.023285
C36   C     C_2   0.025738 0.416754 0.177741 0.430226
C37   C     C_2   0.583281 0.025622 0.177743 0.430224
C38   C     C_2   0.974262 0.583244 0.177741 0.430229
C39   C     C_2   0.416752 0.025730 0.822259 0.430226
C40   C     C_2   0.025628 0.583279 0.822259 0.430236
C41   C     C_2   0.583248 0.974270 0.822259 0.430226
C42   C     C_2   0.974374 0.416721 0.822258 0.430237
C43   C     C_2   0.916768 0.474220 0.677740 0.430228
C44   C     C_2   0.525738 0.916755 0.677741 0.430226
C45   C     C_2   0.083232 0.525781 0.677740 0.430230
C46   C     C_1   0.729426 0.000000 0.500000 0.023287
C47   C     C_2   0.474262 0.083245 0.677741 0.430226
C48   C     C_2   0.916756 0.525744 0.322259 0.430218
C49   C     C_2   0.525839 0.083215 0.322260 0.430224
C50   C     C_2   0.083243 0.474256 0.322258 0.430224
C51   C     C_2   0.474160 0.916786 0.322260 0.430230
C52   C     C_1   0.000000 0.729426 0.500000 0.023286
C53   C     C_1   0.270574 1.000000 0.500000 0.023286
C54   C     C_1   0.500000 0.728392 1.000000 0.021143
C55   C     C_1   0.271608 0.500000 0.000000 0.021143
C56   C     C_1   0.500000 0.271608 0.000000 0.021143
C57   C     C_R   0.086815 0.500000 0.000000 0.910946
C58   C     C_1   0.728392 0.500000 0.000000 0.021142
C59   C     C_1   1.000000 0.228392 0.500000 0.021144
C60   C     C_1   0.771608 0.000000 0.500000 0.021145
C61   C     C_1   0.000000 0.771608 0.500000 0.021145
C62   C     C_1   0.228392 1.000000 0.500000 0.021145
C63   C     C_1   0.500000 0.678601 1.000000 0.016914
C64   C     C_1   0.321399 0.500000 0.000000 0.016913
C65   C     C_1   0.500000 0.321399 0.000000 0.016914
C66   C     C_1   0.678601 0.500000 0.000000 0.016913
C67   C     C_1   1.000000 0.178601 0.500000 0.016915
C68   C     C_R   0.500000 0.086815 1.000000 0.910946
C69   C     C_1   0.821399 0.000000 0.500000 0.016916
C70   C     C_1   0.000000 0.821399 0.500000 0.016916
C71   C     C_1   0.178601 1.000000 0.500000 0.016915
C72   C     C_1   0.500000 0.636418 1.000000 -0.188709
C73   C     C_1   0.363582 0.500000 1.000000 -0.188709
C74   C     C_1   0.500000 0.363582 0.000000 -0.188709
C75   C     C_1   0.636418 0.500000 0.000000 -0.188709
C76   C     C_1   1.000000 0.136418 0.500000 -0.188707
C77   C     C_1   0.863582 0.000000 0.500000 -0.188706
C78   C     C_1   0.000000 0.863582 0.500000 -0.188706
C79   C     C_R   0.913185 0.500000 0.000000 0.910946
C80   C     C_1   0.136418 1.000000 0.500000 -0.188707
C81   C     C_R   0.414222 0.500000 1.000000 0.878039
C82   C     C_R   0.500000 0.414222 0.000000 0.878038
C83   C     C_R   0.585778 0.500000 0.000000 0.878038
C84   C     C_R   0.500000 0.585778 1.000000 0.878037
C85   C     C_R   0.914222 0.000000 0.500000 0.878038
C86   C     C_R   0.000000 0.914222 0.500000 0.878038
C87   C     C_R   0.085778 0.000000 0.500000 0.878037
C88   C     C_R   0.000000 0.085778 0.500000 0.878037
C89   C     C_R   0.500000 1.000000 0.068086 0.908320
C90   C     C_R   1.000000 0.413185 0.500000 0.910940
C91   C     C_R   0.000000 0.500000 0.068086 0.908309
C92   C     C_R   0.500000 0.000000 0.931914 0.908310
C93   C     C_R   0.000000 0.500000 0.931914 0.908321
C94   C     C_R   1.000000 0.500000 0.568086 0.908307
C95   C     C_R   0.500000 1.000000 0.568086 0.908310
C96   C     C_R   1.000000 0.500000 0.431914 0.908310
C97   C     C_R   0.500000 0.000000 0.431914 0.908301
C98   C     C_R   0.459845 0.989516 0.123600 -0.150320
C99   C     C_R   0.010537 0.459859 0.123599 -0.150321
C100  C     C_R   0.540154 0.010484 0.123600 -0.150319
C101  C     C_R   0.586815 0.000000 0.500000 0.910940
C102  C     C_R   0.989462 0.540140 0.123599 -0.150321
C103  C     C_R   0.459858 0.010534 0.876401 -0.150320
C104  C     C_R   0.010485 0.540154 0.876400 -0.150328
C105  C     C_R   0.540141 0.989466 0.876401 -0.150321
C106  C     C_R   0.989515 0.459846 0.876400 -0.150329
C107  C     C_R   0.959864 0.489444 0.623598 -0.150326
C108  C     C_R   0.510537 0.959859 0.623599 -0.150321
C109  C     C_R   0.040135 0.510556 0.623598 -0.150325
C110  C     C_R   0.489463 0.040140 0.623599 -0.150321
C111  C     C_R   0.959860 0.510540 0.376401 -0.150315
C112  C     C_R   0.000000 0.586815 0.500000 0.910941
C113  C     C_R   0.510584 0.040128 0.376402 -0.150322
C114  C     C_R   0.040139 0.489460 0.376401 -0.150319
C115  C     C_R   0.489416 0.959872 0.376402 -0.150324
C116  C     C_R   0.459367 0.988694 0.159607 0.009557
C117  C     C_R   0.011362 0.459382 0.159606 0.009562
C118  C     C_R   0.540632 0.011307 0.159607 0.009557
C119  C     C_R   0.988638 0.540616 0.159606 0.009561
C120  C     C_R   0.459382 0.011358 0.840394 0.009562
C121  C     C_R   0.011308 0.540632 0.840393 0.009556
C122  C     C_R   0.540618 0.988641 0.840394 0.009562
C123  C     C_R   0.413185 1.000000 0.500000 0.910940
C124  C     C_R   0.988692 0.459368 0.840393 0.009557
C125  C     C_R   0.959388 0.488618 0.659605 0.009566
C126  C     C_R   0.511362 0.959383 0.659606 0.009563
C127  C     C_R   0.040611 0.511382 0.659605 0.009566
C128  C     C_R   0.488638 0.040617 0.659606 0.009563
C129  C     C_R   0.959383 0.511365 0.340394 0.009564
C130  C     C_R   0.511410 0.040604 0.340395 0.009568
C131  C     C_R   0.040616 0.488635 0.340393 0.009564
C132  C     C_R   0.488589 0.959397 0.340395 0.009568
C133  C     C_R   0.499999 0.000000 0.177721 -0.084251
C134  C     C_1   0.500000 0.770574 1.000000 0.023284
C135  C     C_R   1.000000 0.499999 0.177720 -0.084258
C136  C     C_R   0.500000 1.000000 0.822280 -0.084258
C137  C     C_R   0.000000 0.500000 0.822280 -0.084259
C138  C     C_R   1.000000 0.500000 0.677719 -0.084263
C139  C     C_R   0.500000 1.000000 0.677720 -0.084259
C140  C     C_R   0.999999 0.499999 0.322280 -0.084258
C141  C     C_R   0.499999 0.000000 0.322281 -0.084263
C142  C     C_R   0.500000 0.000000 0.105676 -0.150753
C143  C     C_R   1.000000 0.500000 0.105676 -0.150731
C144  C     C_R   0.500000 1.000000 0.894324 -0.150734
H1    H     H_    0.429081 0.980899 0.109352 0.198572
H2    H     H_    0.519197 0.929107 0.609351 0.198554
H3    H     H_    0.070884 0.519230 0.609350 0.198547
H4    H     H_    0.480803 0.070893 0.609351 0.198554
H5    H     H_    0.929108 0.519202 0.390649 0.198556
H6    H     H_    0.519279 0.070870 0.390650 0.198539
H7    H     H_    0.070891 0.480799 0.390649 0.198553
H8    H     H_    0.480720 0.929130 0.390650 0.198537
H9    H     H_    0.416678 0.968094 0.205271 0.086521
H10   H     H_    0.032022 0.416723 0.205270 0.086522
H11   H     H_    0.583321 0.031907 0.205272 0.086522
H12   H     H_    0.019197 0.429107 0.109351 0.198554
H13   H     H_    0.967976 0.583275 0.205271 0.086521
H14   H     H_    0.416721 0.032014 0.794729 0.086523
H15   H     H_    0.031931 0.583314 0.794732 0.086517
H16   H     H_    0.583279 0.967985 0.794729 0.086522
H17   H     H_    0.968067 0.416687 0.794732 0.086514
H18   H     H_    0.916742 0.467927 0.705268 0.086522
H19   H     H_    0.532023 0.916724 0.705270 0.086522
H20   H     H_    0.083258 0.532074 0.705268 0.086522
H21   H     H_    0.467977 0.083276 0.705270 0.086522
H22   H     H_    0.916723 0.532018 0.294728 0.086527
H23   H     H_    0.570919 0.019101 0.109353 0.198572
H24   H     H_    0.532126 0.083238 0.294731 0.086524
H25   H     H_    0.083274 0.467974 0.294729 0.086521
H26   H     H_    0.467867 0.916765 0.294732 0.086519
H27   H     H_    0.980803 0.570893 0.109351 0.198554
H28   H     H_    0.429105 0.019190 0.890649 0.198556
H29   H     H_    0.019104 0.570918 0.890648 0.198568
H30   H     H_    0.570895 0.980810 0.890649 0.198556
H31   H     H_    0.980896 0.429082 0.890648 0.198567
H32   H     H_    0.929116 0.480770 0.609350 0.198547
N1    N     N_R   0.471713 0.028467 0.232886 -0.159790
N2    N     N_R   0.528425 0.028328 0.732886 -0.159792
N3    N     N_R   0.028351 0.471598 0.732885 -0.159793
N4    N     N_R   0.471575 0.971671 0.732886 -0.159793
N5    N     N_R   0.971673 0.471572 0.267114 -0.159798
N6    N     N_R   0.528385 0.971633 0.267115 -0.159790
N7    N     N_R   0.028326 0.528426 0.267114 -0.159787
N8    N     N_R   0.471613 0.028368 0.267115 -0.159797
N9    N     N_R   0.028425 0.528326 0.232886 -0.159789
N10   N     N_R   0.528285 0.971534 0.232887 -0.159790
N11   N     N_R   0.971574 0.471672 0.232886 -0.159793
N12   N     N_R   0.471675 0.971572 0.767114 -0.159792
N13   N     N_R   0.028451 0.471698 0.767113 -0.159788
N14   N     N_R   0.528325 0.028428 0.767114 -0.159793
N15   N     N_R   0.971549 0.528302 0.767113 -0.159793
N16   N     N_R   0.971649 0.528402 0.732885 -0.159795
O1    O     O_R   0.535610 0.936800 0.000040 -0.595269
O2    O     O_R   0.563200 0.035610 0.500040 -0.595272
O3    O     O_R   0.964390 0.563200 0.500040 -0.595269
O4    O     O_R   0.436800 0.964390 0.500040 -0.595272
O5    O     O_R   0.035610 0.563200 0.499960 -0.595271
O6    O     O_R   0.563200 0.964390 0.499960 -0.595271
O7    O     O_R   0.964390 0.436800 0.499960 -0.595271
O8    O     O_R   0.436800 0.035610 0.499960 -0.595271
O9    O     O_R   0.535610 0.999940 0.050970 -0.613058
O10   O     O_R   0.000060 0.535610 0.050970 -0.613050
O11   O     O_R   0.464390 0.000060 0.050970 -0.613058
O12   O     O_R   0.063200 0.535610 0.000040 -0.595271
O13   O     O_R   0.999940 0.464390 0.050970 -0.613050
O14   O     O_R   0.535610 0.000060 0.949030 -0.613050
O15   O     O_R   0.000060 0.464390 0.949030 -0.613058
O16   O     O_R   0.464390 0.999940 0.949030 -0.613049
O17   O     O_R   0.999940 0.535610 0.949030 -0.613059
O18   O     O_R   0.035610 0.499940 0.550970 -0.613048
O19   O     O_R   0.500060 0.035610 0.550970 -0.613050
O20   O     O_R   0.964390 0.500060 0.550970 -0.613047
O21   O     O_R   0.499940 0.964390 0.550970 -0.613050
O22   O     O_R   0.035610 0.500060 0.449030 -0.613048
O23   O     O_R   0.464390 0.063200 0.000040 -0.595269
O24   O     O_R   0.500060 0.964390 0.449030 -0.613042
O25   O     O_R   0.964390 0.499940 0.449030 -0.613049
O26   O     O_R   0.499940 0.035610 0.449030 -0.613043
O27   O     O_R   0.436800 0.499970 0.028810 -0.589541
O28   O     O_R   0.500030 0.436800 0.028810 -0.589541
O29   O     O_R   0.563200 0.500030 0.028810 -0.589541
O30   O     O_R   0.499970 0.563200 0.028810 -0.589541
O31   O     O_R   0.436800 0.500030 0.971190 -0.589541
O32   O     O_R   0.500030 0.563200 0.971190 -0.589541
O33   O     O_R   0.563200 0.499970 0.971190 -0.589541
O34   O     O_R   0.936800 0.464390 0.000040 -0.595272
O35   O     O_R   0.499970 0.436800 0.971190 -0.589541
O36   O     O_R   0.936800 0.999970 0.528810 -0.589541
O37   O     O_R   0.000030 0.936800 0.528810 -0.589541
O38   O     O_R   0.063200 0.000030 0.528810 -0.589541
O39   O     O_R   0.999970 0.063200 0.528810 -0.589541
O40   O     O_R   0.936800 0.000030 0.471190 -0.589540
O41   O     O_R   0.000030 0.063200 0.471190 -0.589541
O42   O     O_R   0.063200 0.999970 0.471190 -0.589540
O43   O     O_R   0.999970 0.936800 0.471190 -0.589540
O44   O     O_2   0.380869 0.968982 0.162005 -0.550482
O45   O     O_R   0.535610 0.063200 0.999960 -0.595270
O46   O     O_2   0.031187 0.380913 0.162004 -0.550483
O47   O     O_2   0.619130 0.031019 0.162006 -0.550482
O48   O     O_2   0.968814 0.619086 0.162005 -0.550482
O49   O     O_2   0.380911 0.031176 0.837996 -0.550483
O50   O     O_2   0.031008 0.619133 0.837994 -0.550478
O51   O     O_2   0.619089 0.968823 0.837996 -0.550482
O52   O     O_2   0.968999 0.380866 0.837993 -0.550475
O53   O     O_2   0.880927 0.468760 0.662004 -0.550484
O54   O     O_2   0.531188 0.880914 0.662004 -0.550485
O55   O     O_2   0.119072 0.531241 0.662003 -0.550484
O56   O     O_R   0.063200 0.464390 0.999960 -0.595268
O57   O     O_2   0.468813 0.119086 0.662004 -0.550484
O58   O     O_2   0.880919 0.531209 0.337997 -0.550487
O59   O     O_2   0.531332 0.119049 0.337998 -0.550484
O60   O     O_2   0.119083 0.468803 0.337996 -0.550485
O61   O     O_2   0.468674 0.880950 0.337996 -0.550483
O62   O     O_R   0.464390 0.936800 0.999960 -0.595269
O63   O     O_R   0.936800 0.535610 0.999960 -0.595268
O64   O     O_R   0.035610 0.436800 0.500040 -0.595270
Zn1   Zn    Zn3+2 0.547570 0.000000 0.000000 1.006752
Zn2   Zn    Zn3+2 0.500000 0.500000 0.961560 0.997680
Zn3   Zn    Zn3+2 1.000000 0.000000 0.538440 0.997684
Zn4   Zn    Zn3+2 0.000000 0.000000 0.461560 0.997685
Zn5   Zn    Zn3+2 0.000000 0.547570 0.000000 1.006751
Zn6   Zn    Zn3+2 0.452430 0.000000 0.000000 1.006752
Zn7   Zn    Zn3+2 0.000000 0.452430 0.000000 1.006751
Zn8   Zn    Zn3+2 0.047570 0.500000 0.500000 1.006752
Zn9   Zn    Zn3+2 0.500000 0.047570 0.500000 1.006752
Zn10  Zn    Zn3+2 0.952430 0.500000 0.500000 1.006752
Zn11  Zn    Zn3+2 0.500000 0.952430 0.500000 1.006752
Zn12  Zn    Zn3+2 0.500000 0.500000 0.038440 0.997680

loop_
_geom_bond_atom_site_label_1
_geom_bond_atom_site_label_2
_ccdc_geom_bond_type
C3    C104  A    
C61   C70   S    
C89   O9    A    
C4    C109  A    
C94   O20   A    
C70   C78   T    
C114  C131  A    
C37   H11   S    
C40   H15   S    
C69   C77   T    
C103  C120  A    
C132  C141  A    
O12   Zn5   S    
C34   O44   D    
C103  C144  A    
C43   C125  S    
C105  C144  A    
N5    N11   A    
O36   Zn3   S    
C42   C124  S    
C47   C128  S    
C112  O3    A    
C101  O2    A    
O42   Zn4   S    
C23   C112  S    
O2    Zn9   S    
C44   C126  S    
C87   O42   A    
C14   C136  S    
C30   C35   S    
C41   O51   D    
C100  H23   S    
C26   C134  S    
C17   C26   T    
C99   C143  A    
C11   C138  S    
C45   C127  S    
O33   Zn2   S    
C80   C87   S    
C52   C61   T    
N7    N9    A    
N2    N14   A    
C9    C140  S    
C55   C64   S    
C37   O47   D    
C15   C135  S    
C5    C110  A    
C34   C116  S    
C56   C65   S    
C54   C134  T    
C21   C30   T    
O19   Zn9   S    
O26   Zn9   S    
O16   Zn6   S    
C35   C59   T    
C11   N16   A    
N6    N10   A    
C121  C137  A    
O3    Zn10  S    
C130  C141  A    
C24   C29   S    
C6    C114  A    
C49   O59   D    
C131  C140  A    
N4    N12   A    
O35   Zn2   S    
C59   C67   S    
C96   O22   A    
C2    C55   T    
C111  C129  A    
C6    C111  A    
C32   C52   S    
C37   C118  S    
O63   Zn5   S    
O43   Zn4   S    
C31   C46   S    
C115  H8    S    
C105  C122  A    
O1    Zn1   S    
C64   C73   T    
C13   C28   S    
C8    C141  S    
C127  C138  A    
O41   Zn4   S    
C76   C88   S    
C79   O34   A    
C91   C143  S    
C44   O54   D    
N1    N8    A    
C115  C132  A    
O56   Zn7   S    
C78   C86   S    
C40   C121  S    
O20   Zn10  S    
C99   C117  A    
C98   C142  A    
C89   C142  S    
O18   Zn8   S    
O23   Zn6   S    
C45   O55   D    
C109  H3    S    
C85   O40   A    
C114  H7    S    
C74   C82   S    
C57   O56   A    
C110  H4    S    
C16   C133  S    
C111  H5    S    
C73   C81   S    
C71   C80   T    
C91   O13   A    
C58   C66   S    
O7    Zn10  S    
C108  H2    S    
C21   C90   S    
C51   H26   S    
C3    C106  A    
C33   C53   S    
C81   O31   A    
C4    C107  A    
C44   H19   S    
C126  C139  A    
O11   Zn6   S    
C113  C130  A    
C92   C144  S    
C36   H10   S    
N15   N16   A    
C10   N2    A    
C108  C126  A    
C124  C137  A    
C9    N5    A    
C107  C125  A    
C49   H24   S    
C84   O32   A    
C7    C115  A    
C90   O7    A    
O13   Zn7   S    
C15   N11   A    
C97   O24   A    
C119  C135  A    
C65   C74   T    
O27   Zn12  S    
C120  C136  A    
C14   N14   A    
C41   C122  S    
C51   O61   D    
C1    O1    A    
C43   H18   S    
O24   Zn11  S    
C92   O16   A    
C8    N6    A    
C15   N9    A    
C41   H16   S    
O30   Zn12  S    
C53   C62   T    
C123  O8    A    
C18   C57   S    
C98   C116  A    
C107  H32   S    
N3    N13   A    
C106  H31   S    
C22   C31   T    
C25   C33   T    
C82   O28   A    
C19   C68   S    
C3    C93   S    
C85   O36   A    
C72   C84   S    
O38   Zn3   S    
C36   C117  S    
C25   C123  S    
C122  C136  A    
C2    C27   S    
C118  C133  A    
C4    C94   S    
C38   C119  S    
O37   Zn3   S    
C9    N7    A    
C89   O11   A    
O14   Zn1   S    
C94   O18   A    
C22   C101  S    
C105  H30   S    
C12   N13   A    
C42   H17   S    
C19   C28   T    
C103  H28   S    
C95   O21   A    
C123  O4    A    
C38   O48   D    
C11   N3    A    
C102  C143  A    
O40   Zn4   S    
C93   O15   A    
O10   Zn5   S    
C112  O5    A    
C75   C83   S    
C50   O60   D    
C1    O62   A    
O32   Zn2   S    
C83   O33   A    
C34   H9    S    
O22   Zn8   S    
C102  H27   S    
C104  C121  A    
C12   N15   A    
C90   O64   A    
C7    C113  A    
O8    Zn9   S    
C7    C97   S    
C20   C79   S    
C46   C60   T    
C101  O6    A    
C86   O37   A    
C1    C17   S    
C113  H6    S    
C128  C139  A    
O28   Zn12  S    
C18   C27   T    
C38   H13   S    
C36   O46   D    
C50   C131  S    
O31   Zn2   S    
C51   C132  S    
C68   O23   A    
C117  C135  A    
O17   Zn5   S    
C104  H29   S    
C116  C133  A    
C98   H1    S    
C125  C138  A    
O5    Zn8   S    
C87   O38   A    
O15   Zn7   S    
C82   O35   A    
O21   Zn11  S    
C6    C96   S    
C86   O43   A    
C16   N10   A    
C88   O41   A    
C68   O45   A    
C10   N4    A    
C23   C32   T    
C13   C56   T    
O64   Zn8   S    
C97   O26   A    
C95   O19   A    
O6    Zn11  S    
C39   H14   S    
O29   Zn12  S    
C100  C142  A    
C93   O17   A    
C8    N8    A    
C5    C95   S    
C129  C140  A    
O39   Zn3   S    
C60   C69   S    
C43   O53   D    
C47   H21   S    
C66   C75   T    
C57   O12   A    
C42   O52   D    
C109  C127  A    
C62   C71   S    
C50   H25   S    
C39   C120  S    
C100  C118  A    
C48   O58   D    
C16   N1    A    
C48   C129  S    
O9    Zn1   S    
C47   O57   D    
C91   O10   A    
C92   O14   A    
C10   C139  S    
C77   C85   S    
C83   O29   A    
C99   H12   S    
C88   O39   A    
C48   H22   S    
C63   C72   T    
O62   Zn6   S    
C20   C29   T    
C24   C58   T    
O25   Zn10  S    
C54   C63   S    
C110  C128  A    
C106  C124  A    
C79   O63   A    
C12   C137  S    
O4    Zn11  S    
C84   O30   A    
C67   C76   T    
O45   Zn1   S    
C14   N12   A    
O34   Zn7   S    
C49   C130  S    
C40   O50   D    
C102  C119  A    
C96   O25   A    
C45   H20   S    
C39   O49   D    
C5    C108  A    
C81   O27   A    
