data_mof_unit_67419.cif
_audit_creation_date              2012-12-10T16:41:50-0500
_audit_creation_method            fapswitch 2.2
_symmetry_space_group_name_H-M    P1
_symmetry_Int_Tables_number       1
_space_group_crystal_system       triclinic
_cell_length_a                    10.983049
_cell_length_b                    8.775249
_cell_length_c                    7.612079
_cell_angle_alpha                 102.894009
_cell_angle_beta                  96.02448
_cell_angle_gamma                 95.84282
_cell_volume                      705.237351654

loop_
_atom_site_label
_atom_site_type_symbol
_atom_type_description
_atom_site_fract_x
_atom_site_fract_y
_atom_site_fract_z
_atom_type_partial_charge
C1    C     C_R   0.496791 0.200611 0.453468 0.775506
C2    C     C_2   0.500018 0.033778 0.427399 0.402228
C3    C     C_R   0.858569 0.315780 0.195690 0.036357
C4    C     C_R   0.907424 0.347767 0.042458 -0.094844
C5    C     C_R   0.857797 0.260839 0.868599 -0.088646
C6    C     C_R   0.756135 0.146515 0.845669 -0.184440
C7    C     C_R   0.703556 0.118386 0.996767 -0.083820
C8    C     C_R   0.757187 0.198848 0.171756 -0.043440
C9    C     C_R   0.101286 0.225962 0.368416 0.108773
C10   C     C_R   0.116630 0.139559 0.502147 -0.159257
C11   C     C_R   0.174650 0.003131 0.468807 -0.212914
C12   C     C_2   0.494154 0.965870 0.568120 -0.498272
C13   C     C_R   0.217922 0.952273 0.301863 -0.111242
C14   C     C_R   0.205097 0.039214 0.169175 -0.114202
C15   C     C_R   0.146628 0.175341 0.201886 -0.151474
C16   C     C_R   0.649610 0.663553 0.046138 0.388274
C17   C     C_R   0.722252 0.739233 0.934797 -0.099412
C18   C     C_R   0.842970 0.814743 0.984388 -0.133344
C19   C     C_R   0.895323 0.845271 0.160863 -0.101073
C20   C     C_R   0.824956 0.809066 0.286898 -0.281704
C21   C     C_R   0.705389 0.728777 0.231747 -0.044755
C22   C     C_R   0.267252 0.506912 0.499906 0.814016
C23   C     C_R   0.499340 0.799143 0.546042 0.827136
C24   C     C_R   0.733835 0.492344 0.500613 0.693458
C25   C     C_2   0.922454 0.395365 0.379304 -0.139008
C26   C     C_2   0.866264 0.479224 0.512112 0.371142
C27   C     C_2   0.055839 0.382192 0.415663 0.025410
C28   C     C_2   0.135699 0.511991 0.493242 -0.261410
Cu1   Cu    Cu3+1 0.513740 0.517380 0.684380 0.956271
Cu2   Cu    Cu3+1 0.486260 0.482620 0.315620 0.971055
F1    F     F_    0.932368 0.543490 0.678796 -0.701289
F2    F     F_    0.507621 0.950119 0.256057 -0.685680
H1    H     H_    0.104772 0.627164 0.530458 0.159837
H2    H     H_    0.186103 0.936884 0.572203 0.137293
H3    H     H_    0.261107 0.845423 0.275247 0.184452
H4    H     H_    0.240118 0.000902 0.041001 0.153539
H5    H     H_    0.140078 0.243422 0.099764 0.129849
H6    H     H_    0.696736 0.752475 0.803989 0.177361
H7    H     H_    0.893286 0.858268 0.886479 0.156140
H8    H     H_    0.985355 0.908282 0.201235 0.182432
H9    H     H_    0.862621 0.846210 0.429793 0.140158
H10   H     H_    0.674525 0.729101 0.354382 0.178103
H11   H     H_    0.486030 0.034560 0.703020 0.150061
H12   H     H_    0.396483 0.380294 0.950699 0.211121
H13   H     H_    0.986506 0.436485 0.058157 0.156408
H14   H     H_    0.899314 0.279606 0.751576 0.168589
H15   H     H_    0.720806 0.077769 0.710720 0.118783
H16   H     H_    0.624639 0.029492 0.978969 0.182533
H17   H     H_    0.721470 0.168452 0.288298 0.122259
H18   H     H_    0.086134 0.179724 0.633415 0.130123
N1    N     N_2   0.465540 0.456420 0.038510 -0.202767
N2    N     N_2   0.534460 0.543580 0.961490 -0.140184
O1    O     O_R   0.508930 0.286130 0.619780 -0.616195
O2    O     O_R   0.485720 0.256780 0.308360 -0.547210
O3    O     O_R   0.333540 0.514670 0.655670 -0.570453
O4    O     O_R   0.310330 0.485320 0.344250 -0.585929
O5    O     O_R   0.514280 0.743220 0.691640 -0.625580
O6    O     O_R   0.491070 0.713870 0.380220 -0.535686
O7    O     O_R   0.689670 0.514680 0.655750 -0.570115
O8    O     O_R   0.666460 0.485330 0.344330 -0.624322

loop_
_geom_bond_atom_site_label_1
_geom_bond_atom_site_label_2
_ccdc_geom_bond_type
C23   O6    A    
C16   N2    S    
C1    O2    A    
C13   H3    S    
C16   C21   A    
C25   C27   S    
Cu1   Cu2   S    
Cu2   O2    S    
C9    C10   A    
C1    C2    S    
C19   C20   A    
C24   O8    A    
C2    C12   D    
C7    H16   S    
C17   C18   A    
C9    C15   A    
C22   O3    A    
C7    C8    A    
C22   C28   S    
C13   C14   A    
C11   C13   A    
C12   C23   S    
C10   C11   A    
C6    C7    A    
Cu1   O1    S    
C24   O7    A    
C19   H8    S    
Cu2   O6    S    
H12   N1    S    
Cu2   N1    S    
C24   C26   S    
C28   H1    S    
C20   H9    S    
C12   H11   S    
Cu2   O4    S    
C4    H13   S    
C14   H4    S    
C5    C6    A    
C16   C17   A    
C6    H15   S    
N1    N2    D    
C10   H18   S    
Cu1   O7    S    
C3    C25   S    
C20   C21   A    
C9    C27   S    
C2    F2    S    
C3    C8    A    
C5    H14   S    
C17   H6    S    
C27   C28   D    
C23   O5    A    
C18   H7    S    
C1    O1    A    
C14   C15   A    
C18   C19   A    
C22   O4    A    
C21   H10   S    
Cu1   O3    S    
C25   C26   D    
C26   F1    S    
C8    H17   S    
C11   H2    S    
C15   H5    S    
C3    C4    A    
Cu1   O5    S    
C4    C5    A    
Cu1   N2    S    
Cu2   O8    S    
