data_mof_unit_17261.cif
_audit_creation_date              2012-12-10T19:16:50-0500
_audit_creation_method            fapswitch 2.2
_symmetry_space_group_name_H-M    P1
_symmetry_Int_Tables_number       1
_space_group_crystal_system       triclinic
_cell_length_a                    15.980495
_cell_length_b                    14.721594
_cell_length_c                    10.899484
_cell_angle_alpha                 90.545037
_cell_angle_beta                  91.420174
_cell_angle_gamma                 90.038099
_cell_volume                      2563.29004447

loop_
_atom_site_label
_atom_site_type_symbol
_atom_type_description
_atom_site_fract_x
_atom_site_fract_y
_atom_site_fract_z
_atom_type_partial_charge
C1    C     C_R   0.340862 0.499999 0.500495 0.877302
C2    C     C_3   0.597742 0.525817 0.935190 0.660346
C3    C     C_R   0.954873 0.555760 0.422922 0.317324
C4    C     C_R   0.957469 0.450071 0.594215 0.297193
C5    C     C_R   0.912640 0.501553 0.506787 -0.189389
C6    C     C_R   0.045233 0.451343 0.596025 0.308650
C7    C     C_R   0.042536 0.557046 0.424773 0.302191
C8    C     C_R   0.087466 0.503618 0.509817 -0.183458
C9    C     C_1   0.822982 0.499893 0.503874 0.159332
C10   C     C_1   0.177093 0.501576 0.507188 0.135611
C11   C     C_1   0.251998 0.500297 0.503964 -0.083698
C12   C     C_1   0.748008 0.499683 0.501712 -0.062442
C13   C     C_R   0.558800 0.950564 0.433000 0.311907
C14   C     C_R   0.557511 0.047337 0.428772 0.285474
C15   C     C_R   0.494135 0.499774 0.259360 1.062315
C16   C     C_R   0.498941 0.902851 0.500085 -0.269201
C17   C     C_R   0.500151 0.097035 0.499540 -0.252568
C18   C     C_R   0.439622 0.952718 0.567820 0.316843
C19   C     C_R   0.440775 0.049279 0.567917 0.353904
C20   C     C_1   0.499749 0.802694 0.500562 0.350249
C21   C     C_1   0.500758 0.197224 0.500440 0.347107
C22   C     C_R   0.659095 0.499941 0.500100 0.837204
C23   C     C_R   0.506128 0.500297 0.740808 1.001114
C24   C     C_3   0.418442 0.559786 0.066111 0.588892
C25   C     C_3   0.484943 0.397241 0.071023 0.574908
C26   C     C_3   0.436379 0.573388 0.923260 0.489684
C27   C     C_3   0.479679 0.400951 0.925893 0.496128
C28   C     C_3   0.585522 0.538372 0.081396 0.468698
C29   C     C_3   0.495982 0.499883 0.121122 -0.413438
C30   C     C_3   0.505570 0.501123 0.879240 -0.413079
Cu1   Cu    Cu3+1 0.500000 0.589220 0.500040 1.068808
Cu2   Cu    Cu3+1 0.500000 0.410780 0.500040 1.092555
N1    N     N_1   0.499980 0.276710 0.500040 -0.155555
N2    N     N_1   0.499980 0.723290 0.500040 -0.152714
O1    O     O_R   0.380310 0.575320 0.500060 -0.571721
O2    O     O_R   0.380310 0.424680 0.500060 -0.593223
O3    O     O_R   0.499990 0.575340 0.317720 -0.506244
O4    O     O_R   0.499990 0.424660 0.317720 -0.534869
O5    O     O_R   0.619690 0.575360 0.500000 -0.608088
O6    O     O_R   0.619690 0.424640 0.500000 -0.542312
O7    O     O_R   0.500010 0.575340 0.682340 -0.570465
O8    O     O_R   0.500010 0.424660 0.682340 -0.499034
Cl1   Cl    Cl    0.408454 0.668365 0.146926 -0.520653
Cl2   Cl    Cl    0.572549 0.327371 0.126918 -0.626836
O9    O     O_3   0.387275 0.908395 0.647090 -0.543316
C31   C     C_3   0.319634 0.867348 0.581053 0.020017
H1    H     H_    0.335366 0.845446 0.486071 0.136772
H2    H     H_    0.266922 0.916259 0.574304 0.140296
C32   C     C_3   0.291040 0.784056 0.651458 -0.261589
H3    H     H_    0.343600 0.734891 0.658830 0.281144
H4    H     H_    0.273479 0.804813 0.745721 0.246935
C33   C     C_3   0.216292 0.737698 0.587558 -0.822526
H5    H     H_    0.162844 0.785583 0.578830 0.256648
H6    H     H_    0.196507 0.678642 0.642460 0.274437
H7    H     H_    0.233587 0.713237 0.494875 0.286023
O10   O     O_3   0.387076 0.097466 0.642188 -0.539684
C34   C     C_3   0.307026 0.105091 0.584208 0.063025
H8    H     H_    0.260400 0.074999 0.645942 0.181336
H9    H     H_    0.300533 0.068722 0.494007 0.089961
C35   C     C_3   0.285436 0.205395 0.565924 -0.301480
H10   H     H_    0.287402 0.241429 0.656039 0.289984
H11   H     H_    0.332094 0.237035 0.506096 0.212353
C36   C     C_3   0.198856 0.216799 0.505932 -0.832582
H12   H     H_    0.195865 0.181697 0.415241 0.241793
H13   H     H_    0.186029 0.290085 0.491634 0.279501
H14   H     H_    0.150081 0.188526 0.565609 0.282673
O11   O     O_3   0.344700 0.508797 0.094493 -0.589136
C37   C     C_3   0.261566 0.531698 0.054956 0.209183
H15   H     H_    0.219763 0.497915 0.120537 0.164584
H16   H     H_    0.245292 0.496529 0.967355 0.234306
C38   C     C_3   0.234900 0.632327 0.054127 -0.334701
H17   H     H_    0.236256 0.659588 0.149533 0.276889
H18   H     H_    0.276235 0.674167 0.997384 0.287138
C39   C     C_3   0.146168 0.642310 0.000517 -0.795289
H19   H     H_    0.144146 0.620808 0.902472 0.267392
H20   H     H_    0.126443 0.714494 0.006482 0.268665
H21   H     H_    0.101412 0.600245 0.051780 0.290204
O12   O     O_3   0.410021 0.360626 0.121347 -0.558801
C40   C     C_3   0.395303 0.266453 0.100194 0.220728
H22   H     H_    0.443873 0.231768 0.045669 0.194295
H23   H     H_    0.334891 0.258811 0.048555 0.198300
C41   C     C_3   0.385627 0.219204 0.222711 -0.401250
H24   H     H_    0.444871 0.226504 0.275979 0.240690
H25   H     H_    0.335074 0.252569 0.274903 0.232811
C42   C     C_3   0.364945 0.118584 0.205309 -0.925821
H26   H     H_    0.302770 0.110449 0.158690 0.277882
H27   H     H_    0.363308 0.085294 0.296050 0.244171
H28   H     H_    0.413096 0.084275 0.149655 0.266082
Cl3   Cl    Cl    0.344863 0.571764 0.822301 -0.618830
Cl4   Cl    Cl    0.376216 0.372084 0.866510 -0.547485
Cl5   Cl    Cl    0.469248 0.688803 0.893718 -0.440999
Cl6   Cl    Cl    0.540863 0.308112 0.861658 -0.512741
Cl7   Cl    Cl    0.596443 0.657386 0.123303 -0.398841
Cl8   Cl    Cl    0.668341 0.499399 0.183692 -0.583838
O13   O     O_3   0.626215 0.612330 0.891872 -0.547032
C43   C     C_3   0.671639 0.617588 0.782162 0.118478
H29   H     H_    0.629284 0.639750 0.707469 0.191940
H30   H     H_    0.701858 0.553654 0.753081 0.138008
C44   C     C_3   0.735671 0.694917 0.795838 -0.343498
H31   H     H_    0.701791 0.760774 0.800876 0.246136
H32   H     H_    0.773242 0.688480 0.882119 0.240829
C45   C     C_3   0.794797 0.697306 0.688312 -0.932663
H33   H     H_    0.834252 0.635342 0.687758 0.268584
H34   H     H_    0.836599 0.757296 0.698298 0.265608
H35   H     H_    0.758870 0.702129 0.600040 0.270598
O14   O     O_3   0.650614 0.453279 0.892511 -0.628319
C46   C     C_3   0.729533 0.430987 0.947186 0.179815
H36   H     H_    0.758539 0.381831 0.883122 0.202228
H37   H     H_    0.722295 0.389057 0.029646 0.231211
C47   C     C_3   0.793413 0.508648 0.963990 -0.396687
H38   H     H_    0.815937 0.529660 0.873160 0.224696
H39   H     H_    0.765634 0.567970 0.010797 0.292520
C48   C     C_3   0.869800 0.477663 0.039385 -0.712538
H40   H     H_    0.851322 0.457603 0.132886 0.291846
H41   H     H_    0.915751 0.534143 0.047820 0.279908
H42   H     H_    0.900304 0.419052 0.993757 0.268300
Cl9   Cl    Cl    0.095982 0.626454 0.321143 -0.631261
Cl10  Cl    Cl    0.102202 0.388109 0.707108 -0.539390
Cl11  Cl    Cl    0.897891 0.621937 0.315102 -0.573418
Cl12  Cl    Cl    0.903746 0.383553 0.701144 -0.592903
O15   O     O_3   0.618629 0.093639 0.366558 -0.587751
C49   C     C_3   0.602669 0.087264 0.238609 0.098728
H43   H     H_    0.554162 0.137471 0.211835 0.175164
H44   H     H_    0.580815 0.018658 0.207885 0.182352
C50   C     C_3   0.683015 0.109373 0.171891 -0.309678
H45   H     H_    0.703677 0.179432 0.196704 0.267320
H46   H     H_    0.733097 0.061328 0.201266 0.217278
C51   C     C_3   0.670077 0.102167 0.032912 -0.801640
H47   H     H_    0.653443 0.031388 0.005727 0.256341
H48   H     H_    0.728748 0.121327 0.987165 0.262145
H49   H     H_    0.619352 0.148535 0.001437 0.310427
O16   O     O_3   0.615708 0.901987 0.364750 -0.570036
C52   C     C_3   0.693503 0.899847 0.428886 0.063798
H50   H     H_    0.688164 0.860238 0.514970 0.134490
H51   H     H_    0.716053 0.969687 0.452198 0.183387
C53   C     C_3   0.757719 0.853939 0.347209 -0.281269
H52   H     H_    0.740440 0.781357 0.332890 0.277700
H53   H     H_    0.757285 0.887562 0.256287 0.233581
C54   C     C_3   0.845881 0.859921 0.403755 -0.842569
H54   H     H_    0.864567 0.932046 0.417687 0.246298
H55   H     H_    0.890900 0.827271 0.341204 0.307186
H56   H     H_    0.848879 0.824567 0.493119 0.261693

loop_
_geom_bond_atom_site_label_1
_geom_bond_atom_site_label_2
_ccdc_geom_bond_type
C19   O10   S    
C36   H13   S    
C7    Cl9   S    
O13   C43   S    
C1    C11   S    
C51   H47   S    
C35   H10   S    
C7    C8    A    
O9    C31   S    
C26   Cl3   S    
C31   C32   S    
C23   O8    A    
C39   H20   S    
C45   H35   S    
C35   C36   S    
Cu2   O2    S    
C28   Cl8   S    
C28   C29   S    
C24   C26   S    
C3    C7    A    
C54   H56   S    
C34   H9    S    
C21   N1    T    
O14   C46   S    
C43   C44   S    
C12   C22   S    
O10   C34   S    
C27   Cl4   S    
C35   H11   S    
C18   C19   A    
C32   H3    S    
C24   C29   S    
C15   O3    A    
C24   O11   S    
C47   H38   S    
Cu1   Cu2   S    
C37   H15   S    
C32   H4    S    
C39   H21   S    
C43   H30   S    
C52   C53   S    
C46   H36   S    
C38   C39   S    
Cu2   O4    S    
C33   H7    S    
C48   H42   S    
C20   N2    T    
C36   H14   S    
C14   O15   S    
C13   C14   A    
C27   C30   S    
C46   H37   S    
C14   C17   A    
C53   C54   S    
C25   Cl2   S    
C33   H6    S    
C15   C29   S    
C42   H27   S    
C25   C29   S    
C31   H2    S    
C39   H19   S    
O11   C37   S    
C23   C30   S    
C40   H22   S    
C4    C6    A    
C40   H23   S    
O12   C40   S    
O16   C52   S    
C34   C35   S    
C6    C8    A    
C26   Cl5   S    
C42   H26   S    
C2    O14   S    
C17   C21   S    
C25   O12   S    
C28   Cl7   S    
C15   O4    A    
C5    C9    S    
C50   H46   S    
C50   C51   S    
C44   H31   S    
C16   C20   S    
C32   C33   S    
C22   O6    A    
C43   H29   S    
Cu1   N2    S    
C27   Cl6   S    
C16   C18   A    
C45   H34   S    
C47   C48   S    
O15   C49   S    
C3    Cl11  S    
C8    C10   S    
C44   H32   S    
C26   C30   S    
C41   H25   S    
C52   H50   S    
C46   C47   S    
Cu1   O1    S    
C49   H44   S    
C18   O9    S    
C33   H5    S    
C1    O1    A    
C53   H53   S    
C38   H18   S    
C48   H40   S    
C42   H28   S    
C31   H1    S    
C2    O13   S    
Cu1   O7    S    
C53   H52   S    
C3    C5    A    
C51   H48   S    
C40   C41   S    
C54   H54   S    
C25   C27   S    
C41   C42   S    
C23   O7    A    
C2    C30   S    
Cu2   N1    S    
C49   C50   S    
C38   H17   S    
C54   H55   S    
C34   H8    S    
C50   H45   S    
C37   C38   S    
C22   O5    A    
C17   C19   A    
C13   O16   S    
Cu1   O5    S    
Cu2   O6    S    
C45   H33   S    
C9    C12   T    
C47   H39   S    
C10   C11   T    
C36   H12   S    
Cu1   O3    S    
C4    C5    A    
C44   C45   S    
C37   H16   S    
C41   H24   S    
C13   C16   A    
C52   H51   S    
C24   Cl1   S    
Cu2   O8    S    
C4    Cl12  S    
C2    C28   S    
C49   H43   S    
C51   H49   S    
C6    Cl10  S    
C1    O2    A    
C48   H41   S    
