data_mof_unit_23516.cif
_audit_creation_date              2012-12-11T14:46:35-0500
_audit_creation_method            fapswitch 2.2
_symmetry_space_group_name_H-M    P1
_symmetry_Int_Tables_number       1
_space_group_crystal_system       triclinic
_cell_length_a                    17.444285
_cell_length_b                    17.684314
_cell_length_c                    6.939619
_cell_angle_alpha                 89.925566
_cell_angle_beta                  91.080948
_cell_angle_gamma                 90.136721
_cell_volume                      2140.41579209

loop_
_atom_site_label
_atom_site_type_symbol
_atom_type_description
_atom_site_fract_x
_atom_site_fract_y
_atom_site_fract_z
_atom_type_partial_charge
O1    O     O_R   0.796490 0.328940 0.373020 -0.543489
O2    O     O_R   0.203510 0.671060 0.626980 -0.550144
O3    O     O_R   0.203510 0.828940 0.626980 -0.553610
O4    O     O_R   0.796490 0.171060 0.373020 -0.512878
O5    O     O_R   0.805560 0.173330 0.702970 -0.525661
O6    O     O_R   0.194440 0.826670 0.297030 -0.537232
O7    O     O_R   0.194440 0.673330 0.297030 -0.527367
O8    O     O_R   0.805560 0.326670 0.702970 -0.538263
O9    O     O_R   0.658440 0.172360 0.870170 -0.537232
O10   O     O_R   0.341560 0.827640 0.129830 -0.533877
O11   O     O_R   0.341560 0.672360 0.129830 -0.533238
O12   O     O_R   0.658440 0.327640 0.870170 -0.541785
C1    C     C_R   0.825088 0.147183 0.535688 0.777458
C2    C     C_R   0.175360 0.852768 0.463805 0.695519
C3    C     C_R   0.174046 0.647805 0.463862 0.691395
C4    C     C_R   0.824348 0.353017 0.536633 0.779870
O13   O     O_3   0.679200 0.250000 0.537050 -0.382788
O14   O     O_3   0.320800 0.750000 0.462950 -0.363392
V1    V     V_3+5 0.736420 0.250000 0.813120 1.508849
V2    V     V_3+5 0.263580 0.750000 0.186880 1.456371
O15   O     O_R   0.649370 0.327980 0.199650 -0.542520
O16   O     O_R   0.350630 0.672020 0.800350 -0.534189
O17   O     O_R   0.350630 0.827980 0.800350 -0.535044
O18   O     O_R   0.649370 0.172020 0.199650 -0.537923
C5    C     C_R   0.630518 0.354379 0.029385 0.696456
C6    C     C_R   0.369480 0.645620 0.970613 0.724828
C7    C     C_R   0.369466 0.854360 0.970452 0.719067
C8    C     C_R   0.630540 0.145635 0.029550 0.728728
V3    V     V_3+5 0.718510 0.250000 0.312740 1.499065
V4    V     V_3+5 0.281490 0.750000 0.687260 1.440891
O19   O     O_3   0.775740 0.250000 0.038930 -0.344373
O20   O     O_3   0.224260 0.750000 0.961070 -0.377985
C9    C     C_1   0.574113 0.083212 0.016799 -0.178908
C10   C     C_1   0.425892 0.916785 0.983206 -0.177180
C11   C     C_1   0.425908 0.583189 0.983570 -0.179704
C12   C     C_1   0.574098 0.416817 0.016425 -0.183616
C13   C     C_1   0.527469 0.030922 0.006231 0.028983
C14   C     C_1   0.472534 0.969078 0.993777 0.028202
C15   C     C_1   0.472531 0.530928 0.993946 0.022651
C16   C     C_1   0.527479 0.469082 0.006045 0.018395
H1    H     H_    0.842621 0.043185 0.800573 0.192992
H2    H     H_    0.174418 0.969557 0.231348 0.145570
H3    H     H_    0.159294 0.540018 0.203554 0.164793
H4    H     H_    0.808988 0.486486 0.698246 0.105884
C17   C     C_R   0.884387 0.086647 0.534770 -0.112036
C18   C     C_R   0.118398 0.914632 0.464202 -0.142465
C19   C     C_R   0.113672 0.587927 0.461465 -0.183890
C20   C     C_R   0.882210 0.414078 0.536861 -0.038820
C21   C     C_R   0.068552 0.024990 0.293932 -0.021436
C22   C     C_R   0.944633 0.985321 0.720598 -0.018654
C23   C     C_R   0.917611 0.540073 0.647976 -0.004934
C24   C     C_R   0.060225 0.477787 0.292588 -0.030005
C25   C     C_R   0.125376 0.970799 0.325403 -0.143325
C26   C     C_R   0.886270 0.037859 0.692323 -0.142414
C27   C     C_R   0.864917 0.480645 0.633967 -0.302752
C28   C     C_R   0.114908 0.535524 0.310293 -0.052567
C29   C     C_R   0.054629 0.914649 0.585464 -0.083065
C30   C     C_R   0.942478 0.081890 0.394817 -0.020640
C31   C     C_R   0.953828 0.406835 0.446770 -0.075450
C32   C     C_R   0.052140 0.585699 0.592286 -0.045298
C33   C     C_R   0.001131 0.975733 0.576741 0.063349
C34   C     C_R   0.003703 0.028189 0.418300 0.020605
C35   C     C_R   0.001719 0.471854 0.431183 -0.048419
C36   C     C_R   0.990521 0.533398 0.559723 0.153073
C37   C     C_2   0.081693 0.075204 0.126544 0.328543
H5    H     H_    0.039123 0.080370 0.011701 0.054026
O21   O     O_2   0.142396 0.109051 0.111664 -0.503239
C38   C     C_2   0.949896 0.949078 0.914371 0.501152
H6    H     H_    0.004929 0.931670 0.974174 -0.007354
O22   O     O_2   0.892976 0.939824 0.011621 -0.495046
C39   C     C_2   0.887996 0.611310 0.729671 0.476956
H7    H     H_    0.848156 0.609443 0.847905 0.048156
O23   O     O_2   0.903541 0.672238 0.657466 -0.482360
C40   C     C_2   0.057957 0.432620 0.111684 0.416884
H8    H     H_    0.006488 0.401720 0.069759 0.038589
O24   O     O_2   0.112939 0.430456 0.005428 -0.515050
C41   C     C_2   0.938335 0.133764 0.228005 0.386385
H9    H     H_    0.979298 0.179523 0.214882 0.083332
O25   O     O_2   0.890718 0.123631 0.099636 -0.520471
C42   C     C_2   0.038153 0.844819 0.695585 0.350178
H10   H     H_    0.081333 0.820258 0.790381 0.049943
O26   O     O_2   0.975480 0.814396 0.680590 -0.467227
C43   C     C_2   0.056173 0.632679 0.769355 0.475437
H11   H     H_    0.078445 0.689626 0.764749 0.061963
O27   O     O_2   0.036116 0.607108 0.923976 -0.539532
C44   C     C_2   0.986492 0.330138 0.412406 0.315427
H12   H     H_    0.041055 0.323065 0.343153 0.077200
O28   O     O_2   0.956234 0.273531 0.477001 -0.558319

loop_
_geom_bond_atom_site_label_1
_geom_bond_atom_site_label_2
_ccdc_geom_bond_type
O10   C7    A    
C30   C34   A    
C20   C27   A    
C1    C17   S    
O13   V3    S    
C3    C19   S    
V1    O19   S    
C4    C20   S    
C2    C18   S    
C23   C27   A    
C41   H9    S    
C22   C26   A    
C40   O24   D    
C24   C40   S    
H2    C25   S    
C32   C43   S    
C44   O28   D    
C18   C25   A    
O4    C1    A    
O18   V3    S    
C30   C41   S    
C19   C32   A    
O9    V1    S    
O10   V2    S    
C38   H6    S    
C37   O21   D    
O14   V4    S    
O17   C7    A    
O5    C1    A    
O4    V3    S    
O7    C3    A    
O8    C4    A    
C29   C42   S    
C23   C39   S    
C41   O25   D    
C7    C10   S    
O11   V2    S    
C17   C30   A    
O8    V1    S    
C40   H8    S    
O17   V4    S    
C12   C16   T    
C42   O26   D    
C15   C16   S    
C39   O23   D    
C44   H12   S    
O11   C6    A    
O15   V3    S    
C9    C13   T    
O3    V4    S    
C11   C15   T    
C13   C14   S    
O6    C2    A    
C6    C11   S    
C43   H11   S    
O1    V3    S    
O1    C4    A    
O2    C3    A    
O3    C2    A    
C21   C37   S    
C43   O27   D    
C17   C26   A    
C37   H5    S    
C18   C29   A    
C20   C31   A    
V2    O20   S    
O15   C5    A    
C21   C34   A    
O16   V4    S    
C10   C14   T    
C23   C36   A    
O18   C8    A    
C42   H10   S    
C24   C35   A    
C8    C9    S    
C29   C33   A    
O5    V1    S    
O6    V2    S    
C31   C35   A    
C32   C36   A    
O12   C5    A    
O2    V4    S    
C31   C44   S    
C39   H7    S    
V3    O19   S    
V4    O20   S    
H4    C27   S    
C21   C25   A    
O12   V1    S    
O13   V1    S    
O14   V2    S    
C33   C34   A    
H1    C26   S    
C5    C12   S    
C35   C36   A    
H3    C28   S    
C38   O22   D    
O7    V2    S    
O16   C6    A    
C22   C33   A    
C22   C38   S    
C24   C28   A    
O9    C8    A    
C19   C28   A    
