data_mof_unit_18457.cif
_audit_creation_date              2012-10-26T18:34:46-0400
_audit_creation_method            fapswitch 2.2
_symmetry_space_group_name_H-M    P1
_symmetry_Int_Tables_number       1
_space_group_crystal_system       triclinic
_cell_length_a                    10.81998
_cell_length_b                    9.581512
_cell_length_c                    17.703067
_cell_angle_alpha                 89.550608
_cell_angle_beta                  91.337875
_cell_angle_gamma                 89.752602
_cell_volume                      1834.73290814

loop_
_atom_site_label
_atom_site_type_symbol
_atom_type_description
_atom_site_fract_x
_atom_site_fract_y
_atom_site_fract_z
_atom_type_partial_charge
C1    C     C_R   0.262260 0.500167 0.499970 0.533291
C2    C     C_R   0.500353 0.499455 0.643875 0.536044
C3    C     C_R   0.871674 0.499777 0.499984 0.012470
C4    C     C_R   0.128328 0.500196 0.499973 0.012312
C5    C     C_R   0.607913 0.537128 0.847445 0.017720
C6    C     C_R   0.608879 0.456223 0.156756 0.022306
C7    C     C_R   0.393688 0.542248 0.152044 0.016200
C8    C     C_R   0.392153 0.455116 0.843772 0.022313
C9    C     C_R   0.609799 0.535023 0.767617 -0.008875
C10   C     C_R   0.608715 0.460857 0.236585 -0.014397
C11   C     C_R   0.391550 0.540568 0.231897 -0.007600
C12   C     C_R   0.737740 0.499823 0.499996 0.525346
C13   C     C_R   0.392135 0.459327 0.763886 -0.014395
C14   C     C_R   0.501147 0.497904 0.726575 0.019879
C15   C     C_R   0.499685 0.501012 0.273419 0.023005
C16   C     C_R   0.425560 0.076091 0.450298 0.194506
C17   C     C_R   0.574445 0.922819 0.549165 0.230861
C18   C     C_R   0.572452 0.070809 0.550944 0.179673
C19   C     C_R   0.424928 0.926330 0.450689 0.187905
C20   C     C_R   0.499787 0.495748 0.884759 0.038766
C21   C     C_R   0.501496 0.498212 0.115259 0.038424
C22   C     C_3   0.720262 0.581290 0.894550 -0.395688
C23   C     C_1   0.500172 0.496414 0.966115 -0.035992
C24   C     C_3   0.723202 0.405640 0.116730 -0.398676
C25   C     C_3   0.281865 0.588511 0.104363 -0.396616
C26   C     C_3   0.277673 0.406769 0.884423 -0.398649
C27   C     C_3   0.728448 0.568769 0.727087 -0.388601
C28   C     C_3   0.723536 0.424398 0.284184 -0.386598
C29   C     C_3   0.273108 0.577189 0.271942 -0.383371
C30   C     C_3   0.277114 0.424323 0.716719 -0.386438
C31   C     C_1   0.500979 0.497186 0.033904 -0.035985
C32   C     C_R   0.064431 0.373262 0.499908 -0.141754
C33   C     C_R   0.935575 0.626710 0.500097 -0.143463
C34   C     C_R   0.936617 0.373058 0.499838 -0.149255
C35   C     C_R   0.063386 0.626913 0.500066 -0.146471
C36   C     C_R   0.499713 0.500413 0.356119 0.542704
Cu1   Cu    Cu3+1 0.500000 0.640660 0.500000 0.984086
Cu2   Cu    Cu3+1 0.500000 0.359340 0.500000 0.943431
H1    H     H_    0.112870 0.274106 0.499925 0.129941
H2    H     H_    0.710616 0.396143 0.054817 0.130374
H3    H     H_    0.203753 0.628964 0.137000 0.121688
H4    H     H_    0.308836 0.673755 0.065286 0.134892
H5    H     H_    0.247027 0.499076 0.070730 0.124054
H6    H     H_    0.200582 0.481526 0.873270 0.123823
H7    H     H_    0.250916 0.301310 0.864460 0.128540
H8    H     H_    0.290279 0.397834 0.946449 0.130227
H9    H     H_    0.803944 0.498833 0.748200 0.120211
H10   H     H_    0.722738 0.554031 0.665192 0.153901
H11   H     H_    0.754102 0.679241 0.737113 0.131172
H12   H     H_    0.887139 0.725867 0.500166 0.130641
H13   H     H_    0.807419 0.404595 0.251387 0.118510
H14   H     H_    0.746180 0.512138 0.322658 0.131809
H15   H     H_    0.706214 0.329315 0.318488 0.152201
H16   H     H_    0.197014 0.508819 0.251449 0.120818
H17   H     H_    0.278471 0.562804 0.333996 0.159496
H18   H     H_    0.248552 0.688163 0.260759 0.126659
H19   H     H_    0.193464 0.404725 0.749788 0.119051
H20   H     H_    0.254131 0.512657 0.677811 0.132532
H21   H     H_    0.294438 0.329479 0.682879 0.149750
H22   H     H_    0.368660 0.125752 0.343620 0.205998
H23   H     H_    0.889011 0.273846 0.499663 0.124944
H24   H     H_    0.255058 0.125498 0.408275 0.193213
H25   H     H_    0.744686 0.877292 0.592314 0.211247
H26   H     H_    0.629671 0.870600 0.655664 0.226636
H27   H     H_    0.584539 0.171446 0.651872 0.255191
H28   H     H_    0.701989 0.211011 0.590535 0.268318
H29   H     H_    0.367279 0.879609 0.344277 0.204922
H30   H     H_    0.254025 0.880241 0.409163 0.192146
H31   H     H_    0.111003 0.726114 0.500164 0.129369
H32   H     H_    0.798658 0.619774 0.861427 0.122615
H33   H     H_    0.694199 0.667406 0.932754 0.135085
H34   H     H_    0.754361 0.491331 0.929076 0.123760
H35   H     H_    0.800566 0.479358 0.127006 0.123358
H36   H     H_    0.749553 0.300029 0.137965 0.128484
N1    N     N_R   0.500000 0.852070 0.500000 -0.195064
N2    N     N_R   0.500000 0.147930 0.500000 -0.207984
N3    N     N_3   0.346780 0.152954 0.398785 -0.559133
N4    N     N_3   0.653528 0.845820 0.600454 -0.557024
N5    N     N_3   0.643201 0.134676 0.610538 -0.663238
N6    N     N_3   0.345585 0.851648 0.399560 -0.571043
O1    O     O_R   0.319640 0.618740 0.499990 -0.485902
O2    O     O_R   0.680360 0.381260 0.500010 -0.527725
O3    O     O_R   0.680360 0.618740 0.500010 -0.484027
O4    O     O_R   0.319640 0.381260 0.499990 -0.482283
O5    O     O_R   0.500000 0.618830 0.391250 -0.472042
O6    O     O_R   0.500000 0.381170 0.608750 -0.518846
O7    O     O_R   0.500000 0.618830 0.608750 -0.469655
O8    O     O_R   0.500000 0.381170 0.391250 -0.470034

loop_
_geom_bond_atom_site_label_1
_geom_bond_atom_site_label_2
_ccdc_geom_bond_type
C27   H10   S    
H30   N6    S    
C8    C13   A    
H27   N5    S    
C10   C28   S    
C8    C26   S    
C22   H33   S    
H24   N3    S    
C25   H5    S    
C26   H6    S    
C5    C20   A    
Cu2   N2    S    
C36   O8    A    
C1    O4    A    
C7    C11   A    
H28   N5    S    
C21   C31   S    
C8    C20   A    
Cu2   O6    S    
Cu1   O5    S    
C10   C15   A    
C28   H13   S    
C24   H35   S    
C29   H16   S    
C3    C33   A    
C1    O1    A    
C30   H19   S    
C16   N3    S    
C32   H1    S    
C3    C12   S    
C26   H7    S    
C24   H2    S    
C11   C15   A    
C5    C22   S    
C18   N5    S    
Cu1   N1    S    
C4    C35   A    
C13   C14   A    
Cu2   O2    S    
Cu1   O1    S    
C22   H34   S    
H22   N3    S    
C13   C30   S    
C25   H3    S    
C29   H17   S    
C3    C34   A    
C33   H12   S    
C7    C21   A    
C6    C21   A    
C34   H23   S    
C12   O3    A    
Cu2   O8    S    
C23   C31   T    
C9    C14   A    
C5    C9    A    
Cu1   Cu2   S    
C20   C23   S    
C6    C24   S    
C30   H21   S    
C17   C18   A    
C12   O2    A    
C2    O7    A    
C35   H31   S    
C4    C32   A    
C15   C36   S    
C9    C27   S    
C27   H9    S    
C18   N2    A    
Cu2   O4    S    
C16   N2    A    
H26   N4    S    
Cu1   O7    S    
H29   N6    S    
C25   H4    S    
C6    C10   A    
C28   H15   S    
C29   H18   S    
C36   O5    A    
C7    C25   S    
C1    C4    S    
C19   N1    A    
C28   H14   S    
C24   H36   S    
C16   C19   A    
C30   H20   S    
C17   N4    S    
C33   C35   A    
C2    O6    A    
C19   N6    S    
C2    C14   S    
C26   H8    S    
C11   C29   S    
C17   N1    A    
Cu1   O3    S    
C22   H32   S    
C27   H11   S    
C32   C34   A    
H25   N4    S    
