data_mof_unit_55613.cif
_audit_creation_date              2012-12-10T17:16:35-0500
_audit_creation_method            fapswitch 2.2
_symmetry_space_group_name_H-M    P1
_symmetry_Int_Tables_number       1
_space_group_crystal_system       triclinic
_cell_length_a                    10.022627
_cell_length_b                    10.542605
_cell_length_c                    10.751092
_cell_angle_alpha                 88.082705
_cell_angle_beta                  94.933879
_cell_angle_gamma                 84.259613
_cell_volume                      1125.11076319

loop_
_atom_site_label
_atom_site_type_symbol
_atom_type_description
_atom_site_fract_x
_atom_site_fract_y
_atom_site_fract_z
_atom_type_partial_charge
Br1   Br    Br    0.797260 0.775932 0.338474 -0.395261
Br2   Br    Br    0.202118 0.223750 0.660474 -0.364234
Br3   Br    Br    0.764425 0.435535 0.940069 -0.338050
Br4   Br    Br    0.232829 0.514249 0.061392 -0.362018
C1    C     C_R   0.443909 0.512623 0.266519 0.894231
C2    C     C_R   0.500865 0.740947 0.483582 0.924161
C3    C     C_R   0.727661 0.082661 0.632677 0.607798
C4    C     C_R   0.272428 0.917120 0.366490 0.601886
C5    C     C_R   0.852653 0.011277 0.634741 -0.229926
C6    C     C_R   0.147451 0.988564 0.364120 -0.221396
C7    C     C_R   0.869832 0.910008 0.555848 0.541019
C8    C     C_R   0.130134 0.089927 0.442877 0.543954
C9    C     C_R   0.759240 0.872751 0.482687 0.209977
C10   C     C_R   0.240596 0.127200 0.516222 0.203932
C11   C     C_R   0.627595 0.929900 0.498708 -0.173362
C12   C     C_R   0.556589 0.495825 0.733251 0.907882
C13   C     C_R   0.372313 0.070028 0.500472 -0.175753
C14   C     C_R   0.615344 0.045450 0.559258 -0.124628
C15   C     C_R   0.384620 0.954413 0.440013 -0.117618
C16   C     C_R   0.507752 0.877017 0.457865 -0.011107
C17   C     C_R   0.492167 0.122862 0.541547 -0.014998
C18   C     C_2   0.412042 0.534485 0.133140 0.147705
C19   C     C_2   0.590416 0.507878 0.865705 0.122920
C20   C     C_2   0.511641 0.563594 0.065378 -0.152219
C21   C     C_2   0.495790 0.565806 0.931025 -0.197713
C22   C     C_2   0.029966 0.542455 0.542433 0.034898
C23   C     C_2   0.970030 0.457562 0.457557 0.031619
C24   C     C_R   0.499098 0.259016 0.516272 0.952604
F1    F     F_    0.004851 0.148957 0.451031 -0.662651
F2    F     F_    0.995069 0.850976 0.547472 -0.665167
F3    F     F_    0.715191 0.184788 0.706072 -0.615953
F4    F     F_    0.285029 0.814872 0.293256 -0.631393
H1    H     H_    0.938209 0.039427 0.691785 0.237216
H2    H     H_    0.061985 0.960373 0.306977 0.236977
H3    H     H_    0.399124 0.606055 0.885370 0.207352
H4    H     H_    0.611203 0.574875 0.109598 0.214559
H5    H     H_    0.035618 0.400871 0.399898 0.169577
H6    H     H_    0.964379 0.599157 0.600084 0.165263
H7    H     H_    0.824119 0.382755 0.382401 0.237800
H8    H     H_    0.175890 0.617241 0.617603 0.231574
N1    N     N_2   0.157300 0.551390 0.551120 -0.168894
N2    N     N_2   0.842700 0.448610 0.448880 -0.171306
O1    O     O_R   0.568940 0.489660 0.307530 -0.640151
O2    O     O_R   0.431060 0.510340 0.692470 -0.635091
O3    O     O_R   0.348880 0.522640 0.340350 -0.543112
O4    O     O_R   0.651120 0.477360 0.659650 -0.545721
O5    O     O_R   0.610030 0.300280 0.483580 -0.584331
O6    O     O_R   0.389970 0.699720 0.516420 -0.592783
O7    O     O_R   0.389970 0.333270 0.516400 -0.601750
O8    O     O_R   0.610030 0.666730 0.483600 -0.609557
Zn1   Zn    Zn3+2 0.646940 0.477980 0.478080 1.059670
Zn2   Zn    Zn3+2 0.353060 0.522020 0.521920 1.061572

loop_
_geom_bond_atom_site_label_1
_geom_bond_atom_site_label_2
_ccdc_geom_bond_type
C11   C14   A    
C24   O5    A    
C8    F1    S    
H7    N2    S    
C14   C17   A    
Br4   C18   S    
C24   O7    A    
C12   O2    A    
N1    Zn2   S    
Br3   C19   S    
C15   C16   A    
C23   N2    D    
O6    Zn2   S    
N2    Zn1   S    
C3    C14   A    
O1    Zn1   S    
O7    Zn2   S    
C19   C21   D    
O8    Zn1   S    
C1    O1    A    
C6    H2    S    
C2    O8    A    
C5    H1    S    
C5    C7    A    
C10   C13   A    
O2    Zn2   S    
C22   C23   S    
C20   H4    S    
C2    O6    A    
C2    C16   S    
C21   H3    S    
C6    C8    A    
H8    N1    S    
C13   C15   A    
C17   C24   S    
C8    C10   A    
C12   C19   S    
C9    C11   A    
C11   C16   A    
Br2   C10   S    
C18   C20   D    
C4    C15   A    
C3    F3    S    
C4    F4    S    
C7    C9    A    
Br1   C9    S    
C20   C21   S    
C7    F2    S    
C4    C6    A    
C12   O4    A    
C3    C5    A    
C22   H6    S    
O5    Zn1   S    
O3    Zn2   S    
C1    O3    A    
O4    Zn1   S    
C13   C17   A    
C1    C18   S    
C23   H5    S    
C22   N1    D    
