data_mof_unit_22390.cif
_audit_creation_date              2012-12-11T18:34:40-0500
_audit_creation_method            fapswitch 2.2
_symmetry_space_group_name_H-M    P1
_symmetry_Int_Tables_number       1
_space_group_crystal_system       triclinic
_cell_length_a                    8.333363
_cell_length_b                    14.411991
_cell_length_c                    22.962109
_cell_angle_alpha                 93.256216
_cell_angle_beta                  89.920485
_cell_angle_gamma                 92.67731
_cell_volume                      2750.29744594

loop_
_atom_site_label
_atom_site_type_symbol
_atom_type_description
_atom_site_fract_x
_atom_site_fract_y
_atom_site_fract_z
_atom_type_partial_charge
Ba1   Ba    Ba6+2 0.846250 0.544220 0.470860 1.671521
Ba2   Ba    Ba6+2 0.343570 0.455860 0.529140 1.673662
C1    C     C_3   0.714319 0.683547 0.185959 -0.295112
C2    C     C_3   0.614974 0.737935 0.233474 1.060839
C3    C     C_3   0.549372 0.269894 0.350836 0.784157
C4    C     C_3   0.382213 0.228460 0.334996 -0.306013
C5    C     C_3   0.039469 0.209287 0.698349 0.299625
C6    C     C_3   0.079633 0.177940 0.758767 -0.317221
C7    C     C_3   0.539244 0.216389 0.684064 0.412433
C8    C     C_3   0.521085 0.133625 0.722571 0.256712
C9    C     C_R   0.372125 0.486032 0.326609 -0.296492
C10   C     C_R   0.111464 0.559032 0.936925 -0.006666
C11   C     C_R   0.069929 0.556968 0.876742 0.575376
C12   C     C_3   0.950268 0.868625 0.335638 0.304479
C13   C     C_R   0.992998 0.394971 0.878352 0.593596
C14   C     C_R   0.034566 0.394821 0.938195 -0.080130
C15   C     C_R   0.093491 0.477204 0.967744 -0.057111
C16   C     C_R   0.168900 0.641536 0.967271 -0.086373
C17   C     C_R   0.206419 0.642870 0.026727 -0.084843
C18   C     C_R   0.189991 0.561519 0.057898 -0.014299
C19   C     C_R   0.134178 0.477952 0.028277 -0.104359
C20   C     C_R   0.016782 0.313528 0.969149 -0.131258
C21   C     C_R   0.059474 0.312618 0.028320 0.410909
C22   C     C_R   0.118055 0.395606 0.059006 -0.088445
C23   C     C_3   0.981708 0.952265 0.299312 -0.393946
C24   C     C_R   0.163066 0.398570 0.119083 0.584633
C25   C     C_R   0.228216 0.562367 0.117955 0.582566
C26   C     C_2   0.813648 0.431234 0.769452 -0.107885
C27   C     C_3   0.782032 0.405663 0.705585 -0.068448
C28   C     C_1   0.008930 0.511990 0.683681 0.066031
C29   C     C_2   0.059482 0.514852 0.739221 -0.094789
C30   C     C_2   0.955671 0.474268 0.786424 0.194936
C31   C     C_R   0.428102 0.516276 0.225259 -0.086380
C32   C     C_R   0.476325 0.524573 0.284665 -0.054728
C33   C     C_R   0.211446 0.459508 0.312461 0.006511
C34   C     C_3   0.186765 0.749990 0.605297 0.306097
C35   C     C_R   0.162769 0.455141 0.253323 -0.091153
C36   C     C_R   0.270996 0.482183 0.208905 0.236281
C37   C     C_2   0.880161 0.462724 0.664646 -0.240630
C38   C     C_R   0.695262 0.938426 0.534641 -0.024883
C39   C     C_R   0.499695 0.805706 0.509056 -0.009841
C40   C     C_R   0.346678 0.776338 0.490118 -0.290447
C41   C     C_R   0.239869 0.838536 0.470639 0.060739
C42   C     C_R   0.286849 0.932647 0.469248 -0.113676
C43   C     C_R   0.439579 0.964851 0.489403 -0.004709
C44   C     C_R   0.547167 0.902059 0.511082 -0.042393
C45   C     C_3   0.197602 0.852041 0.627045 -0.400889
C46   C     C_R   0.627823 0.096093 0.514785 -0.036327
C47   C     C_R   0.733122 0.034515 0.539015 0.022545
C48   C     C_R   0.670566 0.192451 0.516919 0.051019
C49   C     C_R   0.809747 0.226385 0.545873 -0.281048
C50   C     C_R   0.917534 0.165413 0.567107 -0.020092
C51   C     C_R   0.878926 0.069595 0.564621 -0.102782
C52   C     C_R   0.484975 0.059241 0.487928 -0.037434
C53   C     C_3   0.011004 0.265227 0.421164 0.318888
C54   C     C_3   0.983424 0.160147 0.412899 -0.392203
C55   C     C_3   0.727633 0.775562 0.644767 0.638114
C56   C     C_3   0.642060 0.864321 0.665348 0.235109
H1    H     H_    0.264936 0.860112 0.668840 0.116830
H2    H     H_    0.260763 0.894750 0.594707 0.063608
H3    H     H_    0.075884 0.878406 0.634256 0.134518
H4    H     H_    0.902147 0.296719 0.439110 0.017852
H5    H     H_    0.111727 0.280318 0.452151 0.076419
H6    H     H_    0.880761 0.143226 0.382996 0.170942
H7    H     H_    0.957763 0.128453 0.454614 0.056789
H8    H     H_    0.092081 0.128512 0.394377 0.099218
H9    H     H_    0.830329 0.795086 0.616930 0.032132
H10   H     H_    0.828116 0.722731 0.177145 0.083000
H11   H     H_    0.562956 0.852959 0.703527 -0.006680
H12   H     H_    0.558159 0.882205 0.630928 -0.016629
H13   H     H_    0.644815 0.674035 0.143893 0.078998
H14   H     H_    0.544545 0.345057 0.364444 -0.094453
H15   H     H_    0.311286 0.223523 0.375380 0.080894
H16   H     H_    0.319389 0.271879 0.304753 0.056672
H17   H     H_    0.390068 0.156941 0.314412 0.112064
H18   H     H_    0.748760 0.614846 0.200193 0.060229
H19   H     H_    0.101031 0.947763 0.277514 0.120288
H20   H     H_    0.017686 0.286710 0.701745 0.024943
H21   H     H_    0.926495 0.167816 0.683049 0.010435
H22   H     H_    0.178096 0.224375 0.778953 0.134280
H23   H     H_    0.970471 0.180291 0.786746 0.163059
H24   H     H_    0.118815 0.104851 0.755962 0.076259
H25   H     H_    0.667827 0.226484 0.673301 -0.111128
H26   H     H_    0.474863 0.199132 0.642669 0.037032
H27   H     H_    0.555518 0.070765 0.696311 0.054614
H28   H     H_    0.393302 0.120471 0.734424 0.027096
H29   H     H_    0.847815 0.884547 0.364940 0.088719
H30   H     H_    0.968165 0.249710 0.947520 0.118663
H31   H     H_    0.249411 0.708178 0.048222 0.107258
H32   H     H_    0.507634 0.540366 0.191553 0.081853
H33   H     H_    0.184029 0.705847 0.945202 0.112057
H34   H     H_    0.178346 0.544563 0.750439 0.127326
H35   H     H_    0.731815 0.402693 0.801368 0.107512
H36   H     H_    0.040624 0.432416 0.241987 0.091686
H37   H     H_    0.410403 0.487491 0.371667 0.084889
H38   H     H_    0.917312 0.808037 0.305695 0.090411
H39   H     H_    0.866118 0.442875 0.618171 0.075331
H40   H     H_    0.307774 0.703902 0.492509 0.050656
H41   H     H_    0.205511 0.980264 0.451359 0.080534
H42   H     H_    0.964226 0.022749 0.580871 0.080029
H43   H     H_    0.843107 0.299862 0.545897 0.052265
H44   H     H_    0.781482 0.893492 0.550995 0.075418
H45   H     H_    0.404325 0.103299 0.466977 0.110058
H46   H     H_    0.885956 0.955894 0.265085 0.140704
H47   H     H_    0.982041 0.016953 0.328478 0.114250
H48   H     H_    0.310221 0.726932 0.597682 0.017372
H49   H     H_    0.112188 0.742516 0.565129 0.014181
N1    N     N_R   0.007739 0.475719 0.847921 -0.416415
N2    N     N_R   0.218829 0.481112 0.147834 -0.432214
O1    O     O_2   0.901900 0.448470 0.362340 -0.444602
O2    O     O_3   0.619490 0.710971 0.614869 -0.669103
O3    O     O_3   0.093915 0.851172 0.364889 -0.643825
O4    O     O_2   0.287790 0.551560 0.637690 -0.449165
O5    O     O_3   0.047460 0.550640 0.566640 -0.497624
O6    O     O_3   0.544140 0.380990 0.608030 -0.463850
O7    O     O_3   0.114051 0.698361 0.647985 -0.596438
O8    O     O_3   0.640350 0.387150 0.474440 -0.472200
O9    O     O_3   0.136890 0.332750 0.580830 -0.473214
O10   O     O_2   0.247594 0.168229 0.551464 -0.500482
O11   O     O_3   0.173020 0.191670 0.661249 -0.591187
O12   O     O_3   0.142240 0.449440 0.433360 -0.498960
O13   O     O_3   0.549340 0.612930 0.525560 -0.433193
O14   O     O_2   0.396530 0.270940 0.479440 -0.493589
O15   O     O_3   0.607783 0.218949 0.395738 -0.657141
O16   O     O_2   0.468767 0.476356 0.707282 -0.491637
O17   O     O_3   0.473002 0.295273 0.711916 -0.594840
O18   O     O_2   0.087703 0.628003 0.850444 -0.622304
O19   O     O_2   0.944740 0.322157 0.853202 -0.629580
O20   O     O_2   0.154589 0.327460 0.145603 -0.576388
O21   O     O_2   0.268392 0.635995 0.143804 -0.575426
O22   O     O_3   0.645560 0.619080 0.391970 -0.457812
O23   O     O_2   0.820186 0.563617 0.296033 -0.510040
O24   O     O_3   0.047108 0.299532 0.366688 -0.619856
O25   O     O_3   0.671925 0.719649 0.291031 -0.636033
O26   O     O_2   0.793170 0.729090 0.520590 -0.482482
O27   O     O_3   0.052800 0.667320 0.419180 -0.475927
O28   O     O_2   0.907936 0.833460 0.455557 -0.515938
P1    P     P_3+3 0.074990 0.420800 0.372080 1.002841
P2    P     P_3+3 0.618830 0.715330 0.538180 0.975440
P3    P     P_3+3 0.062502 0.792982 0.429757 0.947629
P4    P     P_3+3 0.114710 0.579280 0.627920 1.032351
P5    P     P_3+3 0.117492 0.213226 0.590047 0.942098
P6    P     P_3+3 0.654850 0.601855 0.312765 0.940602
P7    P     P_3+3 0.580529 0.269059 0.466448 0.923678
P8    P     P_3+3 0.566525 0.393792 0.683729 0.983285
O29   O     O_3   0.644943 0.835049 0.226736 -0.677216
C57   C     C_3   0.584052 0.867892 0.173467 0.077128
H50   H     H_    0.468400 0.833282 0.158245 0.087525
H51   H     H_    0.675637 0.860829 0.137575 0.045135
H52   H     H_    0.561096 0.943560 0.181056 0.072557
O30   O     O_3   0.795732 0.734898 0.693416 -0.670367
C58   C     C_3   0.681042 0.682577 0.725472 0.279939
H53   H     H_    0.690719 0.608274 0.711929 0.079421
H54   H     H_    0.554514 0.700871 0.718520 0.055814
C59   C     C_3   0.718496 0.696836 0.790375 -0.232864
H55   H     H_    0.840291 0.673387 0.798402 0.187105
H56   H     H_    0.716182 0.771728 0.803684 0.110574
C60   C     C_3   0.598051 0.643026 0.827206 -0.475584
H57   H     H_    0.630540 0.653030 0.873751 0.143970
H58   H     H_    0.597208 0.568391 0.814846 0.143948
H59   H     H_    0.476816 0.668024 0.821461 0.162057
O31   O     O_3   0.754058 0.940326 0.674863 -0.678632
C61   C     C_3   0.807791 0.946792 0.733185 0.157806
H60   H     H_    0.706218 0.949686 0.764744 0.054883
H61   H     H_    0.880115 0.012418 0.740353 0.083954
H62   H     H_    0.886850 0.889213 0.742135 0.084501
O32   O     O_3   0.446351 0.715132 0.226940 -0.659261
C62   C     C_3   0.344538 0.772841 0.263271 0.306637
H63   H     H_    0.255802 0.808288 0.235571 0.045458
H64   H     H_    0.409465 0.831644 0.289774 0.064487
C63   C     C_3   0.255816 0.708315 0.304186 -0.172292
H65   H     H_    0.130799 0.721008 0.312267 0.118093
H66   H     H_    0.240393 0.639199 0.281548 0.111050
C64   C     C_3   0.351545 0.708119 0.361175 -0.223044
H67   H     H_    0.442698 0.765865 0.371643 0.093360
H68   H     H_    0.405289 0.645625 0.358521 0.070160
H69   H     H_    0.306202 0.678172 0.398886 0.077277
O33   O     O_3   0.653158 0.254490 0.302601 -0.641325
C65   C     C_3   0.643871 0.324058 0.262163 0.200062
H70   H     H_    0.694315 0.391110 0.281759 0.076300
H71   H     H_    0.517931 0.331438 0.247909 0.025216
C66   C     C_3   0.742540 0.297050 0.208302 -0.125737
H72   H     H_    0.869636 0.289804 0.221148 0.158729
H73   H     H_    0.695190 0.228896 0.188897 0.131421
C67   C     C_3   0.734950 0.369608 0.162612 -0.486599
H74   H     H_    0.806464 0.347553 0.123848 0.180600
H75   H     H_    0.784765 0.438234 0.180517 0.124640
H76   H     H_    0.608589 0.376464 0.148559 0.129580
O34   O     O_3   0.626336 0.145892 0.770830 -0.654342
C68   C     C_3   0.542513 0.174205 0.821796 0.181157
H77   H     H_    0.449163 0.120630 0.833333 0.008866
H78   H     H_    0.488758 0.242803 0.817281 0.070512
H79   H     H_    0.629368 0.182693 0.858414 0.082849
O35   O     O_3   0.032822 0.231277 0.056743 -0.626985
C69   C     C_3   0.157010 0.169674 0.043777 0.317051
H80   H     H_    0.208305 0.150926 0.085723 0.101433
H81   H     H_    0.258394 0.199531 0.018075 -0.009676
C70   C     C_3   0.087461 0.081146 0.011713 -0.208972
H82   H     H_    0.987525 0.051350 0.037594 0.133928
H83   H     H_    0.040153 0.097953 0.968752 0.109857
C71   C     C_3   0.214532 0.009031 0.002092 -0.507263
H84   H     H_    0.315536 0.037120 0.975863 0.135231
H85   H     H_    0.160692 0.946282 0.978086 0.147361
H86   H     H_    0.260358 0.988660 0.044659 0.131842

loop_
_geom_bond_atom_site_label_1
_geom_bond_atom_site_label_2
_ccdc_geom_bond_type
O12   P1    S    
C63   H65   S    
C8    H27   S    
C68   H77   S    
C69   H81   S    
O7    P4    S    
C59   H56   S    
C39   C40   A    
O3    P3    S    
C17   C18   A    
O27   P3    S    
C4    H17   S    
O33   C65   S    
Ba2   O9    S    
O2    P2    S    
C5    C6    S    
C55   O2    S    
C43   C44   A    
C42   C43   A    
C46   C52   A    
C63   H66   S    
C3    O15   S    
O31   C61   S    
C28   P4    S    
C23   H19   S    
C16   H33   S    
C5    H21   S    
C26   C27   S    
C57   H51   S    
C1    H10   S    
C22   C24   A    
C12   H29   S    
Ba1   Ba2   S    
C3    H14   S    
C40   H40   S    
C33   P1    S    
C27   P8    S    
C28   C29   D    
Ba2   O4    S    
C54   H8    S    
C37   H39   S    
C12   O3    S    
C38   C47   A    
C53   H4    S    
C34   C45   S    
C16   C17   A    
C71   H84   S    
Ba2   P4    S    
C64   H67   S    
C60   H59   S    
C45   H2    S    
C66   H72   S    
O17   P8    S    
C62   C63   S    
C8    H28   S    
C57   H50   S    
C14   C15   A    
C53   H5    S    
O14   P7    D    
C35   H36   S    
C14   C20   A    
C39   C44   A    
C54   H6    S    
C70   H82   S    
C20   H30   S    
Ba1   O27   S    
C7    C8    S    
C68   H79   S    
C69   C70   S    
O23   P6    D    
C62   H64   S    
O35   C69   S    
O25   P6    S    
O30   C58   S    
O24   P1    S    
Ba1   O13   S    
C34   H49   S    
C60   H58   S    
C71   H85   S    
C55   H9    S    
C11   N1    Am   
C12   H38   S    
Ba1   O22   S    
O28   P3    D    
Ba2   O8    S    
C48   P7    S    
C4    H16   S    
C66   H73   S    
Ba2   O13   S    
C51   H42   S    
C63   C64   S    
C32   P6    S    
C8    O34   S    
C23   H47   S    
C49   C50   A    
O5    P4    S    
C52   H45   S    
O1    P1    D    
C61   H62   S    
O11   P5    S    
O32   C62   S    
C56   H12   S    
C67   H76   S    
C38   H44   S    
C48   C49   A    
C53   O24   S    
C34   H48   S    
C50   P5    S    
C6    H23   S    
C26   H35   S    
C66   C67   S    
C13   N1    Am   
C10   C15   A    
C1    H13   S    
C41   C42   A    
C45   H3    S    
C35   C36   A    
C17   H31   S    
Ba1   O1    S    
Ba2   O6    S    
C29   C30   S    
C24   N2    Am   
C58   C59   S    
C26   C30   D    
C21   C22   A    
C2    O29   S    
C27   C37   S    
C53   C54   S    
C31   C32   A    
C41   P3    S    
C56   H11   S    
Ba1   O8    S    
C18   C19   A    
C36   N2    S    
C1    H18   S    
C64   H69   S    
C24   O20   D    
C7    H25   S    
C5    H20   S    
C46   C47   A    
C58   H54   S    
C43   C52   A    
C13   O19   D    
C30   N1    S    
C60   H57   S    
C71   H86   S    
C6    H24   S    
Ba1   O5    S    
C38   C44   A    
C1    C2    S    
C56   O31   S    
C57   H52   S    
O22   P6    S    
C50   C51   A    
C34   O7    S    
C4    H15   S    
C2    O25   S    
O29   C57   S    
Ba2   O12   S    
C9    H37   S    
C54   H7    S    
C25   O21   D    
C62   H63   S    
C68   H78   S    
C33   C35   A    
C5    O11   S    
C9    C32   A    
C31   C36   A    
O9    P5    S    
Ba1   P2    S    
O13   P2    S    
C23   H46   S    
C18   C25   A    
C65   H70   S    
C49   H43   S    
O6    P8    S    
C7    O17   S    
C2    O32   S    
O26   P2    D    
C65   C66   S    
C9    C33   A    
O16   P8    D    
C31   H32   S    
Ba2   O5    S    
C67   H74   S    
C3    C4    S    
C47   C51   A    
C55   O30   S    
C21   O35   S    
C46   C48   A    
C42   H41   S    
C64   H68   S    
O4    P4    D    
C28   C37   D    
C70   C71   S    
C12   C23   S    
O34   C68   S    
Ba1   O12   S    
C3    O33   S    
C39   P2    S    
C61   H60   S    
C67   H75   S    
C7    H26   S    
C45   H1    S    
C69   H80   S    
C11   O18   D    
C10   C11   A    
C25   N2    Am   
O8    P7    S    
C29   H34   S    
C40   C41   A    
C19   C22   A    
C10   C16   A    
C59   H55   S    
C6    H22   S    
O10   P5    D    
C20   C21   A    
O15   P7    S    
C61   H61   S    
C70   H83   S    
C58   H53   S    
C65   H71   S    
C55   C56   S    
Ba1   O26   S    
Ba2   O14   S    
Ba1   P1    S    
C13   C14   A    
C59   C60   S    
C15   C19   A    
