data_mof_unit_28940.cif
_audit_creation_date              2012-12-11T19:09:26-0500
_audit_creation_method            fapswitch 2.2
_symmetry_space_group_name_H-M    P1
_symmetry_Int_Tables_number       1
_space_group_crystal_system       triclinic
_cell_length_a                    8.202658
_cell_length_b                    15.073536
_cell_length_c                    26.976885
_cell_angle_alpha                 98.599218
_cell_angle_beta                  92.930766
_cell_angle_gamma                 81.080388
_cell_volume                      3256.79129609

loop_
_atom_site_label
_atom_site_type_symbol
_atom_type_description
_atom_site_fract_x
_atom_site_fract_y
_atom_site_fract_z
_atom_type_partial_charge
Ba1   Ba    Ba6+2 0.860050 0.456430 0.522540 1.655386
Ba2   Ba    Ba6+2 0.329780 0.543490 0.477450 1.650225
C1    C     C_3   0.643768 0.142930 0.653670 -0.324853
C2    C     C_3   0.659475 0.229877 0.633316 0.337199
C3    C     C_3   0.482805 0.683691 0.631828 0.298898
C4    C     C_3   0.459457 0.716696 0.687502 -0.365636
C5    C     C_3   0.024550 0.732791 0.343633 0.358205
C6    C     C_3   0.036851 0.754024 0.290689 -0.288527
C7    C     C_3   0.509493 0.784418 0.349724 0.345417
C8    C     C_3   0.582692 0.808228 0.303267 -0.349945
C9    C     C_R   0.042458 0.435364 0.178119 0.607463
C10   C     C_R   0.888120 0.583762 0.177668 0.575302
C11   C     C_2   0.748869 0.551918 0.272417 -0.100978
C12   C     C_3   0.166527 0.259367 0.655432 0.292214
C13   C     C_3   0.728874 0.585576 0.327608 -0.052881
C14   C     C_1   0.983949 0.484485 0.342563 0.031217
C15   C     C_2   0.026349 0.480880 0.294907 -0.105727
C16   C     C_2   0.900751 0.513462 0.255864 0.192875
C17   C     C_R   0.031673 0.507828 0.102226 -0.074204
C18   C     C_R   0.091298 0.434488 0.128147 -0.023927
C19   C     C_R   0.205644 0.363826 0.104632 -0.107749
C20   C     C_R   0.928191 0.582444 0.127213 -0.020002
C21   C     C_2   0.843334 0.530328 0.360469 -0.284862
C22   C     C_2   0.350260 0.475339 0.640806 -0.283634
C23   C     C_3   0.129512 0.239716 0.706982 -0.315671
C24   C     C_R   0.204029 0.426290 0.973670 0.039821
C25   C     C_R   0.063700 0.583345 0.976112 0.024245
C26   C     C_R   0.152344 0.503791 0.949389 0.043219
C27   C     C_R   0.266870 0.344647 0.943270 -0.023328
C28   C     C_R   0.301808 0.342553 0.892961 -0.049500
C29   C     C_R   0.266866 0.421022 0.869840 -0.037331
C30   C     C_R   0.187550 0.501246 0.897646 -0.078894
C31   C     C_R   0.142670 0.578787 0.873706 -0.031609
C32   C     C_R   0.179737 0.575619 0.822701 0.591751
C33   C     C_R   0.305391 0.420260 0.819137 0.584226
C34   C     C_3   0.214635 0.264824 0.412993 0.248456
C35   C     C_2   0.459210 0.476923 0.728787 -0.070996
C36   C     C_3   0.499525 0.483874 0.675266 -0.054086
C37   C     C_1   0.205990 0.516661 0.657250 0.048448
C38   C     C_2   0.167182 0.518335 0.704807 -0.104936
C39   C     C_2   0.300280 0.495667 0.743539 0.201765
C40   C     C_R   0.181668 0.431398 0.026564 0.028274
C41   C     C_R   0.076131 0.507049 0.051449 0.046874
C42   C     C_R   0.016327 0.582793 0.026282 0.025093
C43   C     C_R   0.260163 0.364761 0.056220 -0.056906
C44   C     C_R   0.867462 0.655497 0.101528 -0.049884
C45   C     C_3   0.227984 0.161905 0.399145 -0.232234
C46   C     C_R   0.023772 0.660612 0.951275 -0.096042
C47   C     C_R   0.062534 0.658247 0.901353 -0.058034
C48   C     C_R   0.909401 0.655546 0.052257 -0.095117
C49   C     C_R   0.350975 0.175200 0.533482 -0.014215
C50   C     C_R   0.576340 0.208842 0.488507 0.057216
C51   C     C_R   0.761965 0.770733 0.485848 -0.279897
C52   C     C_R   0.848624 0.829145 0.466333 -0.010021
C53   C     C_R   0.786369 0.921653 0.470093 -0.140515
C54   C     C_R   0.637827 0.957787 0.495648 0.053954
C55   C     C_R   0.556055 0.897125 0.517765 0.011157
C56   C     C_3   0.998396 0.745012 0.594039 0.239306
C57   C     C_R   0.570109 0.052124 0.501433 0.027369
C58   C     C_R   0.420949 0.082755 0.528086 -0.023850
C59   C     C_R   0.345515 0.020926 0.549220 -0.109710
C60   C     C_R   0.413233 0.930745 0.545008 -0.041809
C61   C     C_R   0.643733 0.117080 0.481088 -0.137192
C62   C     C_R   0.433240 0.237564 0.515428 -0.288365
C63   C     C_R   0.619477 0.803776 0.512471 0.028362
C64   C     C_3   0.030881 0.840727 0.615649 -0.246306
C65   C     C_3   0.694522 0.342062 0.371706 0.294075
C66   C     C_3   0.698905 0.318648 0.314927 -0.347068
H1    H     H_    0.763108 0.215726 0.606876 0.103148
H2    H     H_    0.262319 0.128452 0.432857 -0.007360
H3    H     H_    0.105639 0.144305 0.384905 0.142278
H4    H     H_    0.866113 0.746456 0.583470 0.004267
H5    H     H_    0.074349 0.718956 0.560717 0.053044
H6    H     H_    0.962552 0.863378 0.651013 0.147344
H7    H     H_    0.164628 0.839170 0.625027 0.061201
H8    H     H_    0.815102 0.360418 0.386069 0.010205
H9    H     H_    0.595949 0.400623 0.381207 0.076878
H10   H     H_    0.762653 0.116468 0.671622 0.153626
H11   H     H_    0.801547 0.262774 0.304240 0.147061
H12   H     H_    0.717750 0.378644 0.297938 0.065762
H13   H     H_    0.580197 0.297108 0.300032 0.141946
H14   H     H_    0.542381 0.251613 0.613133 -0.054840
H15   H     H_    0.610797 0.091142 0.622650 0.122378
H16   H     H_    0.362850 0.667619 0.614960 0.020019
H17   H     H_    0.576696 0.621713 0.627164 0.037527
H18   H     H_    0.374577 0.782140 0.692779 0.137352
H19   H     H_    0.405031 0.666757 0.705206 0.078369
H20   H     H_    0.580287 0.726429 0.706342 0.127714
H21   H     H_    0.545617 0.156048 0.681840 0.116982
H22   H     H_    0.152110 0.297469 0.735715 0.121323
H23   H     H_    0.110545 0.669384 0.347518 0.079841
H24   H     H_    0.896150 0.722978 0.349260 -0.074447
H25   H     H_    0.026598 0.692371 0.263476 0.096818
H26   H     H_    0.937233 0.809272 0.282855 0.124741
H27   H     H_    0.157220 0.775816 0.285683 0.175889
H28   H     H_    0.612625 0.765142 0.376412 -0.145601
H29   H     H_    0.656414 0.864387 0.314117 0.076607
H30   H     H_    0.483303 0.829199 0.275980 0.163634
H31   H     H_    0.099595 0.327406 0.650806 0.090558
H32   H     H_    0.664270 0.748454 0.284561 0.129204
H33   H     H_    0.153220 0.457041 0.284457 0.141141
H34   H     H_    0.263013 0.310644 0.125636 0.118110
H35   H     H_    0.559005 0.463981 0.756002 0.101984
H36   H     H_    0.354469 0.278434 0.871949 0.121342
H37   H     H_    0.285872 0.280469 0.957457 0.070243
H38   H     H_    0.649355 0.572237 0.246510 0.122513
H39   H     H_    0.785547 0.713492 0.119462 0.126703
H40   H     H_    0.964931 0.725106 0.969712 0.072304
H41   H     H_    0.300960 0.259808 0.653502 -0.023720
H42   H     H_    0.028543 0.719493 0.884351 0.123878
H43   H     H_    0.040360 0.538309 0.716222 0.126634
H44   H     H_    0.852656 0.713352 0.035208 0.072201
H45   H     H_    0.825629 0.545771 0.400602 0.081751
H46   H     H_    0.359948 0.433817 0.604221 0.068763
H47   H     H_    0.380354 0.308527 0.519708 0.072010
H48   H     H_    0.233957 0.041288 0.570142 0.120760
H49   H     H_    0.752178 0.098766 0.458769 0.085290
H50   H     H_    0.811071 0.699301 0.482900 0.066217
H51   H     H_    0.859153 0.963304 0.454140 0.085179
H52   H     H_    0.998174 0.230597 0.708321 0.150762
H53   H     H_    0.349874 0.887877 0.563415 0.080147
H54   H     H_    0.209579 0.177078 0.715531 0.118858
H55   H     H_    0.337588 0.283923 0.423502 -0.027197
H56   H     H_    0.132642 0.285810 0.445453 0.075089
N1    N     N_R   0.942990 0.510126 0.203029 -0.422653
N2    N     N_R   0.260514 0.496919 0.795865 -0.425647
O1    O     O_2   0.906490 0.548660 0.619040 -0.458133
O2    O     O_3   0.663410 0.266135 0.391743 -0.639572
O3    O     O_3   0.114340 0.192238 0.618959 -0.597730
O4    O     O_2   0.283210 0.451320 0.380930 -0.458970
O5    O     O_3   0.051220 0.451340 0.441130 -0.498767
O6    O     O_3   0.503420 0.617610 0.414270 -0.458919
O7    O     O_3   0.150494 0.305961 0.371579 -0.616517
O8    O     O_3   0.617160 0.609950 0.527080 -0.473094
O9    O     O_3   0.088220 0.664410 0.439630 -0.494762
O10   O     O_2   0.191931 0.823052 0.468801 -0.491797
O11   O     O_3   0.067365 0.805289 0.378033 -0.556113
O12   O     O_3   0.138490 0.548590 0.558860 -0.492583
O13   O     O_3   0.572560 0.389970 0.472910 -0.489439
O14   O     O_2   0.345680 0.723560 0.528460 -0.481114
O15   O     O_3   0.536522 0.752369 0.610054 -0.638322
O16   O     O_2   0.404977 0.540499 0.324398 -0.499648
O17   O     O_3   0.409778 0.715792 0.335032 -0.596257
O18   O     O_2   0.087767 0.368995 0.199106 -0.583428
O19   O     O_2   0.378710 0.351179 0.795721 -0.599778
O20   O     O_2   0.806097 0.651886 0.199192 -0.626218
O21   O     O_2   0.142071 0.643490 0.802403 -0.594472
O22   O     O_3   0.686290 0.382320 0.585720 -0.484933
O23   O     O_2   0.842858 0.433223 0.671348 -0.500616
O24   O     O_3   0.036453 0.692699 0.632811 -0.624912
O25   O     O_3   0.690246 0.296453 0.673431 -0.593749
O26   O     O_2   0.844020 0.276410 0.471510 -0.461256
O27   O     O_3   0.101490 0.335510 0.560360 -0.495657
O28   O     O_2   0.011552 0.175358 0.525757 -0.468005
P1    P     P_3+3 0.071960 0.575810 0.612130 1.000358
P2    P     P_3+3 0.664360 0.290070 0.457280 0.982609
P3    P     P_3+3 0.145056 0.218533 0.559407 0.944324
P4    P     P_3+3 0.117760 0.424110 0.387870 1.000304
P5    P     P_3+3 0.049564 0.781563 0.438836 0.967190
P6    P     P_3+3 0.679329 0.400706 0.651242 0.970153
P7    P     P_3+3 0.532475 0.723453 0.544797 0.946996
P8    P     P_3+3 0.512325 0.611453 0.349354 0.959661
C67   C     C_2   0.356259 0.126609 0.360532 0.604459
H57   H     H_    0.485479 0.129535 0.370158 -0.029243
O29   O     O_2   0.316558 0.093864 0.318334 -0.519110
C68   C     C_2   0.980933 0.907930 0.580255 0.400402
H58   H     H_    0.045031 0.901918 0.545695 0.034889
O30   O     O_2   0.871808 0.971786 0.590916 -0.586893
C69   C     C_2   0.405638 0.867029 0.376287 0.609302
H59   H     H_    0.424691 0.886841 0.416182 -0.064448
O31   O     O_2   0.297268 0.911455 0.353729 -0.545642
C70   C     C_2   0.416672 0.304130 0.042814 0.476353
H60   H     H_    0.443963 0.238947 0.056316 -0.000076
O32   O     O_2   0.521037 0.328714 0.019430 -0.564530

loop_
_geom_bond_atom_site_label_1
_geom_bond_atom_site_label_2
_ccdc_geom_bond_type
C25   C46   A    
O12   P1    S    
C12   H41   S    
C53   C54   A    
C43   C70   S    
C22   H46   S    
C8    H29   S    
C69   H59   S    
C13   P8    S    
C7    C69   S    
C17   C18   A    
C65   H9    S    
C34   O7    S    
O3    P3    S    
C7    O17   S    
C12   H31   S    
C53   H51   S    
C51   C52   A    
O15   P7    S    
C67   O29   D    
C23   H22   S    
Ba2   O8    S    
C11   C16   D    
C34   C45   S    
C3    C4    S    
C66   H13   S    
C9    N1    Am   
C35   C36   S    
O7    P4    S    
Ba2   O6    S    
C16   N1    S    
C33   O19   D    
C28   C29   A    
C61   H49   S    
C5    H24   S    
C31   C47   A    
C64   H6    S    
C10   C20   A    
C22   C37   D    
C4    H20   S    
C54   C55   A    
Ba1   O26   S    
Ba1   P1    S    
Ba1   Ba2   S    
O22   P6    S    
C10   O20   D    
C8    H30   S    
C15   H33   S    
C52   P5    S    
O10   P5    D    
C25   C42   A    
C56   C64   S    
O26   P2    D    
C17   C41   A    
C14   C15   D    
C22   C36   S    
O27   P3    S    
C51   C63   A    
C9    O18   D    
O17   P8    S    
Ba1   O13   S    
Ba2   P4    S    
Ba1   P2    S    
C45   C67   S    
C66   H11   S    
C13   C21   S    
C57   C58   A    
C62   H47   S    
C68   O30   D    
C69   O31   D    
C27   H37   S    
C6    H27   S    
C7    C8    S    
C2    H1    S    
C70   O32   D    
Ba2   O5    S    
C38   H43   S    
C19   C43   A    
C9    C18   A    
O9    P5    S    
O11   P5    S    
C14   P4    S    
C65   C66   S    
Ba2   O12   S    
C55   C60   A    
C34   H55   S    
C6    H26   S    
O28   P3    D    
C50   C62   A    
O1    P1    D    
C37   C38   D    
C5    O11   S    
C3    H16   S    
C64   C68   S    
C51   H50   S    
C10   N1    Am   
O14   P7    D    
C49   P3    S    
C4    H19   S    
C33   N2    Am   
C37   P1    S    
C58   C59   A    
C40   C43   A    
O5    P4    S    
Ba1   O27   S    
C41   C42   A    
C45   H2    S    
C27   C28   A    
C21   H45   S    
C66   H12   S    
C32   O21   D    
C3    O15   S    
C29   C30   A    
C26   C30   A    
C32   N2    Am   
C5    H23   S    
C44   H39   S    
C17   C20   A    
C59   H48   S    
C48   H44   S    
C15   C16   S    
C8    H32   S    
C7    H28   S    
C45   H3    S    
C19   H34   S    
C46   C47   A    
C20   C44   A    
C14   C21   D    
O24   P1    S    
C11   C13   S    
C1    H15   S    
C68   H58   S    
C29   C33   A    
C40   C41   A    
Ba2   O13   S    
C28   H36   S    
C1    C2    S    
C23   H52   S    
C70   H60   S    
C24   C40   A    
C35   H35   S    
C23   H54   S    
C42   C48   A    
C2    O25   S    
C52   C53   A    
C38   C39   S    
C34   H56   S    
C24   C26   A    
C39   N2    S    
C49   C62   A    
Ba1   O1    S    
C55   C63   A    
C11   H38   S    
Ba1   O5    S    
C50   C61   A    
O16   P8    D    
C54   C57   A    
C49   C58   A    
C50   P2    S    
C44   C48   A    
C57   C61   A    
Ba2   O9    S    
C4    H18   S    
O8    P7    S    
O4    P4    D    
C1    H21   S    
Ba2   O14   S    
O25   P6    S    
C3    H17   S    
C65   O2    S    
C30   C31   A    
C56   H4    S    
C46   H40   S    
O13   P2    S    
C64   H7    S    
Ba2   O4    S    
C31   C32   A    
C12   C23   S    
C35   C39   D    
C59   C60   A    
O23   P6    D    
O6    P8    S    
C67   H57   S    
C5    C6    S    
O2    P2    S    
C36   P6    S    
C56   O24   S    
C2    H14   S    
C18   C19   A    
C24   C27   A    
C6    H25   S    
C63   P7    S    
C25   C26   A    
Ba1   O22   S    
C65   H8    S    
C1    H10   S    
C60   H53   S    
Ba1   O12   S    
Ba1   O8    S    
C56   H5    S    
C47   H42   S    
C12   O3    S    
