data_mof_unit_54179.cif
_audit_creation_date              2013-03-05T16:02:39-0500
_audit_creation_method            fapswitch 2.2
_symmetry_space_group_name_H-M    P1
_symmetry_Int_Tables_number       1
_space_group_crystal_system       triclinic
_cell_length_a                    6.954259
_cell_length_b                    17.19896
_cell_length_c                    18.960467
_cell_angle_alpha                 105.819583
_cell_angle_beta                  89.742374
_cell_angle_gamma                 90.442333
_cell_volume                      2181.82159736

loop_
_atom_site_label
_atom_site_type_symbol
_atom_site_description
_atom_site_fract_x
_atom_site_fract_y
_atom_site_fract_z
_atom_type_partial_charge
O1    O     O_R   0.494360 0.415680 0.413760 -0.575153
O2    O     O_R   0.818810 0.432910 0.557230 -0.546341
O3    O     O_R   0.994290 0.584320 0.586240 -0.606722
C1    C     C_R   0.650211 0.418646 0.582835 1.037998
O4    O     O_R   0.823740 0.406440 0.412520 -0.552098
O5    O     O_R   0.999250 0.557660 0.440500 -0.531461
C2    C     C_R   0.655605 0.380866 0.386591 1.131054
O6    O     O_R   0.489400 0.442340 0.559500 -0.572431
O7    O     O_3   0.662500 0.549650 0.509350 -0.266667
V1    V     V_3+5 0.935340 0.490790 0.498270 1.289629
O8    O     O_R   0.329270 0.567090 0.442770 -0.555490
C3    C     C_R   0.160981 0.585570 0.420735 0.977897
O9    O     O_R   0.324340 0.593560 0.587480 -0.606719
C4    C     C_R   0.155647 0.616302 0.615304 0.890507
V2    V     V_3+5 0.435970 0.509210 0.501730 1.252118
O10   O     O_3   0.158940 0.450350 0.490650 -0.242758
H1    H     H_    0.375000 0.866363 0.564195 0.152901
C5    C     C_R   0.042582 0.592318 0.755549 -0.363609
C6    C     C_R   0.990882 0.576692 0.821839 0.390550
C7    C     C_R   0.978460 0.641230 0.885970 0.252125
C8    C     C_R   0.022440 0.719719 0.882614 -0.341998
C9    C     C_R   0.074515 0.736657 0.816129 0.090344
C10   C     C_R   0.085568 0.671347 0.751206 0.080799
C11   C     C_R   0.116221 0.817207 0.814153 -0.243536
C12   C     C_R   0.169902 0.831883 0.745902 -0.044123
C13   C     C_R   0.196887 0.764803 0.682466 0.101414
C14   C     C_R   0.146510 0.685074 0.684004 -0.221584
C15   C     C_R   0.197728 0.911617 0.737908 0.306758
C16   C     C_R   0.278904 0.922450 0.673540 -0.165308
C17   C     C_R   0.317028 0.856805 0.614287 -0.153603
C18   C     C_R   0.270585 0.779245 0.617511 -0.174085
H2    H     H_    0.052647 0.541435 0.707421 0.180061
H3    H     H_    0.013118 0.767549 0.933131 0.156883
H4    H     H_    0.302499 0.982744 0.667772 0.166356
H5    H     H_    0.294139 0.730921 0.568245 0.114471
C19   C     C_1   0.111361 0.865751 0.134205 -0.163619
C20   C     C_1   0.118658 0.824504 0.178909 0.147517
C21   C     C_1   0.127920 0.775715 0.232008 0.070241
C22   C     C_1   0.135919 0.734299 0.276571 0.053642
C23   C     C_1   0.145345 0.684317 0.328684 0.123178
C24   C     C_1   0.152920 0.640354 0.371119 -0.187993
C25   C     C_1   0.641152 0.366263 0.634575 -0.143142
C26   C     C_1   0.636790 0.322404 0.677065 0.173878
C27   C     C_1   0.633793 0.270503 0.727517 0.098836
C28   C     C_1   0.631748 0.226858 0.770212 0.055071
C29   C     C_1   0.628770 0.175285 0.820945 0.125864
C30   C     C_1   0.624449 0.132116 0.864040 -0.051671
H6    H     H_    0.041153 0.132638 0.390953 0.208436
C31   C     C_R   0.528624 0.410314 0.249909 0.273860
C32   C     C_R   0.388139 0.420163 0.199930 0.279907
C33   C     C_R   0.336363 0.354190 0.142850 -0.264389
C34   C     C_R   0.453595 0.286556 0.127448 0.415776
C35   C     C_R   0.548699 0.266352 0.186367 -0.059857
C36   C     C_R   0.572767 0.329942 0.252568 -0.086748
C37   C     C_R   0.616909 0.186956 0.181973 -0.205743
C38   C     C_R   0.697851 0.171093 0.244943 -0.046282
C39   C     C_R   0.723363 0.234124 0.311289 -0.072660
C40   C     C_R   0.650030 0.313585 0.316617 -0.192072
C41   C     C_R   0.753107 0.091373 0.244351 0.408232
C42   C     C_R   0.904435 0.082366 0.288994 -0.232688
C43   C     C_R   0.947975 0.145422 0.349875 -0.146862
C44   C     C_R   0.827169 0.212781 0.368191 0.466168
H7    H     H_    0.246990 0.365036 0.099779 0.240590
H8    H     H_    0.963031 0.023172 0.285071 0.173843
O11   O     O_R   0.775690 0.057750 0.940570 -0.537876
O12   O     O_R   0.441200 0.093570 0.087490 -0.567418
O13   O     O_R   0.265840 0.942320 0.059480 -0.531804
C45   C     C_R   0.609492 0.119456 0.112758 1.105895
O14   O     O_R   0.446270 0.067110 0.942790 -0.539384
O15   O     O_R   0.270950 0.915660 0.913750 -0.610114
C46   C     C_R   0.614921 0.080816 0.916762 1.075132
O16   O     O_R   0.770580 0.084400 0.086300 -0.583671
O17   O     O_3   0.602640 0.950400 0.990690 -0.264969
V3    V     V_3+5 0.329740 0.009200 0.001730 1.323243
O18   O     O_R   0.940900 0.906360 0.912450 -0.581139
C47   C     C_R   0.109409 0.884540 0.883972 0.985291
O19   O     O_R   0.935830 0.932820 0.057160 -0.558947
C48   C     C_R   0.103838 0.916333 0.080929 0.953387
V4    V     V_3+5 0.829130 0.990680 0.998180 1.302303
O20   O     O_3   0.106100 0.049590 0.009310 -0.240225
S1    S     S_3+6 0.699406 0.489877 0.280630 0.002345
O21   O     O_2   0.632828 0.547163 0.350970 -0.321566
O22   O     O_2   0.890618 0.455264 0.292040 -0.284369
O23   O     O_3   0.728668 0.541448 0.217642 -0.415205
H9    H     H_    0.789549 0.593331 0.244282 0.377046
N1    N     N_R   0.327285 0.498171 0.196481 0.271659
O24   O     O_R   0.391888 0.526175 0.143646 -0.249981
O25   O     O_R   0.163601 0.524551 0.225999 -0.352179
S2    S     S_3+6 0.551010 0.267946 0.038814 -0.042771
O26   O     O_2   0.734360 0.220832 0.030088 -0.351961
O27   O     O_2   0.399512 0.225622 0.985779 -0.317417
O28   O     O_3   0.599579 0.357273 0.022035 -0.427387
H10   H     H_    0.636404 0.343548 0.969566 0.397611
S3    S     S_3+6 0.586033 0.009802 0.220512 -0.041205
O29   O     O_2   0.385419 0.041669 0.220388 -0.302018
O30   O     O_2   0.629877 0.954664 0.146241 -0.307918
O31   O     O_3   0.595902 0.956206 0.282598 -0.494550
H11   H     H_    0.700390 0.916639 0.265479 0.339752
S4    S     S_3+6 0.745775 0.233321 0.459138 -0.065972
O32   O     O_2   0.899029 0.280991 0.508062 -0.316184
O33   O     O_2   0.556357 0.276218 0.469780 -0.359171
O34   O     O_3   0.716171 0.145114 0.480317 -0.499292
H12   H     H_    0.683418 0.160473 0.533200 0.367977
S5    S     S_3+6 0.954114 0.475136 0.823370 0.009301
O35   O     O_2   0.741824 0.459277 0.826028 -0.247982
O36   O     O_2   0.037341 0.417651 0.755919 -0.316064
O37   O     O_3   0.057730 0.458884 0.898019 -0.414048
H13   H     H_    0.195589 0.471885 0.893778 0.363337
N2    N     N_R   0.922086 0.628723 0.955115 0.270690
O38   O     O_R   0.770719 0.585375 0.959536 -0.256450
O39   O     O_R   0.003118 0.670711 0.015363 -0.366658
N3    N     N_R   0.118802 0.981512 0.788779 0.214090
O40   O     O_R   0.218773 0.048154 0.807685 -0.419862
O41   O     O_R   0.933508 0.985145 0.798420 -0.442795

loop_
_geom_bond_atom_site_label_1
_geom_bond_atom_site_label_2
_geom_bond_distance
_ccdc_geom_bond_type
O12   C45   1.295441 A    
C37   C38   1.415198 A    
O11   V4    1.832802 S    
O17   V3    2.139836 S    
C6    C7    1.408093 A    
C1    O6    1.312351 A    
S5    O36   1.503621 D    
O31   H11   0.990725 S    
H6    C43   1.083949 S    
C39   C44   1.430697 A    
O19   C48   1.314578 A    
C15   N3    1.431760 S    
C12   C15   1.431763 A    
C13   C14   1.420647 A    
C16   C17   1.384760 A    
C19   C20   1.246215 T    
O16   V4    2.022671 S    
N2    O39   1.301423 A    
O5    C3    1.312182 A    
C17   C18   1.387473 A    
N1    O25   1.295611 A    
C8    H3    1.081200 S    
C31   C36   1.432560 A    
O12   V3    2.014447 S    
C38   C39   1.429913 A    
C5    C6    1.399951 A    
C31   S1    1.780141 S    
O14   C46   1.314774 A    
N3    O40   1.300575 A    
O8    V2    1.848486 S    
S3    O29   1.503098 D    
O15   V3    2.017629 S    
O37   H13   0.990645 S    
O1    V2    2.018843 S    
C41   S3    1.776607 S    
C10   C14   1.420033 A    
C4    C14   1.503389 S    
S2    O27   1.499876 D    
O7    V1    2.139905 S    
C2    C40   1.504483 S    
C35   C37   1.429766 A    
C13   C18   1.414306 A    
V3    O20   1.697721 S    
C8    C9    1.414068 A    
H1    C17   1.082726 S    
C34   S2    1.756541 S    
O34   H12   0.990707 S    
O13   C48   1.312096 A    
N3    O41   1.300249 A    
S5    O35   1.502352 D    
S1    O22   1.501478 D    
S1    O21   1.499626 D    
O19   V4    1.848529 S    
C33   C34   1.389360 A    
C33   H7    1.085081 S    
C11   C12   1.431775 A    
C22   C23   1.477901 S    
O4    C2    1.296781 A    
C37   C45   1.497230 S    
N1    O24   1.301185 A    
C11   C47   1.503412 S    
S3    O31   1.683296 S    
C12   C13   1.434455 A    
C28   C29   1.475547 S    
C16   H4    1.083174 S    
C5    C10   1.413569 A    
C42   C43   1.384136 A    
O2    C1    1.313759 A    
O18   C47   1.302401 A    
C20   C21   1.477806 S    
C6    S5    1.771355 S    
S4    O32   1.499755 D    
C45   O16   1.307897 A    
C32   C33   1.384231 A    
O17   V4    1.706598 S    
O14   V3    1.866504 S    
O13   V3    1.842272 S    
O23   H9    0.990455 S    
S2    O28   1.683173 S    
S3    O30   1.499276 D    
C30   C46   1.503825 S    
O3    C4    1.302363 A    
C23   C24   1.246806 T    
S4    O33   1.500550 D    
O6    V2    1.832392 S    
O9    V2    2.017604 S    
C26   C27   1.475603 S    
O15   C47   1.303434 A    
C18   H5    1.080563 S    
V4    O20   2.153596 S    
C5    H2    1.080939 S    
C25   C26   1.244873 T    
O2    V1    1.866428 S    
S1    O23   1.681369 S    
C34   C35   1.424083 A    
C3    C24   1.503490 S    
C36   C40   1.427266 A    
C29   C30   1.245002 T    
C15   C16   1.399666 A    
O1    C2    1.310836 A    
C27   C28   1.244998 T    
O5    V1    1.842444 S    
O8    C3    1.314452 A    
C35   C36   1.431879 A    
C19   C48   1.503412 S    
C38   C41   1.423862 A    
C42   H8    1.083019 S    
O7    V2    1.707833 S    
O4    V1    2.014529 S    
O3    V1    2.017643 S    
O11   C46   1.311547 A    
N2    O38   1.300805 A    
C44   S4    1.755256 S    
C39   C40   1.439801 A    
C21   C22   1.246417 T    
C1    C25   1.502834 S    
O28   H10   0.990766 S    
C9    C11   1.423651 A    
C43   C44   1.400573 A    
C32   N1    1.428375 S    
C7    N2    1.437560 S    
C41   C42   1.389237 A    
S4    O34   1.682770 S    
C7    C8    1.400061 A    
C31   C32   1.406968 A    
C9    C10   1.424616 A    
V1    O10   1.697780 S    
S2    O26   1.500247 D    
O9    C4    1.302522 A    
O18   V4    2.017492 S    
S5    O37   1.681870 S    
V2    O10   2.153618 S    
