data_mof_unit_58045.cif
_audit_creation_date              2013-03-05T16:33:14-0500
_audit_creation_method            fapswitch 2.2
_symmetry_space_group_name_H-M    P1
_symmetry_Int_Tables_number       1
_space_group_crystal_system       triclinic
_cell_length_a                    27.790456
_cell_length_b                    10.854464
_cell_length_c                    9.573636
_cell_angle_alpha                 90.284408
_cell_angle_beta                  90.261642
_cell_angle_gamma                 91.483979
_cell_volume                      2886.85613569

loop_
_atom_site_label
_atom_site_type_symbol
_atom_site_description
_atom_site_fract_x
_atom_site_fract_y
_atom_site_fract_z
_atom_type_partial_charge
O1    O     O_R   0.500000 0.319640 0.618810 -0.569036
O2    O     O_R   0.500010 0.319680 0.381230 -0.599175
C1    C     C_R   0.499487 0.262809 0.499637 0.841679
O3    O     O_R   0.430260 0.500000 0.618780 -0.549401
O4    O     O_R   0.430270 0.500040 0.381190 -0.580287
C2    C     C_R   0.407517 0.498861 0.499794 0.923292
Cu1   Cu    Cu3+1 0.500000 0.499980 0.640670 1.015379
Cu2   Cu    Cu3+1 0.500000 0.500020 0.359330 1.030385
O5    O     O_R   0.499990 0.680320 0.618770 -0.588089
O6    O     O_R   0.500000 0.680360 0.381190 -0.555443
O7    O     O_R   0.569730 0.499960 0.618810 -0.604641
O8    O     O_R   0.569740 0.500000 0.381220 -0.581222
C3    C     C_R   0.499152 0.737174 0.500098 0.849563
C4    C     C_R   0.592535 0.497756 0.500643 0.837116
C5    C     C_R   0.176813 0.375308 0.473966 0.694452
O9    O     O_2   0.201794 0.276319 0.433924 -0.403459
N1    N     N_R   0.201231 0.483648 0.503094 -0.453989
C6    C     C_R   0.177476 0.588479 0.535848 0.617815
C7    C     C_R   0.277711 0.555263 0.402563 -0.160611
C8    C     C_R   0.327994 0.562363 0.401150 0.280909
C9    C     C_R   0.329435 0.422108 0.600959 0.195203
C10   C     C_R   0.278740 0.420404 0.604493 0.296819
C11   C     C_R   0.253019 0.486565 0.503735 0.111477
C12   C     C_R   0.101194 0.474935 0.518996 -0.121487
C13   C     C_R   0.126082 0.367231 0.485190 -0.122557
C14   C     C_R   0.100236 0.253889 0.471650 0.397310
C15   C     C_R   0.127150 0.586537 0.542976 -0.007700
C16   C     C_R   0.354356 0.494465 0.500134 -0.312907
C17   C     C_R   0.645493 0.489630 0.504166 -0.107910
C18   C     C_R   0.973373 0.372300 0.472744 0.118601
C19   C     C_R   0.975568 0.571382 0.595912 -0.132175
C20   C     C_R   0.949083 0.473460 0.531901 0.048212
C21   C     C_R   0.946612 0.287594 0.389481 -0.096441
C22   C     C_R   0.896836 0.292423 0.380450 -0.108850
C23   C     C_R   0.872129 0.384164 0.451283 0.000509
C24   C     C_R   0.898166 0.476727 0.525639 -0.089031
C25   C     C_R   0.873328 0.572255 0.592607 -0.172408
C26   C     C_R   0.822365 0.568272 0.588511 0.650975
N2    N     N_R   0.798071 0.476268 0.517165 -0.455922
C27   C     C_R   0.821796 0.386201 0.447715 0.615351
C28   C     C_R   0.719063 0.446995 0.634661 0.390429
C29   C     C_R   0.668819 0.455862 0.628283 -0.239516
C30   C     C_R   0.673091 0.513197 0.384759 -0.125675
C31   C     C_R   0.723014 0.506916 0.390001 -0.110401
C32   C     C_R   0.746367 0.474960 0.514045 0.207870
O10   O     O_2   0.796601 0.297760 0.377169 -0.481711
C33   C     C_R   0.023983 0.363371 0.491994 -0.096240
C34   C     C_R   0.050382 0.471790 0.529075 0.050815
C35   C     C_R   0.026094 0.578340 0.573896 0.113136
C36   C     C_R   0.049183 0.251550 0.474811 0.206821
H1    H     H_    0.647795 0.433037 0.719780 0.198709
H2    H     H_    0.877793 0.223785 0.317220 0.208972
H3    H     H_    0.963787 0.219477 0.325733 0.202672
O11   O     O_2   0.202609 0.693956 0.563466 -0.476872
C37   C     C_R   0.102404 0.693950 0.573275 -0.092561
H4    H     H_    0.257358 0.606541 0.326701 0.216138
H5    H     H_    0.121353 0.781765 0.586410 0.206460
C38   C     C_R   0.950468 0.659950 0.675503 0.268855
C39   C     C_R   0.900032 0.664326 0.667222 0.365897
O12   O     O_2   0.796940 0.653999 0.656293 -0.467031
C40   C     C_R   0.052691 0.690215 0.586826 -0.092310
H6    H     H_    0.656413 0.538111 0.287628 0.189950
H7    H     H_    0.743825 0.528313 0.297461 0.191174
H8    H     H_    0.035369 0.777078 0.602502 0.199015
C41   C     C_R   0.497708 0.062840 0.620655 0.070078
C42   C     C_R   0.497910 0.130157 0.497915 -0.087250
C43   C     C_R   0.496114 0.063786 0.370806 -0.138385
H9    H     H_    0.495456 0.110881 0.271367 0.214065
C44   C     C_R   0.495547 0.934559 0.371307 -0.084105
H10   H     H_    0.494085 0.886160 0.272283 0.211687
C45   C     C_R   0.497118 0.869741 0.498737 -0.064317
C46   C     C_R   0.496963 0.938558 0.621159 0.042917
C47   C     C_3   0.498753 0.930270 0.776542 -0.432885
C48   C     C_3   0.499950 0.072342 0.776198 0.153045
H11   H     H_    0.465031 0.889287 0.820265 0.202670
H12   H     H_    0.532356 0.889231 0.814817 0.282403
H13   H     H_    0.467781 0.114609 0.823475 0.148451
C49   C     C_R   0.524119 0.591135 0.074606 0.075138
N3    N     N_R   0.500300 0.500930 0.147930 -0.266813
C50   C     C_R   0.472942 0.415489 0.070506 0.512436
C51   C     C_R   0.473166 0.416933 0.923021 0.063130
H14   H     H_    0.452218 0.348284 0.865356 0.195699
N4    N     N_R   0.500310 0.500890 0.852020 -0.258125
C52   C     C_R   0.524849 0.589664 0.926840 0.134434
C53   C     C_3   0.578129 0.612515 0.923280 0.135067
C54   C     C_3   0.576939 0.619071 0.082047 0.151689
H15   H     H_    0.598482 0.532892 0.883382 0.119947
H16   H     H_    0.597446 0.544677 0.131491 0.083240
N5    N     N_R   0.355438 0.349887 0.699762 0.161901
O13   O     O_R   0.349226 0.365850 0.833200 -0.272161
O14   O     O_R   0.383830 0.264394 0.656365 -0.367226
N6    N     N_R   0.975115 0.736650 0.777438 0.144163
O15   O     O_R   0.005375 0.688457 0.864364 -0.304728
O16   O     O_R   0.965636 0.853051 0.788934 -0.237527
O17   O     O_3   0.877652 0.756710 0.738823 -0.589261
H17   H     H_    0.860612 0.805356 0.667437 0.368656
N7    N     N_R   0.253300 0.349937 0.708737 0.173670
O18   O     O_R   0.263702 0.235439 0.730752 -0.216484
O19   O     O_R   0.218520 0.398674 0.778826 -0.303896
N8    N     N_R   0.545829 0.125509 0.826489 0.168845
O20   O     O_R   0.586374 0.095020 0.769874 -0.283662
O21   O     O_R   0.546378 0.201646 0.931783 -0.348329
O22   O     O_3   0.445920 0.321951 0.129982 -0.704588
H18   H     H_    0.437572 0.345779 0.225161 0.375396
O23   O     O_3   0.590981 0.724597 0.859981 -0.633564
H19   H     H_    0.591681 0.707964 0.758087 0.346376
N9    N     N_R   0.587591 0.741880 0.140768 0.200155
O24   O     O_R   0.563820 0.837343 0.100506 -0.303380
O25   O     O_R   0.619906 0.755427 0.238637 -0.335383
O26   O     O_3   0.125711 0.146407 0.461047 -0.606502
H20   H     H_    0.106433 0.076554 0.499038 0.369366
N10   N     N_R   0.741533 0.408971 0.762815 0.158028
O27   O     O_R   0.719496 0.422097 0.881440 -0.310693
O28   O     O_R   0.782110 0.351816 0.761223 -0.298885
N11   N     N_R   0.023737 0.134552 0.475179 0.088724
O29   O     O_R   0.029639 0.055684 0.374193 -0.326626
O30   O     O_R   0.994732 0.106423 0.577160 -0.291340
N12   N     N_R   0.351448 0.643208 0.302732 0.158975
O31   O     O_R   0.334078 0.653589 0.177002 -0.285797
O32   O     O_R   0.384926 0.721085 0.344662 -0.345332

loop_
_geom_bond_atom_site_label_1
_geom_bond_atom_site_label_2
_geom_bond_distance
_ccdc_geom_bond_type
C7    H4    1.083404 S    
Cu1   N4    2.023342 S    
C17   C29   1.405731 A    
N9    O25   1.300058 A    
C47   C48   1.541640 S    
C54   N9    1.466707 S    
C12   C15   1.410993 A    
C8    N12   1.437669 S    
N7    O18   1.301234 A    
Cu1   Cu2   2.693448 S    
C9    N5    1.435939 S    
C53   C54   1.521841 S    
C27   O10   1.349956 S    
N1    C11   1.438736 S    
N4    C52   1.364304 A    
C20   C24   1.417377 A    
C19   C38   1.422564 A    
C24   C25   1.413216 A    
C22   C23   1.398527 A    
C14   C36   1.418814 A    
C26   N2    1.368863 A    
O7    C4    1.299664 A    
C54   H16   1.107289 S    
C5    C13   1.414905 A    
N11   O29   1.301918 A    
C5    N1    1.369238 A    
C36   N11   1.437497 S    
C28   C29   1.403187 A    
C44   C45   1.412389 A    
O5    C3    1.295996 A    
N12   O31   1.301331 A    
N8    O20   1.302315 A    
N7    O19   1.301238 A    
O26   H20   0.988772 S    
C2    C16   1.476919 S    
O17   H17   0.991809 S    
N11   O30   1.301384 A    
C48   H13   1.112412 S    
Cu2   N3    2.023995 S    
N9    O24   1.302220 A    
N5    O14   1.301322 A    
C14   O26   1.383779 S    
C29   H1    1.081386 S    
N2    C32   1.436728 S    
C49   C54   1.492494 S    
C42   C43   1.411107 A    
C10   N7    1.437659 S    
C9    C10   1.409045 A    
C17   C30   1.400431 A    
C47   H11   1.111389 S    
C39   O17   1.375368 S    
C19   C35   1.420962 A    
O3    Cu1   1.948460 S    
C53   O23   1.400599 S    
N10   O28   1.301165 A    
N10   O27   1.301675 A    
C51   N4    1.355277 A    
Cu1   O7    1.950052 S    
C33   C36   1.426127 A    
C53   H15   1.112105 S    
C31   H7    1.083094 S    
C21   H3    1.078607 S    
C35   C40   1.409774 A    
C50   O22   1.374456 S    
C43   H9    1.083097 S    
C12   C34   1.415382 A    
C18   C33   1.423512 A    
C12   C13   1.410685 A    
O3    C2    1.300052 A    
N2    C27   1.365105 A    
C49   N3    1.366430 A    
C50   C51   1.412170 A    
C48   N8    1.464223 S    
C3    C45   1.441640 S    
C38   C39   1.405557 A    
C28   N10   1.441150 S    
C51   H14   1.081411 S    
C41   C48   1.493079 S    
O1    C1    1.294159 A    
C23   C24   1.410775 A    
C40   H8    1.079814 S    
C7    C11   1.397071 A    
C30   C31   1.391520 A    
C25   C26   1.416189 A    
C33   C34   1.413475 A    
Cu2   O8    1.948455 S    
N8    O21   1.300116 A    
N1    C6    1.366086 A    
C52   C53   1.495535 S    
C25   C39   1.417544 A    
C26   O12   1.348488 S    
C34   C35   1.419657 A    
C9    C16   1.419037 A    
O8    C4    1.305193 A    
C37   H5    1.083467 S    
C47   H12   1.106723 S    
C1    C42   1.439404 S    
C4    C17   1.476885 S    
C31   C32   1.400176 A    
Cu1   O5    1.969731 S    
C18   C21   1.409174 A    
O1    Cu1   1.967616 S    
C19   C20   1.412775 A    
O2    Cu2   1.969733 S    
C6    C15   1.400173 A    
C46   C47   1.491427 S    
O6    C3    1.292595 A    
O4    Cu2   1.950055 S    
C41   C46   1.348665 A    
C8    C16   1.416489 A    
O23   H19   0.991553 S    
C22   H2    1.083387 S    
C7    C8    1.397651 A    
O2    C1    1.293413 A    
C13   C14   1.413532 A    
C45   C46   1.386777 A    
C18   C20   1.420498 A    
N6    O16   1.301534 A    
O4    C2    1.302140 A    
C37   C40   1.387761 A    
N6    O15   1.301573 A    
C21   C22   1.387975 A    
C23   C27   1.399782 A    
C15   C37   1.398726 A    
C44   H10   1.081656 S    
N12   O32   1.301444 A    
C6    O11   1.349972 S    
N3    C50   1.392510 A    
C49   C52   1.414903 A    
Cu2   O6    1.967615 S    
C41   C42   1.386754 A    
O22   H18   0.976581 S    
C28   C32   1.414527 A    
C10   C11   1.408659 A    
C43   C44   1.402407 A    
N5    O13   1.301217 A    
C38   N6    1.439084 S    
C5    O9    1.349204 S    
C30   H6    1.075969 S    
