data_mof_unit_18643.cif
_audit_creation_date              2012-12-10T18:11:40-0500
_audit_creation_method            fapswitch 2.2
_symmetry_space_group_name_H-M    P1
_symmetry_Int_Tables_number       1
_space_group_crystal_system       triclinic
_cell_length_a                    10.508184
_cell_length_b                    12.599805
_cell_length_c                    13.069036
_cell_angle_alpha                 82.740326
_cell_angle_beta                  90.69337
_cell_angle_gamma                 102.221303
_cell_volume                      1677.39144313

loop_
_atom_site_label
_atom_site_type_symbol
_atom_type_description
_atom_site_fract_x
_atom_site_fract_y
_atom_site_fract_z
_atom_type_partial_charge
C1    C     C_R   0.478103 0.439143 0.692155 0.915639
C2    C     C_R   0.412812 0.452524 0.974209 0.103936
C3    C     C_R   0.413172 0.477627 0.865985 0.033258
C4    C     C_R   0.742180 0.500242 0.500487 0.892439
C5    C     C_R   0.418726 0.538305 0.035397 0.058624
C6    C     C_R   0.443194 0.647666 0.988607 0.128624
C7    C     C_R   0.416306 0.668521 0.884416 -0.222298
C8    C     C_R   0.389302 0.581725 0.825706 -0.158565
C9    C     C_R   0.410366 0.519272 0.142133 -0.070041
C10   C     C_R   0.523673 0.706598 0.151313 -0.030113
C11   C     C_R   0.445900 0.401996 0.802913 -0.279911
C12   C     C_3   0.066579 0.596094 0.528132 -0.184993
C13   C     C_R   0.304114 0.083180 0.358518 -0.292605
C14   C     C_R   0.655750 0.800332 0.629014 0.022697
C15   C     C_R   0.690906 0.905888 0.655257 -0.260762
C16   C     C_R   0.506158 0.560892 0.308438 0.860116
C17   C     C_R   0.633987 0.987656 0.604638 -0.178368
C18   C     C_R   0.540681 0.963700 0.527425 0.022017
C19   C     C_R   0.508085 0.854642 0.503716 0.237209
C20   C     C_R   0.476309 0.042458 0.474819 -0.018449
C21   C     C_R   0.376330 0.009223 0.404190 0.184771
C22   C     C_R   0.348547 0.902371 0.380531 -0.272792
C23   C     C_3   0.963651 0.512412 0.595132 0.019945
C24   C     C_R   0.415391 0.826844 0.428268 -0.194488
C25   C     C_R   0.505415 0.153255 0.490120 0.035906
C26   C     C_R   0.332342 0.189487 0.382368 0.010097
C27   C     C_R   0.257703 0.499558 0.500379 0.841136
C28   C     C_3   0.933962 0.404012 0.474989 -0.127648
C29   C     C_3   0.022019 0.416466 0.570281 -0.191154
C30   C     C_3   0.122541 0.499682 0.501453 0.011296
C31   C     C_3   0.037191 0.487304 0.406475 -0.169302
C32   C     C_3   0.978380 0.583144 0.433021 -0.195766
C33   C     C_1   0.298755 0.439702 0.187241 0.164537
C34   C     C_3   0.877385 0.500072 0.501389 -0.019897
C35   C     C_1   0.918988 0.525958 0.697690 0.172619
C36   C     C_1   0.594116 0.793505 0.205268 0.209776
C37   C     C_R   0.493411 0.732307 0.047408 -0.229964
C38   C     C_R   0.482076 0.597378 0.199778 -0.167583
C39   C     C_R   0.458774 0.296080 0.850279 0.484588
C40   C     C_R   0.440888 0.269347 0.956646 -0.200547
C41   C     C_R   0.422803 0.346716 0.018012 -0.269798
H1    H     H_    0.044269 0.349217 0.626364 0.156538
H2    H     H_    0.876602 0.325780 0.453064 0.156936
H3    H     H_    0.663438 0.067879 0.628521 0.185442
H4    H     H_    0.761866 0.924287 0.714716 0.167991
H5    H     H_    0.391776 0.746970 0.404894 0.211643
H6    H     H_    0.070916 0.478137 0.328769 0.160885
H7    H     H_    0.956315 0.650678 0.377217 0.151679
H8    H     H_    0.124034 0.674173 0.550360 0.159686
H9    H     H_    0.417447 0.751063 0.848382 0.159714
H10   H     H_    0.517084 0.816495 0.010992 0.163268
H11   H     H_    0.555996 0.037660 0.823740 0.374693
H12   H     H_    0.425326 0.323933 0.100420 0.176051
H13   H     H_    0.450097 0.189831 0.994310 0.209946
H14   H     H_    0.357120 0.599400 0.747843 0.180984
H15   H     H_    0.273829 0.246064 0.352222 0.161987
H16   H     H_    0.274709 0.876928 0.324770 0.157771
H17   H     H_    0.225207 0.058507 0.306613 0.155607
H18   H     H_    0.583628 0.186920 0.538106 0.167028
H19   H     H_    0.699967 0.736407 0.667714 0.153577
N1    N     N_R   0.432930 0.222190 0.444670 -0.107352
N2    N     N_R   0.566370 0.776980 0.554790 -0.134583
N3    N     N_1   0.207177 0.377315 0.220486 -0.242144
N4    N     N_1   0.883490 0.536596 0.778478 -0.186616
N5    N     N_1   0.650814 0.863359 0.248230 -0.191110
O1    O     O_R   0.467970 0.366730 0.627150 -0.522801
O2    O     O_2   0.632004 0.247487 0.724301 -0.344360
O3    O     O_3   0.534830 0.090477 0.867478 -0.580121
O4    O     O_R   0.510820 0.544830 0.662520 -0.635830
O5    O     O_R   0.664630 0.410960 0.482340 -0.618784
O6    O     O_R   0.707470 0.589060 0.517710 -0.619473
O7    O     O_R   0.489180 0.455170 0.337480 -0.607737
O8    O     O_R   0.532030 0.633270 0.372850 -0.628471
O9    O     O_R   0.292530 0.410940 0.482290 -0.615820
O10   O     O_R   0.335370 0.589040 0.517660 -0.661340
O11   O     O_2   0.402580 0.154110 0.711668 -0.313540
S1    S     S_3+6 0.508109 0.196422 0.784024 -0.006332
Zn1   Zn    Zn3+2 0.471390 0.381080 0.476380 1.001765
Zn2   Zn    Zn3+2 0.528610 0.618920 0.523620 0.929040

loop_
_geom_bond_atom_site_label_1
_geom_bond_atom_site_label_2
_ccdc_geom_bond_type
C29   H1    S    
O5    Zn1   S    
O2    S1    D    
C22   H16   S    
C4    O5    A    
C12   H8    S    
C7    C8    A    
C12   C23   S    
C10   C37   A    
C23   C29   S    
C28   C29   S    
C26   N1    A    
C5    C6    A    
C37   H10   S    
C20   C25   A    
C2    C41   A    
C14   N2    A    
C18   C19   A    
O7    Zn1   S    
C16   O7    A    
C35   N4    T    
C27   O9    A    
H11   O3    S    
C28   C34   S    
C31   H6    S    
C21   C22   A    
C12   C32   S    
C27   C30   S    
C9    C33   S    
C32   H7    S    
C27   O10   A    
C8    H14   S    
O6    Zn2   S    
C17   C18   A    
O1    Zn1   S    
C4    C34   S    
C16   O8    A    
N2    Zn2   S    
O11   S1    D    
C3    C8    A    
C39   C40   A    
C36   N5    T    
C13   H17   S    
C1    O4    A    
C32   C34   S    
C5    C9    A    
C29   C30   S    
C31   C32   S    
N1    Zn1   S    
C33   N3    T    
C23   C34   S    
C1    O1    A    
O8    Zn2   S    
C6    C37   A    
C13   C21   A    
C25   N1    A    
C11   C39   A    
C41   H12   S    
C40   C41   A    
C23   C35   S    
C22   C24   A    
C13   C26   A    
O4    Zn2   S    
C2    C5    A    
C15   H4    S    
C39   S1    S    
O3    S1    S    
C15   C17   A    
C19   N2    A    
C12   C30   S    
C28   C31   S    
C7    H9    S    
C26   H15   S    
C6    C7    A    
C14   H19   S    
C28   H2    S    
C40   H13   S    
C10   C38   A    
C24   H5    S    
C2    C3    A    
C17   H3    S    
C30   C31   S    
C9    C38   A    
C19   C24   A    
C18   C20   A    
C3    C11   A    
C20   C21   A    
O9    Zn1   S    
C14   C15   A    
C10   C36   S    
C1    C11   S    
C25   H18   S    
O10   Zn2   S    
C4    O6    A    
C16   C38   S    
