data_mof_unit_33613.cif
_audit_creation_date              2012-12-10T20:31:56-0500
_audit_creation_method            fapswitch 2.2
_symmetry_space_group_name_H-M    P1
_symmetry_Int_Tables_number       1
_space_group_crystal_system       triclinic
_cell_length_a                    9.893494
_cell_length_b                    10.711282
_cell_length_c                    15.641017
_cell_angle_alpha                 90.785932
_cell_angle_beta                  68.38862
_cell_angle_gamma                 89.154391
_cell_volume                      1540.49765201

loop_
_atom_site_label
_atom_site_type_symbol
_atom_type_description
_atom_site_fract_x
_atom_site_fract_y
_atom_site_fract_z
_atom_type_partial_charge
C1    C     C_R   0.501381 0.739915 0.496528 0.909558
C2    C     C_R   0.409774 0.497155 0.914908 -0.027481
C3    C     C_R   0.261988 0.478651 0.968629 -0.023252
C4    C     C_R   0.509165 0.526195 0.957540 0.004696
C5    C     C_R   0.468262 0.508722 0.052746 0.107391
C6    C     C_R   0.320652 0.483617 0.105423 -0.155801
C7    C     C_R   0.218476 0.472573 0.063928 -0.055429
C8    C     C_R   0.644035 0.580892 0.908550 -0.176535
C9    C     C_R   0.742320 0.608198 0.950118 0.722443
C10   C     C_R   0.710384 0.578241 0.042046 -0.250912
C11   C     C_R   0.574824 0.523476 0.092510 -0.048945
C12   C     C_R   0.409535 0.494032 0.675566 0.954083
C13   C     C_R   0.809160 0.604117 0.085591 0.575919
C14   C     C_R   0.775234 0.573854 0.177420 0.500618
C15   C     C_R   0.549398 0.485083 0.181593 -0.276912
C16   C     C_R   0.388688 0.938225 0.481244 0.127767
C17   C     C_R   0.510302 0.870733 0.480249 -0.195035
C18   C     C_R   0.642813 0.931398 0.460920 -0.269072
C19   C     C_R   0.644658 0.060703 0.460948 0.623740
C20   C     C_R   0.513082 0.128022 0.480578 -0.258100
C21   C     C_R   0.389889 0.065753 0.481877 0.119223
C22   C     C_3   0.236891 0.077071 0.549248 -0.353633
C23   C     C_R   0.503203 0.259911 0.496246 0.898930
C24   C     C_3   0.235671 0.936104 0.548084 -0.497782
C25   C     C_R   0.913868 0.606217 0.522932 0.000202
C26   C     C_R   0.950799 0.402350 0.463473 -0.123111
C27   C     C_R   0.095438 0.403279 0.461865 0.663949
C28   C     C_R   0.053647 0.604071 0.526945 -0.153396
C29   C     C_3   0.998654 0.667737 0.619274 0.511423
C30   C     C_3   0.852105 0.681158 0.609823 0.445853
C31   C     C_R   0.590533 0.501051 0.324790 0.938295
C32   C     C_R   0.354663 0.482972 0.776300 -0.389216
C33   C     C_R   0.644124 0.515135 0.225570 -0.265080
C34   C     C_R   0.161131 0.464306 0.925626 -0.186564
C35   C     C_R   0.206035 0.472041 0.830091 0.649434
C36   C     C_R   0.455508 0.481122 0.819802 0.546180
N1    N     N_R   0.856900 0.500860 0.500610 -0.083064
N2    N     N_R   0.142540 0.500820 0.500610 -0.105457
O1    O     O_R   0.385310 0.683210 0.499990 -0.627793
O2    O     O_R   0.614650 0.683240 0.500000 -0.622564
O3    O     O_R   0.319830 0.499970 0.632240 -0.543298
O4    O     O_R   0.549170 0.500000 0.632250 -0.492291
O5    O     O_R   0.385350 0.316760 0.500000 -0.571565
O6    O     O_R   0.614690 0.316790 0.500010 -0.575876
O7    O     O_R   0.450830 0.500000 0.367750 -0.613378
O8    O     O_R   0.680170 0.500030 0.367760 -0.571852
Zn1   Zn    Zn3+2 0.346870 0.499980 0.499990 1.061407
Zn2   Zn    Zn3+2 0.653130 0.500020 0.500010 1.081533
H1    H     H_    0.105740 0.457308 0.106380 0.183197
F1    F     F_    0.934995 0.664145 0.041264 -0.583928
H2    H     H_    0.742371 0.880075 0.452206 0.200288
F2    F     F_    0.771578 0.118002 0.448941 -0.657268
H3    H     H_    0.228909 0.118370 0.616633 0.206637
H4    H     H_    0.161615 0.118865 0.519119 0.267340
H5    H     H_    0.227042 0.895752 0.614990 0.219171
H6    H     H_    0.161707 0.898270 0.515588 0.204216
H7    H     H_    0.914621 0.322928 0.434985 0.217577
F3    F     F_    0.187295 0.306728 0.420930 -0.671205
F4    F     F_    0.995536 0.587047 0.688163 -0.496669
H8    H     H_    0.454311 0.432299 0.218910 0.206050
H9    H     H_    0.048406 0.757597 0.623321 0.003844
F5    F     F_    0.743304 0.621246 0.677027 -0.569182
H10   H     H_    0.822453 0.778394 0.598547 0.009285
F6    F     F_    0.867189 0.606916 0.219931 -0.631424
F7    F     F_    0.868741 0.663300 0.899509 -0.547518
H11   H     H_    0.047691 0.448482 0.965807 0.191109
F8    F     F_    0.105546 0.460903 0.790726 -0.543777
F9    F     F_    0.596033 0.446296 0.771520 -0.571896
H12   H     H_    0.279297 0.479529 0.179495 0.157273
H13   H     H_    0.671447 0.610677 0.838965 0.277627

loop_
_geom_bond_atom_site_label_1
_geom_bond_atom_site_label_2
_ccdc_geom_bond_type
C8    C9    A    
C6    H12   S    
C2    C4    A    
C31   C33   S    
C26   N1    A    
C29   C30   S    
C35   F8    S    
C24   H6    S    
C15   H8    S    
C19   F2    S    
C8    H13   S    
C19   C20   A    
C1    O2    A    
C20   C23   S    
C28   N2    A    
C4    C8    A    
C14   F6    S    
C34   H11   S    
C14   C33   A    
C30   F5    S    
C17   C18   A    
O3    Zn1   S    
C24   H5    S    
C10   C13   A    
C16   C24   S    
C29   H9    S    
O4    Zn2   S    
C21   C22   S    
C12   C32   S    
N1    Zn2   S    
C7    H1    S    
N2    Zn1   S    
C6    C7    A    
C11   C15   A    
C32   C36   A    
C9    C10   A    
O1    Zn1   S    
C28   C29   S    
C18   H2    S    
C5    C11   A    
C22   H3    S    
C3    C7    A    
C1    C17   S    
O7    Zn1   S    
C26   C27   A    
C5    C6    A    
C26   H7    S    
C22   C24   S    
O8    Zn2   S    
C10   C11   A    
C1    O1    A    
C27   N2    A    
C12   O4    A    
C13   F1    S    
C32   C35   A    
O6    Zn2   S    
C4    C5    A    
C31   O8    A    
C23   O5    A    
C20   C21   A    
C9    F7    S    
C12   O3    A    
C22   H4    S    
C34   C35   A    
C31   O7    A    
C2    C36   A    
C25   C30   S    
O2    Zn2   S    
C16   C21   A    
C18   C19   A    
C2    C3    A    
C3    C34   A    
C25   N1    A    
C30   H10   S    
O5    Zn1   S    
C36   F9    S    
C15   C33   A    
C13   C14   A    
C23   O6    A    
C29   F4    S    
C16   C17   A    
C25   C28   A    
C27   F3    S    
