data_mof_unit_43579.cif
_audit_creation_date              2012-12-11T15:08:40-0500
_audit_creation_method            fapswitch 2.2
_symmetry_space_group_name_H-M    P1
_symmetry_Int_Tables_number       1
_space_group_crystal_system       triclinic
_cell_length_a                    26.811229
_cell_length_b                    7.075554
_cell_length_c                    11.943398
_cell_angle_alpha                 89.999869
_cell_angle_beta                  103.331041
_cell_angle_gamma                 90.001017
_cell_volume                      2204.6622308

loop_
_atom_site_label
_atom_site_type_symbol
_atom_type_description
_atom_site_fract_x
_atom_site_fract_y
_atom_site_fract_z
_atom_type_partial_charge
O1    O     O_R   0.437360 0.505910 0.042120 -0.537547
O2    O     O_R   0.562640 0.005910 0.957880 -0.537545
O3    O     O_R   0.542480 0.176660 0.157100 -0.552994
O4    O     O_R   0.457520 0.676660 0.842900 -0.553000
C1    C     C_R   0.557216 0.344370 0.197618 0.762775
C2    C     C_R   0.442784 0.844369 0.802383 0.762754
O5    O     O_R   0.436520 0.176250 0.054800 -0.529284
O6    O     O_R   0.563480 0.676250 0.945200 -0.529285
O7    O     O_R   0.455920 0.005040 0.854840 -0.526865
O8    O     O_R   0.544080 0.505040 0.145160 -0.526881
C3    C     C_R   0.417428 0.344802 0.063727 0.696727
C4    C     C_R   0.582572 0.844806 0.936271 0.696710
O9    O     O_3   0.506490 0.338900 0.934520 -0.375508
O10   O     O_3   0.493510 0.838900 0.065480 -0.375511
V1    V     V_3+5 0.498800 0.064400 0.012150 1.521147
V2    V     V_3+5 0.501200 0.564400 0.987850 1.521121
C5    C     C_R   0.681502 0.879734 0.756932 -0.160685
C6    C     C_R   0.318498 0.379682 0.243070 -0.160689
H1    H     H_    0.682191 0.896816 0.667033 0.173307
H2    H     H_    0.317810 0.396743 0.332971 0.173308
C7    C     C_R   0.631892 0.853227 0.901855 -0.048423
C8    C     C_R   0.368108 0.353213 0.098143 -0.048424
C9    C     C_R   0.867770 0.839130 0.211264 -0.220866
C10   C     C_R   0.132229 0.339183 0.788731 -0.220874
C11   C     C_R   0.821865 0.821529 0.245928 -0.005021
C12   C     C_R   0.178133 0.321602 0.754065 -0.005023
C13   C     C_R   0.775160 0.824743 0.164491 -0.175736
C14   C     C_R   0.224839 0.324798 0.835501 -0.175732
C15   C     C_R   0.773290 0.842280 0.045275 0.080288
C16   C     C_R   0.226710 0.342297 0.954720 0.080291
C17   C     C_R   0.820619 0.856123 0.010702 0.048998
C18   C     C_R   0.179380 0.356123 0.989295 0.049004
C19   C     C_R   0.726128 0.847865 0.959597 0.027191
C20   C     C_R   0.273872 0.347861 0.040399 0.027189
C21   C     C_R   0.727504 0.865824 0.841541 0.090824
C22   C     C_R   0.272496 0.365794 0.158458 0.090838
C23   C     C_R   0.774551 0.872923 0.808675 0.325518
C24   C     C_R   0.225449 0.372893 0.191323 0.325489
C25   C     C_R   0.820382 0.868577 0.893129 -0.247951
C26   C     C_R   0.179618 0.368557 0.106869 -0.247953
C27   C     C_R   0.677424 0.838476 0.987030 -0.153316
C28   C     C_R   0.322575 0.338479 0.012965 -0.153321
C29   C     C_R   0.634149 0.876769 0.786454 -0.057585
C30   C     C_R   0.365851 0.376726 0.213547 -0.057586
C31   C     C_R   0.867644 0.857004 0.094767 -0.060382
C32   C     C_R   0.132355 0.357018 0.905230 -0.060391
H3    H     H_    0.673243 0.821885 0.074022 0.112051
H4    H     H_    0.326757 0.321904 0.925971 0.112072
H5    H     H_    0.903851 0.837528 0.275129 0.134797
H6    H     H_    0.096147 0.337594 0.724867 0.134815
H7    H     H_    0.741144 0.813313 0.197432 0.106706
H8    H     H_    0.258855 0.313387 0.802559 0.106702
H9    H     H_    0.856093 0.876723 0.865707 0.108122
H10   H     H_    0.143908 0.376697 0.134293 0.108129
C33   C     C_R   0.091313 0.856789 0.312092 -0.082214
C34   C     C_R   0.908690 0.356773 0.687904 -0.082205
C35   C     C_R   0.408387 0.851505 0.687161 -0.071271
C36   C     C_R   0.591614 0.351509 0.312839 -0.071200
C37   C     C_R   0.109551 0.758808 0.510876 -0.231455
C38   C     C_R   0.890447 0.258658 0.489144 -0.231452
C39   C     C_R   0.074412 0.779437 0.404709 0.340340
C40   C     C_R   0.925586 0.279322 0.595308 0.340258
C41   C     C_R   0.142751 0.908416 0.325065 -0.281076
C42   C     C_R   0.857253 0.408423 0.674920 -0.281059
C43   C     C_R   0.180156 0.860050 0.425184 0.110935
C44   C     C_R   0.819846 0.360009 0.574811 0.110935
C45   C     C_R   0.161740 0.798451 0.521465 0.122581
C46   C     C_R   0.838260 0.298344 0.478542 0.122574
C47   C     C_R   0.234760 0.870818 0.434296 0.063189
C48   C     C_R   0.765243 0.370791 0.565697 0.063201
C49   C     C_R   0.268082 0.858976 0.546790 0.051883
C50   C     C_R   0.731921 0.358914 0.453208 0.051878
C51   C     C_R   0.247349 0.804011 0.640308 -0.187997
C52   C     C_R   0.752654 0.303896 0.359702 -0.188023
C53   C     C_R   0.195477 0.773110 0.627553 -0.167860
C54   C     C_R   0.804523 0.272979 0.372460 -0.167828
C55   C     C_R   0.257871 0.873989 0.337100 -0.058307
C56   C     C_R   0.742133 0.374001 0.662892 -0.058313
C57   C     C_R   0.311729 0.868473 0.353184 -0.093079
C58   C     C_R   0.688276 0.368504 0.646808 -0.093077
C59   C     C_R   0.343606 0.860210 0.464716 0.030006
C60   C     C_R   0.656399 0.360232 0.535276 0.029992
C61   C     C_R   0.322193 0.877398 0.562102 -0.016202
C62   C     C_R   0.677810 0.377355 0.437893 -0.016161
C63   C     C_R   0.396633 0.825155 0.481402 -0.121917
C64   C     C_R   0.603371 0.325228 0.518590 -0.121934
C65   C     C_R   0.427560 0.807411 0.591523 -0.212331
C66   C     C_R   0.572442 0.307486 0.408473 -0.212414
C67   C     C_R   0.356537 0.900545 0.672610 0.276506
C68   C     C_R   0.643465 0.400474 0.327389 0.276544
H11   H     H_    0.181722 0.726856 0.701585 0.137342
H12   H     H_    0.818279 0.226682 0.298435 0.137336
H13   H     H_    0.467041 0.765060 0.601919 0.171793
H14   H     H_    0.532961 0.265180 0.398078 0.171824
H15   H     H_    0.096436 0.706461 0.584492 0.114562
H16   H     H_    0.903560 0.206258 0.415540 0.114578
H17   H     H_    0.152132 0.988745 0.256222 0.144736
H18   H     H_    0.847871 0.488793 0.743745 0.144731
H19   H     H_    0.271337 0.769455 0.723498 0.172995
H20   H     H_    0.728667 0.269308 0.276526 0.172991
H21   H     H_    0.414250 0.801764 0.409697 0.156912
H22   H     H_    0.585756 0.301886 0.590292 0.156922
O11   O     O_R   0.955980 0.206520 0.854760 -0.531558
O12   O     O_R   0.044020 0.706520 0.145240 -0.531554
O13   O     O_R   0.063490 0.536770 0.945200 -0.541074
O14   O     O_R   0.936510 0.036770 0.054800 -0.541069
C69   C     C_R   0.082685 0.368032 0.937221 0.701570
C70   C     C_R   0.917315 0.868029 0.062778 0.701577
O15   O     O_R   0.957530 0.536190 0.842880 -0.550140
O16   O     O_R   0.042470 0.036190 0.157120 -0.550131
O17   O     O_R   0.937350 0.707210 0.042130 -0.535631
O18   O     O_R   0.062650 0.207210 0.957870 -0.535636
C71   C     C_R   0.943285 0.367716 0.802247 0.764273
C72   C     C_R   0.056716 0.867718 0.197752 0.764282
O19   O     O_3   0.993540 0.373870 0.065440 -0.375198
O20   O     O_3   0.006460 0.873870 0.934560 -0.375214
V3    V     V_3+5 0.001200 0.648440 0.987860 1.480529
V4    V     V_3+5 0.998800 0.148440 0.012140 1.480545
C73   C     C_1   0.588620 0.903441 0.696496 0.269180
N1    N     N_1   0.552534 0.926651 0.623372 -0.384014
C74   C     C_1   0.411381 0.403384 0.303507 0.269174
N2    N     N_1   0.447469 0.426583 0.376631 -0.384051
O21   O     O_3   0.341568 0.978810 0.765590 -0.657877
H23   H     H_    0.312285 0.064541 0.735679 0.284978
O22   O     O_3   0.658433 0.478636 0.234412 -0.657931
H24   H     H_    0.687721 0.564338 0.264281 0.284998
C75   C     C_1   0.334365 0.868980 0.253368 0.296902
N3    N     N_1   0.352267 0.869464 0.173958 -0.330051
C76   C     C_1   0.665640 0.369034 0.746623 0.296898
N4    N     N_1   0.647738 0.369534 0.826034 -0.330049
O23   O     O_3   0.023473 0.729940 0.390210 -0.659374
H25   H     H_    0.018097 0.677109 0.463444 0.292712
O24   O     O_3   0.976520 0.229777 0.609821 -0.659403
H26   H     H_    0.981865 0.176516 0.536690 0.292772
C77   C     C_1   0.228492 0.853163 0.219330 0.308013
N5    N     N_1   0.205755 0.836450 0.124864 -0.362565
C78   C     C_1   0.771514 0.353193 0.780663 0.308015
N6    N     N_1   0.794251 0.336493 0.875130 -0.362557
O25   O     O_3   0.774946 0.887263 0.693313 -0.646925
H27   H     H_    0.810867 0.894560 0.685071 0.309107
O26   O     O_3   0.225054 0.387223 0.306685 -0.646935
H28   H     H_    0.189137 0.394564 0.314919 0.309135
C79   C     C_1   0.822631 0.801865 0.366369 0.306577
N7    N     N_1   0.823248 0.786711 0.463127 -0.345802
C80   C     C_1   0.177367 0.301966 0.633622 0.306611
N8    N     N_1   0.176749 0.286831 0.536862 -0.345777

loop_
_geom_bond_atom_site_label_1
_geom_bond_atom_site_label_2
_ccdc_geom_bond_type
C44   C46   A    
C41   C43   A    
C9    C31   A    
C48   C56   A    
C50   C52   A    
C69   O18   A    
C65   H13   S    
C47   C55   A    
O1    C3    A    
O2    C4    A    
O16   V4    S    
C2    O7    A    
C80   N8    T    
O15   V3    S    
O21   H23   S    
C8    C28   A    
O5    C3    A    
O13   C69   A    
C52   C54   A    
C1    C36   S    
C40   O24   S    
O11   C71   A    
C10   C12   A    
C76   N4    T    
C19   C21   A    
C56   C58   A    
C9    H5    S    
C13   C15   A    
C79   N7    T    
C15   C19   A    
C30   C74   S    
O20   V3    S    
C38   C40   A    
C47   C49   A    
C63   H21   S    
C37   C45   A    
C7    C29   A    
C8    C30   A    
O20   V4    S    
C20   C28   A    
O19   V3    S    
C33   C41   A    
C34   C71   S    
C34   C42   A    
O16   C72   A    
C6    H2    S    
C31   C70   S    
O15   C71   A    
C34   C40   A    
C42   H18   S    
O22   H24   S    
O6    V2    S    
C24   C26   A    
O14   V4    S    
C51   C53   A    
C2    C35   S    
O13   V3    S    
C11   C79   S    
C37   H15   S    
C12   C14   A    
C59   C61   A    
C13   H7    S    
C49   C61   A    
C63   C65   A    
C10   H6    S    
C61   C67   A    
O25   H27   S    
C66   H14   S    
C37   C39   A    
C16   C20   A    
C77   N5    T    
C58   C60   A    
C49   C51   A    
C52   H20   S    
O5    V1    S    
C67   O21   S    
C43   C45   A    
C60   C64   A    
C4    C7    S    
C35   C65   A    
C42   C44   A    
O4    V2    S    
C12   C80   S    
C5    C29   A    
C6    C30   A    
O18   V4    S    
O6    C4    A    
O19   V4    S    
C32   C69   S    
C27   H3    S    
C55   C57   A    
O1    V2    S    
C28   H4    S    
O2    V1    S    
C36   C68   A    
C38   C46   A    
C74   N2    T    
C50   C62   A    
C35   C67   A    
C54   H12   S    
C7    C27   A    
C38   H16   S    
O4    C2    A    
C60   C62   A    
C17   C31   A    
O24   H26   S    
C24   O26   S    
O12   C72   A    
O11   V4    S    
C46   C54   A    
C75   N3    T    
C64   H22   S    
C56   C78   S    
O3    V1    S    
C57   C59   A    
O12   V3    S    
C62   C68   A    
C51   H19   S    
C57   C75   S    
C58   C76   S    
C21   C23   A    
C18   C32   A    
C41   H17   S    
O3    C1    A    
C36   C66   A    
C73   N1    T    
C33   C72   S    
C53   H11   S    
C11   C13   A    
C5    C21   A    
C78   N6    T    
C44   C48   A    
C3    C8    S    
C26   H10   S    
C70   O17   A    
O17   V3    S    
C19   C27   A    
C14   C16   A    
O7    V1    S    
C10   C32   A    
C1    O8    A    
C15   C17   A    
O8    V2    S    
O26   H28   S    
C16   C18   A    
C14   H8    S    
C25   H9    S    
O14   C70   A    
C43   C47   A    
C33   C39   A    
C22   C24   A    
C5    H1    S    
C68   O22   S    
C17   C25   A    
C64   C66   A    
C18   C26   A    
C39   O23   S    
C9    C11   A    
C45   C53   A    
C20   C22   A    
C23   C25   A    
C23   O25   S    
O9    V2    S    
O10   V1    S    
C48   C50   A    
C55   C77   S    
C6    C22   A    
C59   C63   A    
O23   H25   S    
C29   C73   S    
