data_mof_unit_61727.cif
_audit_creation_date              2013-03-05T16:52:49-0500
_audit_creation_method            fapswitch 2.2
_symmetry_space_group_name_H-M    P1
_symmetry_Int_Tables_number       1
_space_group_crystal_system       triclinic
_cell_length_a                    22.423433
_cell_length_b                    22.44159
_cell_length_c                    15.093779
_cell_angle_alpha                 90.009547
_cell_angle_beta                  90.002585
_cell_angle_gamma                 89.999817
_cell_volume                      7595.45346644

loop_
_atom_site_label
_atom_site_type_symbol
_atom_site_description
_atom_site_fract_x
_atom_site_fract_y
_atom_site_fract_z
_atom_type_partial_charge
O1    O     O_R   0.061000 0.439020 0.573650 -0.594791
O2    O     O_R   0.939000 0.560980 0.426350 -0.593902
O3    O     O_R   0.939000 0.560980 0.573650 -0.594498
O4    O     O_R   0.061000 0.439020 0.426350 -0.593588
O5    O     O_R   0.939000 0.439020 0.426350 -0.589305
O6    O     O_R   0.061000 0.560980 0.573650 -0.587402
O7    O     O_R   0.061000 0.560980 0.426350 -0.589036
O8    O     O_R   0.939000 0.439020 0.573650 -0.587123
O9    O     O_R   0.561000 0.939020 0.573650 -0.590385
O10   O     O_R   0.439000 0.060980 0.426350 -0.590325
O11   O     O_R   0.439000 0.060980 0.573650 -0.586804
O12   O     O_R   0.561000 0.939020 0.426350 -0.586796
O13   O     O_R   0.439000 0.939020 0.426350 -0.598665
O14   O     O_R   0.561000 0.060980 0.573650 -0.598949
O15   O     O_R   0.561000 0.060980 0.426350 -0.588962
O16   O     O_R   0.439000 0.939020 0.573650 -0.589247
C1    C     C_R   0.080425 0.419380 0.499995 0.885055
C2    C     C_R   0.919575 0.580619 0.500005 0.885056
C3    C     C_R   0.919583 0.419386 0.499995 0.886154
C4    C     C_R   0.080417 0.580614 0.500008 0.886151
C5    C     C_R   0.580410 0.919379 0.499994 0.886204
C6    C     C_R   0.419590 0.080621 0.500005 0.886210
C7    C     C_R   0.419581 0.919375 0.499993 0.885209
C8    C     C_R   0.580419 0.080626 0.500004 0.885212
Zn1   Zn    Zn3+2 0.000000 0.500000 0.598370 1.110501
Zn2   Zn    Zn3+2 0.000000 0.500000 0.401630 1.109541
Zn3   Zn    Zn3+2 0.500000 0.000000 0.598370 1.109439
Zn4   Zn    Zn3+2 0.500000 0.000000 0.401630 1.109783
C9    C     C_R   0.966351 0.457293 0.952771 0.207136
C10   C     C_R   0.033872 0.542530 0.047227 0.206450
C11   C     C_R   0.033648 0.542706 0.952796 0.207092
C12   C     C_R   0.966127 0.457470 0.047202 0.206400
C13   C     C_R   0.529011 0.954015 0.952783 0.205191
C14   C     C_R   0.470988 0.045985 0.047217 0.205235
C15   C     C_R   0.469459 0.044986 0.952805 0.206206
C16   C     C_R   0.530541 0.955015 0.047195 0.206281
C17   C     C_R   1.000000 0.500000 0.905034 -0.257886
C18   C     C_R   1.000000 0.500000 0.094964 -0.257465
C19   C     C_R   0.498367 0.998935 0.905063 -0.255142
C20   C     C_R   0.501633 0.001066 0.094937 -0.255084
C21   C     C_R   0.227183 0.728803 0.581507 0.192504
C22   C     C_R   0.774339 0.269639 0.418614 0.192641
C23   C     C_R   0.772981 0.271070 0.581470 0.192505
C24   C     C_R   0.225474 0.730510 0.418664 0.192622
C25   C     C_R   0.774453 0.730556 0.418665 0.198950
C26   C     C_R   0.225990 0.269896 0.581383 0.199550
C27   C     C_R   0.227181 0.271094 0.418528 0.199375
C28   C     C_R   0.772359 0.728437 0.581479 0.199894
C29   C     C_R   0.725499 0.230613 0.581366 0.199657
C30   C     C_R   0.272958 0.770965 0.418520 0.200131
C31   C     C_R   0.274665 0.769260 0.581355 0.198225
C32   C     C_R   0.726854 0.229184 0.418517 0.198704
C33   C     C_R   0.274670 0.230644 0.418626 0.193279
C34   C     C_R   0.724873 0.768890 0.581307 0.193005
C35   C     C_R   0.726966 0.771009 0.418486 0.192560
C36   C     C_R   0.273477 0.229444 0.581488 0.192336
C37   C     C_R   0.203180 0.709875 0.500155 -0.188052
C38   C     C_R   0.796810 0.290134 0.500090 -0.188062
C39   C     C_R   0.796571 0.709718 0.500156 -0.186617
C40   C     C_R   0.203421 0.290274 0.499907 -0.186606
C41   C     C_R   0.703045 0.210083 0.499894 -0.186149
C42   C     C_R   0.296944 0.789927 0.499868 -0.186163
C43   C     C_R   0.297193 0.210231 0.500105 -0.187874
C44   C     C_R   0.702801 0.789764 0.499815 -0.187864
C45   C     C_1   1.000000 0.500000 0.806998 0.360956
C46   C     C_1   1.000000 0.500000 0.193002 0.358559
C47   C     C_1   0.499405 0.999614 0.807004 0.357065
C48   C     C_1   0.500595 0.000386 0.192996 0.357481
N1    N     N_1   1.000000 0.500000 0.270550 -0.057702
N2    N     N_1   1.000000 0.500000 0.729450 -0.057415
N3    N     N_1   0.500000 0.000000 0.270550 -0.057980
N4    N     N_1   0.500000 0.000000 0.729450 -0.058074
C49   C     C_1   0.159572 0.664370 0.500095 0.171960
C50   C     C_1   0.840422 0.335636 0.500030 0.171975
C51   C     C_1   0.840267 0.664272 0.500084 0.172975
C52   C     C_1   0.159728 0.335723 0.499946 0.173022
C53   C     C_1   0.659484 0.164507 0.499960 0.172513
C54   C     C_1   0.340508 0.835500 0.499924 0.172519
C55   C     C_1   0.340673 0.164602 0.500059 0.171572
C56   C     C_1   0.659323 0.835395 0.499899 0.171526
C57   C     C_1   0.876642 0.374132 0.499994 -0.043097
C58   C     C_1   0.123355 0.625871 0.500039 -0.043106
C59   C     C_1   0.123437 0.374167 0.499978 -0.050960
C60   C     C_1   0.876560 0.625830 0.500029 -0.050976
C61   C     C_1   0.376680 0.874056 0.499969 -0.050964
C62   C     C_1   0.623316 0.125947 0.500001 -0.050977
C63   C     C_1   0.623230 0.874010 0.499965 -0.043887
C64   C     C_1   0.376768 0.125988 0.500023 -0.043849
N5    N     N_R   0.929801 0.415248 0.094362 0.249847
O17   O     O_R   0.873997 0.408158 0.073183 -0.224980
O18   O     O_R   0.952197 0.383872 0.158772 -0.289367
N6    N     N_R   0.066425 0.587735 0.905637 0.252231
O19   O     O_R   0.060482 0.643632 0.926803 -0.221372
O20   O     O_R   0.102155 0.573168 0.841247 -0.295965
N7    N     N_R   0.070198 0.584752 0.094413 0.249897
O21   O     O_R   0.126002 0.591842 0.073246 -0.224893
O22   O     O_R   0.047802 0.616129 0.158834 -0.289065
N8    N     N_R   0.933575 0.412264 0.905585 0.252271
O23   O     O_R   0.939519 0.356368 0.926724 -0.221193
O24   O     O_R   0.897844 0.426831 0.841198 -0.295700
N9    N     N_R   0.559749 0.907657 0.094498 0.251584
O25   O     O_R   0.548573 0.852325 0.074764 -0.223210
O26   O     O_R   0.597064 0.919559 0.158116 -0.291760
N10   N     N_R   0.440254 0.092345 0.905502 0.251659
O27   O     O_R   0.451430 0.147677 0.925240 -0.222886
O28   O     O_R   0.402942 0.080446 0.841880 -0.292178
N11   N     N_R   0.439280 0.091708 0.094542 0.249646
O29   O     O_R   0.384089 0.103720 0.074765 -0.224831
O30   O     O_R   0.465135 0.121040 0.158235 -0.286980
N12   N     N_R   0.560717 0.908291 0.905458 0.249579
O31   O     O_R   0.615908 0.896278 0.925233 -0.225083
O32   O     O_R   0.534860 0.878957 0.841768 -0.286588
N13   N     N_R   0.795211 0.294678 0.663772 0.256424
O33   O     O_R   0.852209 0.295470 0.679956 -0.281568
O34   O     O_R   0.758475 0.315768 0.722691 -0.230702
N14   N     N_R   0.201689 0.708494 0.336347 0.254815
O35   O     O_R   0.144407 0.707990 0.322523 -0.279835
O36   O     O_R   0.237288 0.688569 0.275040 -0.232764
N15   N     N_R   0.205130 0.705054 0.663809 0.256288
O37   O     O_R   0.148166 0.704224 0.680245 -0.281648
O38   O     O_R   0.241993 0.683870 0.722473 -0.230827
N16   N     N_R   0.797947 0.291797 0.336282 0.254683
O39   O     O_R   0.855199 0.292331 0.322199 -0.279973
O40   O     O_R   0.762214 0.311822 0.275222 -0.232858
N17   N     N_R   0.204838 0.294538 0.336217 0.251179
O41   O     O_R   0.147823 0.295192 0.320155 -0.299782
O42   O     O_R   0.241488 0.315527 0.277112 -0.245615
N18   N     N_R   0.794245 0.704526 0.663764 0.251578
O43   O     O_R   0.851168 0.703782 0.680518 -0.303639
O44   O     O_R   0.757267 0.683202 0.722150 -0.244415
N19   N     N_R   0.798455 0.708788 0.336359 0.251131
O45   O     O_R   0.855768 0.708422 0.322831 -0.299593
O46   O     O_R   0.763019 0.689040 0.274711 -0.245587
N20   N     N_R   0.202445 0.292130 0.663705 0.251482
O47   O     O_R   0.145209 0.292573 0.677929 -0.303564
O48   O     O_R   0.238220 0.312227 0.724667 -0.244499
N21   N     N_R   0.298480 0.791231 0.663667 0.251630
O49   O     O_R   0.355768 0.791712 0.677436 -0.295405
O50   O     O_R   0.262903 0.811078 0.725059 -0.244655
N22   N     N_R   0.704586 0.205631 0.336216 0.251642
O51   O     O_R   0.647580 0.204877 0.320096 -0.295626
O52   O     O_R   0.741293 0.184615 0.277199 -0.244764
N23   N     N_R   0.701860 0.208504 0.663693 0.250828
O53   O     O_R   0.644603 0.208007 0.677725 -0.302947
O54   O     O_R   0.737568 0.188553 0.724838 -0.247453
N24   N     N_R   0.295049 0.794657 0.336218 0.250886
O55   O     O_R   0.352019 0.795429 0.319833 -0.303293
O56   O     O_R   0.258215 0.815776 0.277461 -0.247467
N25   N     N_R   0.705090 0.794949 0.336199 0.256122
O57   O     O_R   0.648157 0.795871 0.319529 -0.279526
O58   O     O_R   0.742080 0.816238 0.277801 -0.233068
N26   N     N_R   0.295806 0.205967 0.663802 0.256163
O59   O     O_R   0.352829 0.205134 0.679789 -0.279468
O60   O     O_R   0.259139 0.185011 0.722912 -0.233193
N27   N     N_R   0.298209 0.208385 0.336300 0.254284
O61   O     O_R   0.355454 0.207773 0.322154 -0.280009
O62   O     O_R   0.262426 0.188324 0.275323 -0.235614
N28   N     N_R   0.700880 0.790685 0.663618 0.254311
O63   O     O_R   0.643559 0.791226 0.677071 -0.279830
O64   O     O_R   0.736327 0.810396 0.725279 -0.235761

loop_
_geom_bond_atom_site_label_1
_geom_bond_atom_site_label_2
_geom_bond_distance
_ccdc_geom_bond_type
O1    Zn1   1.970482 S    
C5    C63   1.399491 S    
N9    O25   1.301279 A    
C4    C58   1.399485 S    
O2    C2    1.272715 A    
C44   C56   1.413902 S    
N7    O21   1.301252 A    
C38   C50   1.413892 S    
N18   O43   1.301312 A    
C22   C38   1.406254 A    
N10   O28   1.301300 A    
C43   C55   1.413903 S    
O10   C6    1.272606 A    
C28   C34   1.399270 A    
N21   O50   1.301302 A    
C22   N16   1.439453 S    
C13   C19   1.416813 A    
O7    Zn2   1.970463 S    
C9    N8    1.438144 S    
O12   Zn4   1.970545 S    
C14   C20   1.416812 A    
C14   N11   1.438208 S    
Zn1   N2    1.978494 S    
N22   O52   1.301303 A    
C14   C15   1.425620 A    
C9    C12   1.425336 A    
C32   C41   1.406326 A    
N25   O58   1.301298 A    
C10   C11   1.425337 A    
C51   C60   1.185982 T    
C46   N1    1.170495 T    
C34   N28   1.439464 S    
C37   C49   1.413893 S    
C45   N2    1.170491 T    
N8    O23   1.301245 A    
C13   C16   1.425621 A    
N14   O35   1.301339 A    
O13   C7    1.272688 A    
O3    C2    1.272676 A    
C47   N4    1.170687 T    
O14   C8    1.272723 A    
N12   O31   1.301288 A    
C55   C64   1.185743 T    
C24   C30   1.399266 A    
C23   C38   1.406260 A    
C27   C40   1.406325 A    
C18   C46   1.479762 S    
C41   C53   1.414288 S    
C33   N27   1.439462 S    
C17   C45   1.479743 S    
C2    C60   1.399908 S    
N11   O29   1.301288 A    
O13   Zn4   1.970574 S    
C35   N25   1.439464 S    
C6    C64   1.399489 S    
O14   Zn3   1.970573 S    
N5    O18   1.301274 A    
C27   C33   1.399275 A    
C30   N24   1.439273 S    
O16   Zn3   1.970464 S    
N9    O26   1.301298 A    
N28   O64   1.301313 A    
O8    Zn1   1.970464 S    
N11   O30   1.301311 A    
C31   C42   1.406314 A    
C52   C59   1.185984 T    
N10   O27   1.301278 A    
O11   Zn3   1.970543 S    
C27   N17   1.439272 S    
N24   O56   1.301309 A    
N15   O38   1.301308 A    
O8    C3    1.272572 A    
C29   C41   1.406312 A    
N24   O55   1.301311 A    
O3    Zn1   1.970543 S    
N22   O51   1.301317 A    
C15   N10   1.438193 S    
C23   C29   1.399272 A    
N20   O48   1.301312 A    
O12   C5    1.272561 A    
C40   C52   1.414280 S    
C11   C17   1.416782 A    
C16   N9    1.438191 S    
C1    C59   1.399907 S    
C15   C19   1.416789 A    
C10   N7    1.438153 S    
C26   N20   1.439267 S    
C12   N5    1.438148 S    
C16   C20   1.416787 A    
C24   C37   1.406244 A    
C9    C17   1.416777 A    
C35   C44   1.406251 A    
N6    O20   1.301273 A    
C36   C43   1.406247 A    
O2    Zn2   1.970480 S    
C21   N15   1.439456 S    
N27   O62   1.301314 A    
C25   C35   1.399279 A    
O4    C1    1.272683 A    
C31   N21   1.439292 S    
C54   C61   1.185986 T    
O15   C8    1.272669 A    
N26   O60   1.301297 A    
C53   C62   1.185984 T    
C11   N6    1.438143 S    
O16   C7    1.272704 A    
N8    O24   1.301279 A    
C20   C48   1.480352 S    
N17   O41   1.301316 A    
C30   C42   1.406323 A    
Zn4   N3    1.978494 S    
C36   N26   1.439465 S    
C50   C57   1.185743 T    
N16   O40   1.301308 A    
N19   O45   1.301309 A    
C39   C51   1.414278 S    
C49   C58   1.185741 T    
O9    Zn3   1.970482 S    
C28   C39   1.406332 A    
N13   O33   1.301337 A    
O10   Zn4   1.970480 S    
N23   O54   1.301308 A    
C25   C39   1.406319 A    
C26   C40   1.406322 A    
C19   C47   1.480352 S    
C42   C54   1.414286 S    
N19   O46   1.301312 A    
N18   O44   1.301298 A    
O4    Zn2   1.970545 S    
N15   O37   1.301335 A    
N7    O22   1.301276 A    
C25   N19   1.439272 S    
N20   O47   1.301309 A    
O5    C3    1.272607 A    
C56   C63   1.185744 T    
O6    C4    1.272563 A    
N21   O49   1.301317 A    
O11   C6    1.272577 A    
O1    C1    1.272707 A    
C12   C18   1.416790 A    
N5    O17   1.301256 A    
C21   C37   1.406269 A    
N25   O57   1.301341 A    
C23   N13   1.439461 S    
C33   C43   1.406244 A    
O9    C5    1.272621 A    
O15   Zn4   1.970463 S    
N28   O63   1.301337 A    
C34   C44   1.406237 A    
C28   N18   1.439268 S    
C48   N3    1.170687 T    
C29   N23   1.439277 S    
N6    O19   1.301247 A    
C32   N22   1.439290 S    
N14   O36   1.301302 A    
N12   O32   1.301312 A    
O5    Zn2   1.970574 S    
O6    Zn1   1.970573 S    
N26   O59   1.301342 A    
C24   N14   1.439459 S    
O7    C4    1.272615 A    
C7    C61   1.399914 S    
C26   C36   1.399272 A    
N27   O61   1.301339 A    
N17   O42   1.301297 A    
Zn2   N1    1.978494 S    
C13   N12   1.438206 S    
C10   C18   1.416785 A    
N16   O39   1.301335 A    
C3    C57   1.399483 S    
C8    C62   1.399914 S    
C21   C31   1.399286 A    
Zn3   N4    1.978494 S    
N23   O53   1.301310 A    
C22   C32   1.399281 A    
N13   O34   1.301301 A    
