data_mof_unit_61181.cif
_audit_creation_date              2012-10-26T18:13:58-0400
_audit_creation_method            fapswitch 2.2
_symmetry_space_group_name_H-M    P1
_symmetry_Int_Tables_number       1
_space_group_crystal_system       triclinic
_cell_length_a                    21.607408
_cell_length_b                    21.657342
_cell_length_c                    22.136839
_cell_angle_alpha                 60.714009
_cell_angle_beta                  119.639441
_cell_angle_gamma                 90.433397
_cell_volume                      7468.25213832

loop_
_atom_site_label
_atom_site_type_symbol
_atom_type_description
_atom_site_fract_x
_atom_site_fract_y
_atom_site_fract_z
_atom_type_partial_charge
C1    C     C_R   0.620512 0.499455 0.501190 0.536165
C2    C     C_3   0.795017 0.421436 0.520862 0.137605
C3    C     C_3   0.670465 0.565419 0.415708 -0.214751
C4    C     C_R   0.420002 0.579921 0.339911 0.548988
C5    C     C_3   0.750716 0.506104 0.571326 -0.252063
C6    C     C_3   0.689207 0.499131 0.500862 -0.045212
C7    C     C_3   0.810407 0.498003 0.499838 0.003045
C8    C     C_3   0.739777 0.561670 0.411793 0.066431
C9    C     C_3   0.818484 0.513582 0.564659 -0.241190
C10   C     C_3   0.746498 0.181130 0.027865 -0.089783
C11   C     C_3   0.678317 0.251351 0.971698 -0.096602
C12   C     C_3   0.291818 0.708167 0.082780 0.037153
C13   C     C_1   0.624890 0.375331 0.750113 -0.003386
C14   C     C_1   0.874571 0.126837 0.249893 0.042849
C15   C     C_3   0.775850 0.222486 0.972331 -0.091501
C16   C     C_R   0.378796 0.500977 0.497182 0.537882
C17   C     C_3   0.708380 0.292012 0.917577 0.040051
C18   C     C_3   0.820773 0.250790 0.028366 -0.091241
C19   C     C_3   0.790713 0.210149 0.082481 0.039412
C20   C     C_3   0.752608 0.321002 0.972221 -0.090169
C21   C     C_3   0.723245 0.279656 0.027741 -0.093175
C22   C     C_1   0.662552 0.337728 0.825675 -0.032331
C23   C     C_3   0.239387 0.705532 0.970837 -0.048867
C24   C     C_1   0.836674 0.164521 0.174352 -0.019384
C25   C     C_3   0.268219 0.452365 0.465922 -0.196591
C26   C     C_3   0.195745 0.453982 0.464322 0.060337
C27   C     C_3   0.332921 0.465299 0.587842 -0.211998
C28   C     C_R   0.580035 0.420041 0.660154 0.544727
C29   C     C_3   0.256125 0.579948 0.439970 -0.241952
C30   C     C_3   0.310239 0.499713 0.497428 -0.035778
C31   C     C_3   0.189946 0.498856 0.500253 0.037612
C32   C     C_3   0.263264 0.460395 0.591202 0.087848
C33   C     C_3   0.187533 0.579711 0.444720 -0.201561
C34   C     C_3   0.208997 0.791238 0.917128 -0.032251
C35   C     C_R   0.999853 0.880029 0.500090 0.649276
C36   C     C_R   0.080150 0.920727 0.660125 0.588173
C37   C     C_R   0.999538 0.120497 0.498730 0.516589
C38   C     C_R   0.919817 0.081532 0.339848 0.586116
C39   C     C_R   0.000991 0.379774 0.499603 0.564178
C40   C     C_3   0.285676 0.796302 0.972290 -0.091500
C41   C     C_R   0.879473 0.499180 0.499798 0.560328
C42   C     C_R   0.993407 0.619894 0.499870 0.617677
C43   C     C_R   0.120655 0.499598 0.500274 0.575124
C44   C     C_3   0.060241 0.788171 0.489685 0.129159
C45   C     C_3   0.215591 0.704223 0.026572 0.205952
C46   C     C_3   0.049167 0.722680 0.478298 0.065015
C47   C     C_3   0.006937 0.745708 0.581291 0.096580
C48   C     C_3   0.920088 0.825832 0.423014 0.054222
C49   C     C_3   0.998751 0.811447 0.499651 -0.106117
C50   C     C_3   0.992999 0.689187 0.499472 -0.061619
C51   C     C_3   0.019739 0.671790 0.587888 0.074654
C52   C     C_3   0.261114 0.793891 0.028406 -0.167862
C53   C     C_3   0.912862 0.749525 0.433869 0.062029
C54   C     C_3   0.056610 0.169937 0.587381 -0.278892
C55   C     C_3   0.057695 0.241263 0.587274 -0.308204
C56   C     C_3   0.183601 0.789847 0.971603 -0.130807
C57   C     C_3   0.021468 0.243585 0.439121 -0.194377
C58   C     C_3   0.920445 0.230594 0.466429 -0.191827
C59   C     C_3   0.999450 0.189726 0.497962 -0.030240
C60   C     C_3   0.999816 0.311653 0.497558 0.034476
C61   C     C_3   0.023021 0.314895 0.439301 0.129780
C62   C     C_3   0.921393 0.299649 0.470654 0.112657
C63   C     C_1   0.375244 0.624559 0.250089 0.042993
C64   C     C_1   0.125257 0.875730 0.749946 0.057769
C65   C     C_3   0.315917 0.710391 0.027365 0.245478
C66   C     C_1   0.337649 0.662209 0.174616 0.056322
C67   C     C_1   0.163088 0.837617 0.825406 -0.001586
C68   C     C_3   0.720452 0.425514 0.514494 -0.180552
Cl1   Cl    Cl    0.717911 0.551301 0.328071 -0.474166
Cl2   Cl    Cl    0.968511 0.394940 0.332938 -0.414321
Cl3   Cl    Cl    0.116444 0.489429 0.359915 -0.498237
Cl4   Cl    Cl    0.264647 0.496786 0.649155 -0.468402
Cl5   Cl    Cl    0.154674 0.770781 0.570747 -0.377206
Cl6   Cl    Cl    0.136217 0.653298 0.535935 -0.485166
Cl7   Cl    Cl    0.853578 0.757243 0.336187 -0.440529
Cl8   Cl    Cl    0.972483 0.615173 0.630839 -0.564193
Cl9   Cl    Cl    0.843330 0.378522 0.374722 -0.448956
Cl10  Cl    Cl    0.404101 0.657639 0.064772 -0.479652
Cu1   Cu    Cu3+1 0.500030 0.437550 0.499970 1.017330
Cu2   Cu    Cu3+1 0.499970 0.562450 0.500030 0.997078
Cu3   Cu    Cu3+1 0.062480 0.999860 0.500010 1.095603
Cu4   Cu    Cu3+1 0.937520 0.999990 0.499990 1.045213
Cu5   Cu    Cu3+1 0.041430 0.458600 0.582880 1.165577
Cu6   Cu    Cu3+1 0.958570 0.541400 0.417120 1.268300
H1    H     H_    0.270395 0.829786 0.052653 0.144734
H2    H     H_    0.619236 0.252064 0.947413 0.134591
H3    H     H_    0.314611 0.834458 0.949088 0.157661
H4    H     H_    0.744516 0.123095 0.051793 0.134331
H5    H     H_    0.702102 0.302684 0.051509 0.144890
H6    H     H_    0.754648 0.379010 0.948375 0.144896
H7    H     H_    0.879854 0.250074 0.052653 0.142393
H8    H     H_    0.797007 0.199448 0.948579 0.139908
H9    H     H_    0.304750 0.393569 0.508071 0.123486
H10   H     H_    0.255505 0.473637 0.402669 0.203529
H11   H     H_    0.198115 0.395798 0.504369 0.102387
H12   H     H_    0.788570 0.412397 0.473021 0.192581
H13   H     H_    0.373793 0.408522 0.630272 0.104229
H14   H     H_    0.128323 0.822432 0.947988 0.143362
H15   H     H_    0.268182 0.400553 0.628230 0.124992
H16   H     H_    0.284653 0.616369 0.458933 0.171228
H17   H     H_    0.237681 0.604240 0.374108 0.160322
H18   H     H_    0.135666 0.609252 0.380294 0.192179
H19   H     H_    0.187112 0.611777 0.470920 0.216518
H20   H     H_    0.361770 0.499566 0.610536 0.196622
H21   H     H_    0.053136 0.835643 0.432105 0.195925
H22   H     H_    0.025294 0.744169 0.411786 0.196052
H23   H     H_    0.621817 0.565063 0.363802 0.188626
H24   H     H_    0.080373 0.639958 0.632344 0.272718
H25   H     H_    0.875452 0.847406 0.425607 0.144527
H26   H     H_    0.880019 0.730806 0.461879 0.144240
H27   H     H_    0.951566 0.758113 0.571427 0.155111
H28   H     H_    0.113575 0.140582 0.611204 0.144128
H29   H     H_    0.230085 0.669375 0.946901 0.173270
H30   H     H_    0.041551 0.131548 0.630640 0.138059
H31   H     H_    0.044934 0.235772 0.632308 0.181476
H32   H     H_    0.115042 0.246589 0.610120 0.126584
H33   H     H_    0.077871 0.216221 0.459836 0.130915
H34   H     H_    0.728969 0.555621 0.566846 0.157658
H35   H     H_    0.081381 0.317670 0.465145 0.123346
H36   H     H_    0.879467 0.246617 0.401213 0.185998
H37   H     H_    0.901543 0.192745 0.505564 0.139614
H38   H     H_    0.911683 0.288959 0.519323 0.169189
H39   H     H_    0.981278 0.257064 0.374850 0.174332
H40   H     H_    0.678981 0.422086 0.461166 0.155886
H41   H     H_    0.727484 0.377239 0.571767 0.199913
H42   H     H_    0.060495 0.708637 0.945261 0.343722
H43   H     H_    0.146862 0.643843 0.809925 0.378767
H44   H     H_    0.798359 0.977689 0.199726 0.363927
H45   H     H_    0.768558 0.456238 0.633548 0.172229
H46   H     H_    0.879244 0.221247 0.682538 0.376198
H47   H     H_    0.870947 0.475900 0.627535 0.230549
H48   H     H_    0.821876 0.571030 0.544436 0.143093
H49   H     H_    0.653300 0.618718 0.407579 0.131350
H50   H     H_    0.750931 0.616095 0.394655 0.169949
O1    O     O_R   0.591180 0.447260 0.499980 -0.510720
O2    O     O_R   0.965090 0.443800 0.430050 -0.403215
O3    O     O_R   0.943830 0.465050 0.569970 -0.465345
O4    O     O_R   0.591140 0.552730 0.500040 -0.509095
O5    O     O_R   0.873850 0.534970 0.430000 -0.458724
O6    O     O_R   0.034910 0.556200 0.569950 -0.447166
O7    O     O_R   0.964930 0.626120 0.429980 -0.469735
O8    O     O_R   0.126150 0.465040 0.570000 -0.485313
O9    O     O_R   0.056170 0.534950 0.430030 -0.472159
O10   O     O_R   0.439570 0.507730 0.379050 -0.479762
O11   O     O_R   0.439520 0.613200 0.379110 -0.508477
O12   O     O_R   0.947190 0.908860 0.499960 -0.508472
O13   O     O_R   0.408860 0.447270 0.499960 -0.512488
O14   O     O_R   0.408820 0.552740 0.500020 -0.508221
O15   O     O_R   0.560480 0.386800 0.620890 -0.501734
O16   O     O_R   0.560430 0.492270 0.620950 -0.496579
O17   O     O_R   0.052720 0.908740 0.499970 -0.429561
O18   O     O_2   0.217849 0.563887 0.116562 -0.196484
O19   O     O_2   0.152336 0.658620 0.113181 -0.247348
O20   O     O_3   0.088126 0.654924 0.980256 -0.442700
O21   O     O_2   0.126175 0.777326 0.678750 -0.225482
O22   O     O_2   0.025294 0.764562 0.700149 -0.271822
O23   O     O_R   0.113220 0.939420 0.620930 -0.482790
O24   O     O_3   0.118273 0.644978 0.757789 -0.434872
O25   O     O_2   0.932565 0.958382 0.323950 -0.320061
O26   O     O_2   0.930177 0.867139 0.289606 -0.236131
O27   O     O_3   0.806169 0.935551 0.252185 -0.452339
O28   O     O_2   0.938387 0.327309 0.624479 -0.287062
O29   O     O_2   0.883736 0.342560 0.692461 -0.281542
O30   O     O_3   0.837139 0.265059 0.628819 -0.530806
O31   O     O_R   0.007690 0.939530 0.620920 -0.489923
O32   O     O_R   0.052810 0.090990 0.500040 -0.530176
O33   O     O_R   0.947280 0.091100 0.500030 -0.527690
O34   O     O_R   0.992310 0.060320 0.379080 -0.490792
O35   O     O_R   0.886780 0.060430 0.379070 -0.500888
O36   O     O_R   0.035070 0.373890 0.570020 -0.527739
S1    S     S_3+6 0.168671 0.642902 0.062630 0.065945
S2    S     S_3+6 0.070883 0.735410 0.680501 0.074882
S3    S     S_3+6 0.899639 0.898090 0.320579 0.032687
S4    S     S_3+6 0.867651 0.338726 0.620337 -0.021845

loop_
_geom_bond_atom_site_label_1
_geom_bond_atom_site_label_2
_ccdc_geom_bond_type
C44   C49   S    
C61   Cl2   S    
C15   C18   S    
C58   C62   S    
C23   C45   S    
C61   H35   S    
Cu4   O33   S    
O26   S3    D    
C62   Cl9   S    
C43   O9    A    
C2    C7    S    
C56   H14   S    
C3    C6    S    
C68   H40   S    
C47   S2    S    
C7    C8    S    
C47   C49   S    
C21   H5    S    
C44   H21   S    
C28   O16   A    
C4    C63   S    
C10   H4    S    
C8    Cl1   S    
C31   C43   S    
C13   C22   T    
C16   O13   A    
C34   C40   S    
C18   H7    S    
C40   H3    S    
C52   H1    S    
C19   C21   S    
C39   O36   A    
C2    C68   S    
C10   C15   S    
C5    C6    S    
C47   H27   S    
C57   C59   S    
C57   H39   S    
C55   H32   S    
C4    O11   A    
C11   H2    S    
C16   C30   S    
Cu5   O36   S    
C29   C33   S    
C27   H20   S    
C25   C30   S    
C17   C20   S    
Cu5   O3    S    
C60   C62   S    
C18   C19   S    
C14   C24   T    
C36   O31   A    
Cu4   O12   S    
C15   H8    S    
O21   S2    D    
C53   H26   S    
C11   C17   S    
Cu5   Cu6   S    
Cu6   O5    S    
C51   H24   S    
C35   C49   S    
Cu3   O32   S    
C31   C33   S    
C13   C28   S    
O30   S4    S    
C10   C19   S    
C41   O3    A    
C34   C56   S    
C39   O2    A    
C6    C68   S    
C48   H25   S    
C63   C66   T    
C26   C31   S    
C55   C60   S    
C27   C30   S    
C26   Cl3   S    
C53   Cl7   S    
C20   H6    S    
C35   O17   A    
C45   S1    S    
Cu5   O6    S    
C12   C52   S    
C44   C46   S    
Cu3   Cu4   S    
C54   C59   S    
C9    H47   S    
C48   C53   S    
C37   O33   A    
C50   C53   S    
Cu3   O23   S    
C8    H50   S    
C33   H18   S    
C64   C67   T    
Cu4   O35   S    
C51   Cl8   S    
C45   C56   S    
C32   Cl4   S    
C3    C8    S    
O18   S1    D    
Cu1   O13   S    
Cu6   O9    S    
C3    H23   S    
C25   C26   S    
C40   C52   S    
C12   C66   S    
C11   C21   S    
C1    C6    S    
C60   C61   S    
C3    H49   S    
C35   O12   A    
Cu2   O16   S    
C5    C9    S    
C29   C30   S    
C14   C38   S    
O27   S3    S    
Cu1   O10   S    
H43   O24   S    
Cu2   O14   S    
C25   H9    S    
C23   C34   S    
O19   S1    D    
C42   O7    A    
C58   H36   S    
C50   C51   S    
C29   H17   S    
C46   Cl6   S    
C37   C59   S    
C36   O23   A    
C42   C50   S    
H42   O20   S    
C48   C49   S    
C40   C65   S    
C62   H38   S    
C38   O35   A    
C57   H33   S    
C48   S3    S    
C9    H48   S    
H46   O30   S    
C26   H11   S    
C15   C17   S    
C54   C55   S    
Cu6   O2    S    
C58   H37   S    
C65   Cl10  S    
C29   H16   S    
C27   C32   S    
C33   H19   S    
C31   C32   S    
C12   C45   S    
C34   C67   S    
C4    O10   A    
Cu5   O8    S    
C47   C51   S    
C57   C61   S    
C37   O32   A    
O28   S4    D    
Cu1   O1    S    
C12   C65   S    
C46   C50   S    
C17   C22   S    
C32   H15   S    
Cu1   O15   S    
C5    H34   S    
C16   O14   A    
C23   C65   S    
C42   O6    A    
C2    H12   S    
C19   C24   S    
C58   C59   S    
C25   H10   S    
Cu3   O17   S    
C2    S4    S    
C27   H13   S    
O24   S2    S    
C38   O34   A    
C55   H31   S    
Cu6   O7    S    
Cu2   O4    S    
C39   C60   S    
C54   H30   S    
C5    H45   S    
H44   O27   S    
Cu3   O34   S    
O22   S2    D    
O20   S1    S    
C18   C20   S    
C7    C41   S    
C44   Cl5   S    
C41   O5    A    
Cu2   O11   S    
C10   C11   S    
C46   H22   S    
Cu1   Cu2   S    
C7    C9    S    
C28   O15   A    
C20   C21   S    
O25   S3    D    
C1    O1    A    
C54   H28   S    
C43   O8    A    
C23   H29   S    
C36   C64   S    
O29   S4    D    
C68   H41   S    
C1    O4    A    
C52   C56   S    
Cu4   O31   S    
