data_mof_unit_25527.cif
_audit_creation_date              2012-12-10T17:02:56-0500
_audit_creation_method            fapswitch 2.2
_symmetry_space_group_name_H-M    P1
_symmetry_Int_Tables_number       1
_space_group_crystal_system       triclinic
_cell_length_a                    9.81066
_cell_length_b                    11.048716
_cell_length_c                    13.43729
_cell_angle_alpha                 94.174233
_cell_angle_beta                  82.122377
_cell_angle_gamma                 111.196989
_cell_volume                      1344.75143734

loop_
_atom_site_label
_atom_site_type_symbol
_atom_type_description
_atom_site_fract_x
_atom_site_fract_y
_atom_site_fract_z
_atom_type_partial_charge
C1    C     C_R   0.556520 0.745477 0.507230 0.869941
C2    C     C_R   0.438887 0.455550 0.967713 0.072007
C3    C     C_R   0.478091 0.446228 0.863124 0.077791
C4    C     C_R   0.550550 0.491147 0.032893 0.083684
C5    C     C_R   0.689810 0.483783 0.995696 0.127693
C6    C     C_R   0.720037 0.453392 0.894817 -0.234120
C7    C     C_R   0.615965 0.434359 0.829547 -0.179896
C8    C     C_R   0.529776 0.534778 0.133659 -0.074164
C9    C     C_R   0.759906 0.514970 0.163273 -0.151683
C10   C     C_R   0.374607 0.442434 0.796948 -0.102558
C11   C     C_2   0.588444 0.884567 0.511135 -0.346175
C12   C     C_R   0.421165 0.475224 0.689528 0.809530
C13   C     C_2   0.484259 0.930565 0.497869 -0.145925
C14   C     C_2   0.411645 0.115447 0.488679 -0.343113
C15   C     C_2   0.515917 0.069465 0.501760 -0.145414
C16   C     C_2   0.922071 0.489701 0.491629 -0.076875
C17   C     C_2   0.077288 0.509172 0.509165 -0.078571
C18   C     C_R   0.443513 0.254524 0.492694 0.864900
C19   C     C_R   0.578368 0.517798 0.309890 0.792242
C20   C     C_R   0.795905 0.502886 0.060554 -0.146266
C21   C     C_R   0.624173 0.525447 0.201133 -0.151890
C22   C     C_R   0.225505 0.407588 0.835405 -0.295834
C23   C     C_R   0.180924 0.383711 0.937783 0.048737
C24   C     C_R   0.287877 0.414872 0.004195 -0.074934
Cu1   Cu    Cu3+1 0.362000 0.479240 0.482530 0.942438
Cu2   Cu    Cu3+1 0.638000 0.520760 0.517470 0.943456
H1    H     H_    0.838279 0.515648 0.212988 0.176315
H2    H     H_    0.374620 0.865551 0.484058 0.181150
H3    H     H_    0.302160 0.050150 0.474961 0.154247
H4    H     H_    0.697893 0.949858 0.524937 0.153032
H5    H     H_    0.126295 0.576797 0.568207 0.162800
H6    H     H_    0.872461 0.420978 0.433347 0.167907
H7    H     H_    0.105916 0.385282 0.400079 0.203387
H8    H     H_    0.895258 0.616954 0.598399 0.196533
H9    H     H_    0.824307 0.443412 0.866139 0.130226
H10   H     H_    0.903996 0.501836 0.032454 0.162435
H11   H     H_    0.143286 0.394089 0.785226 0.149835
H12   H     H_    0.252848 0.400962 0.083852 0.167321
H13   H     H_    0.642642 0.400768 0.754669 0.179775
H14   H     H_    0.625590 0.134487 0.515490 0.179291
N1    N     N_2   0.845330 0.551960 0.543750 -0.291650
N2    N     N_2   0.154690 0.448120 0.456210 -0.287477
O1    O     O_R   0.426290 0.668220 0.490680 -0.583263
O2    O     O_R   0.659360 0.703290 0.520190 -0.566393
O3    O     O_R   0.326580 0.473880 0.629020 -0.576700
O4    O     O_R   0.559660 0.508940 0.658530 -0.584645
O5    O     O_R   0.340640 0.296710 0.479810 -0.569323
O6    O     O_R   0.573710 0.331780 0.509320 -0.586628
O7    O     O_R   0.440340 0.491060 0.341470 -0.591440
O8    O     O_R   0.673420 0.526120 0.370980 -0.570941
C25   C     C_2   0.436145 0.615829 0.162842 0.340692
H15   H     H_    0.412275 0.642974 0.240425 0.111505
O9    O     O_2   0.393844 0.662984 0.099283 -0.534080
C26   C     C_2   0.022662 0.323795 0.973844 0.324811
H16   H     H_    0.941593 0.300790 0.921305 0.064601
O10   O     O_2   0.980746 0.297380 0.062144 -0.548323

loop_
_geom_bond_atom_site_label_1
_geom_bond_atom_site_label_2
_ccdc_geom_bond_type
Cu1   N2    S    
C24   H12   S    
C23   C24   A    
C13   H2    S    
C6    C7    A    
Cu1   O3    S    
C16   H6    S    
Cu1   O5    S    
C9    C20   A    
C2    C4    A    
C1    C11   S    
Cu2   O6    S    
C4    C8    A    
C18   O5    A    
Cu1   O1    S    
C13   C15   S    
C2    C3    A    
Cu2   O2    S    
C3    C10   A    
Cu2   N1    S    
C10   C22   A    
C11   C13   D    
C8    C25   S    
C9    C21   A    
C16   C17   S    
H8    N1    S    
C10   C12   S    
H7    N2    S    
C19   C21   S    
C8    C21   A    
C3    C7    A    
Cu2   O8    S    
C2    C24   A    
C5    C6    A    
C17   H5    S    
C26   O10   D    
C15   H14   S    
Cu2   O4    S    
C14   H3    S    
C25   H15   S    
C20   H10   S    
C19   O8    A    
C6    H9    S    
C9    H1    S    
C23   C26   S    
C12   O4    A    
C26   H16   S    
C5    C20   A    
C14   C18   S    
C17   N2    D    
C4    C5    A    
C7    H13   S    
C1    O2    A    
Cu1   Cu2   S    
C14   C15   D    
C22   H11   S    
C19   O7    A    
C16   N1    D    
C1    O1    A    
C22   C23   A    
C11   H4    S    
C12   O3    A    
C25   O9    D    
Cu1   O7    S    
C18   O6    A    
