data_mof_unit_13023.cif
_audit_creation_date              2013-03-05T16:00:01-0500
_audit_creation_method            fapswitch 2.2
_symmetry_space_group_name_H-M    P1
_symmetry_Int_Tables_number       1
_space_group_crystal_system       triclinic
_cell_length_a                    26.125551
_cell_length_b                    7.255067
_cell_length_c                    23.762317
_cell_angle_alpha                 89.999977
_cell_angle_beta                  101.222803
_cell_angle_gamma                 90.000239
_cell_volume                      4417.84592608

loop_
_atom_site_label
_atom_site_type_symbol
_atom_site_description
_atom_site_fract_x
_atom_site_fract_y
_atom_site_fract_z
_atom_type_partial_charge
O1    O     O_R   0.192370 0.384760 0.193350 -0.588788
O2    O     O_R   0.807630 0.615240 0.806650 -0.588789
O3    O     O_R   0.307630 0.884760 0.306650 -0.588785
O4    O     O_R   0.692370 0.115240 0.693350 -0.588789
O5    O     O_R   0.296630 0.711620 0.196480 -0.555327
O6    O     O_R   0.703370 0.288380 0.803520 -0.555325
O7    O     O_R   0.203370 0.211620 0.303520 -0.555319
O8    O     O_R   0.796630 0.788380 0.696480 -0.555327
C1    C     C_R   0.311935 0.546130 0.183390 1.003151
C2    C     C_R   0.688065 0.453870 0.816610 1.003153
C3    C     C_R   0.188062 0.046130 0.316608 1.003153
C4    C     C_R   0.811936 0.953870 0.683391 1.003158
O9    O     O_R   0.192080 0.714290 0.186600 -0.568154
O10   O     O_R   0.807920 0.285710 0.813400 -0.568155
O11   O     O_R   0.307920 0.214290 0.313400 -0.568162
O12   O     O_R   0.692080 0.785710 0.686600 -0.568147
O13   O     O_R   0.202340 0.887460 0.296690 -0.588069
O14   O     O_R   0.797660 0.112540 0.703310 -0.588072
O15   O     O_R   0.297660 0.387460 0.203310 -0.588069
O16   O     O_R   0.702340 0.612540 0.796690 -0.588068
C5    C     C_R   0.173763 0.545930 0.171391 0.959329
C6    C     C_R   0.826237 0.454070 0.828609 0.959315
C7    C     C_R   0.326237 0.045930 0.328609 0.959319
C8    C     C_R   0.673763 0.954070 0.671391 0.959338
O17   O     O_3   0.253490 0.552180 0.286130 -0.259474
O18   O     O_3   0.746510 0.447820 0.713870 -0.259475
O19   O     O_3   0.246510 0.052180 0.213870 -0.259472
O20   O     O_3   0.753490 0.947820 0.786130 -0.259471
V1    V     V_3+5 0.249350 0.825920 0.243300 1.282871
V2    V     V_3+5 0.750650 0.174080 0.756700 1.282868
V3    V     V_3+5 0.250650 0.325920 0.256700 1.282870
V4    V     V_3+5 0.749350 0.674080 0.743300 1.282869
C9    C     C_3   0.527049 0.855403 0.490143 0.422529
C10   C     C_3   0.472951 0.144597 0.509857 0.422528
C11   C     C_3   0.972953 0.355393 0.009854 0.422544
C12   C     C_3   0.027047 0.644607 0.990146 0.422546
C13   C     C_3   0.514303 0.019355 0.448540 -0.256993
C14   C     C_3   0.485698 0.980645 0.551459 -0.256985
C15   C     C_3   0.985697 0.519337 0.051460 -0.256992
C16   C     C_3   0.014302 0.480663 0.948540 -0.257003
H1    H     H_    0.526427 0.032159 0.406457 0.193052
H2    H     H_    0.473573 0.967841 0.593542 0.193057
H3    H     H_    0.973573 0.532126 0.093544 0.193061
H4    H     H_    0.026427 0.467874 0.906457 0.193054
H5    H     H_    0.553472 0.280111 0.501694 0.227998
H6    H     H_    0.446529 0.719889 0.498306 0.227999
H7    H     H_    0.946524 0.780094 0.998313 0.228010
H8    H     H_    0.053476 0.219906 0.001688 0.228010
C17   C     C_1   0.371877 0.036847 0.374422 -0.210415
C18   C     C_1   0.628123 0.963152 0.625578 -0.210403
C19   C     C_1   0.128123 0.536847 0.125578 -0.210399
C20   C     C_1   0.871877 0.463153 0.874422 -0.210403
C21   C     C_3   0.470322 0.846907 0.499359 -0.235552
C22   C     C_3   0.529678 0.153093 0.500641 -0.235557
C23   C     C_3   0.029680 0.346915 0.000637 -0.235545
C24   C     C_3   0.970320 0.653085 0.999363 -0.235544
C25   C     C_3   0.457448 0.014297 0.458565 -0.023343
C26   C     C_3   0.542552 0.985703 0.541435 -0.023347
C27   C     C_3   0.042551 0.514298 0.041435 -0.023359
C28   C     C_3   0.957448 0.485702 0.958565 -0.023356
C29   C     C_1   0.410332 0.027610 0.412435 0.167758
C30   C     C_1   0.589669 0.972390 0.587564 0.167756
C31   C     C_1   0.089669 0.527610 0.087565 0.167769
C32   C     C_1   0.910331 0.472390 0.912435 0.167764
C33   C     C_R   0.885022 0.107981 0.647538 -0.220397
C34   C     C_R   0.114969 0.892009 0.352442 -0.220386
C35   C     C_R   0.614977 0.607981 0.852456 -0.220382
C36   C     C_R   0.385021 0.392020 0.147541 -0.220381
H9    H     H_    0.883806 0.215401 0.678909 0.205307
H10   H     H_    0.116194 0.784589 0.321072 0.205330
H11   H     H_    0.616195 0.715398 0.821083 0.205311
H12   H     H_    0.383804 0.284603 0.178914 0.205307
C37   C     C_R   0.923355 0.116325 0.613566 0.353854
C38   C     C_R   0.076625 0.883661 0.386399 0.353860
C39   C     C_R   0.576638 0.616320 0.886418 0.353876
C40   C     C_R   0.423358 0.383681 0.113576 0.353876
C41   C     C_R   0.926592 0.973320 0.573718 -0.134305
C42   C     C_R   0.073374 0.026668 0.426241 -0.134246
C43   C     C_R   0.573395 0.473320 0.926266 -0.134232
C44   C     C_R   0.426599 0.526679 0.073727 -0.134242
C45   C     C_R   0.891140 0.822630 0.568853 0.010032
C46   C     C_R   0.108824 0.177369 0.431117 0.009997
C47   C     C_R   0.608852 0.322634 0.931143 0.010042
C48   C     C_R   0.391141 0.677363 0.068851 0.010050
C49   C     C_R   0.852398 0.818652 0.603298 0.355928
C50   C     C_R   0.147577 0.181352 0.396684 0.355967
C51   C     C_R   0.647597 0.318653 0.896698 0.355946
C52   C     C_R   0.352399 0.681345 0.103298 0.355944
C53   C     C_R   0.849781 0.960730 0.643569 -0.346893
C54   C     C_R   0.150208 0.039267 0.356419 -0.346909
C55   C     C_R   0.650218 0.460731 0.856429 -0.346913
C56   C     C_R   0.349780 0.539269 0.143569 -0.346913
N1    N     N_R   0.005049 0.865164 0.539543 -0.048675
N2    N     N_R   0.994908 0.134810 0.460404 -0.048588
N3    N     N_R   0.494978 0.364994 0.960490 -0.048720
N4    N     N_R   0.505015 0.635007 0.039501 -0.048733
N5    N     N_R   0.039336 0.877653 0.504837 -0.070470
N6    N     N_R   0.960618 0.122316 0.495109 -0.070375
N7    N     N_R   0.460688 0.377487 0.995194 -0.070407
N8    N     N_R   0.539305 0.622515 0.004797 -0.070422
C57   C     C_R   0.035032 0.013171 0.464746 0.232508
C58   C     C_R   0.964923 0.986799 0.535199 0.232544
C59   C     C_R   0.464940 0.513187 0.035221 0.232448
C60   C     C_R   0.535053 0.486815 0.964770 0.232442
N9    N     N_R   0.556015 0.693671 0.477821 0.239997
O21   O     O_R   0.538525 0.595508 0.432362 -0.388374
O22   O     O_R   0.599314 0.646766 0.511757 -0.374910
N10   N     N_R   0.443986 0.306329 0.522179 0.240001
O23   O     O_R   0.461476 0.404492 0.567638 -0.388363
O24   O     O_R   0.400686 0.353234 0.488242 -0.374908
N11   N     N_R   0.943991 0.193650 0.022173 0.240004
O25   O     O_R   0.961481 0.095483 0.067631 -0.388365
O26   O     O_R   0.900692 0.146740 0.988236 -0.374905
N12   N     N_R   0.056009 0.806350 0.977827 0.240003
O27   O     O_R   0.038518 0.904517 0.932369 -0.388375
O28   O     O_R   0.099308 0.853260 0.011764 -0.374907
N13   N     N_R   0.959550 0.268653 0.621459 0.234517
O29   O     O_R   0.007910 0.245186 0.616710 -0.404057
O30   O     O_R   0.946137 0.425776 0.640713 -0.394853
N14   N     N_R   0.040430 0.731329 0.378492 0.234509
O31   O     O_R   0.992067 0.754790 0.383228 -0.404078
O32   O     O_R   0.053848 0.574217 0.359235 -0.394862
N15   N     N_R   0.540437 0.768626 0.878509 0.234508
O33   O     O_R   0.492067 0.745104 0.883210 -0.404017
O34   O     O_R   0.553857 0.925774 0.859279 -0.394871
N16   N     N_R   0.459560 0.231375 0.121483 0.234509
O35   O     O_R   0.507929 0.254898 0.116781 -0.404017
O36   O     O_R   0.446140 0.074225 0.140713 -0.394869
C61   C     C_3   0.892825 0.669891 0.525210 -0.328017
C62   C     C_3   0.865121 0.728195 0.464959 -0.324678
C63   C     C_3   0.867529 0.575402 0.421401 -0.734592
H13   H     H_    0.908761 0.542633 0.419771 0.282498
H14   H     H_    0.847947 0.449069 0.433106 0.249609
H15   H     H_    0.847376 0.621280 0.378164 0.258379
H16   H     H_    0.823558 0.759959 0.465353 0.237680
H17   H     H_    0.883626 0.853907 0.451256 0.224039
H18   H     H_    0.933690 0.629486 0.524932 0.214013
H19   H     H_    0.874382 0.541768 0.537065 0.234312
C64   C     C_3   0.107099 0.330179 0.474729 -0.328037
C65   C     C_3   0.134661 0.271874 0.535032 -0.324792
C66   C     C_3   0.132260 0.424858 0.578532 -0.734362
H20   H     H_    0.152029 0.550861 0.566906 0.249561
H21   H     H_    0.091032 0.458212 0.579984 0.282378
H22   H     H_    0.152225 0.378868 0.621823 0.258462
H23   H     H_    0.116046 0.146386 0.548717 0.224159
H24   H     H_    0.176221 0.239752 0.534746 0.237575
H25   H     H_    0.125624 0.458196 0.462927 0.234322
H26   H     H_    0.066228 0.370760 0.474887 0.214100
C67   C     C_3   0.607140 0.169832 0.974762 -0.328052
C68   C     C_3   0.634639 0.228248 0.035078 -0.324836
C69   C     C_3   0.632251 0.075256 0.078578 -0.734337
H27   H     H_    0.591025 0.041710 0.079983 0.282332
H28   H     H_    0.652083 0.949347 0.066990 0.249553
H29   H     H_    0.652160 0.121340 0.121880 0.258486
H30   H     H_    0.676196 0.260534 0.034830 0.237523
H31   H     H_    0.615972 0.353659 0.048737 0.224175
H32   H     H_    0.566274 0.129089 0.974880 0.214138
H33   H     H_    0.625718 0.041881 0.962999 0.234295
C70   C     C_3   0.392848 0.830154 0.025227 -0.328062
C71   C     C_3   0.365330 0.771737 0.964919 -0.324837
C72   C     C_3   0.367720 0.924699 0.921409 -0.734367
H34   H     H_    0.347916 0.050657 0.933008 0.249561
H35   H     H_    0.408946 0.958157 0.919978 0.282353
H36   H     H_    0.347784 0.878631 0.878116 0.258479
H37   H     H_    0.383982 0.646295 0.951259 0.224163
H38   H     H_    0.323774 0.739500 0.965182 0.237540
H39   H     H_    0.374280 0.958118 0.036996 0.234297
H40   H     H_    0.433712 0.870874 0.025093 0.214130
N17   N     N_R   0.813589 0.676259 0.594622 0.231532
O37   O     O_R   0.824662 0.513341 0.616491 -0.383388
O38   O     O_R   0.765624 0.715877 0.571130 -0.381419
N18   N     N_R   0.186380 0.323762 0.405364 0.231530
O39   O     O_R   0.234340 0.284182 0.428884 -0.381337
O40   O     O_R   0.175310 0.486651 0.383471 -0.383394
N19   N     N_R   0.686402 0.176251 0.905371 0.231526
O41   O     O_R   0.675330 0.013357 0.883482 -0.383390
O42   O     O_R   0.734364 0.215839 0.928883 -0.381311
N20   N     N_R   0.313593 0.823746 0.094627 0.231528
O43   O     O_R   0.265630 0.784153 0.071120 -0.381321
O44   O     O_R   0.324667 0.986646 0.116511 -0.383389

loop_
_geom_bond_atom_site_label_1
_geom_bond_atom_site_label_2
_geom_bond_distance
_ccdc_geom_bond_type
O17   V3    1.780164 S    
H8    C23   1.109131 S    
C47   C51   1.420490 A    
C26   C30   1.483542 S    
N16   O35   1.301331 A    
C16   C28   1.549863 S    
C23   C27   1.549423 S    
O19   V1    1.780164 S    
O13   V1    1.980849 S    
N17   O37   1.300890 A    
O1    C5    1.333076 A    
O3    C7    1.333076 A    
N11   O25   1.300277 A    
C3    C54   1.496535 S    
N8    C60   1.358352 A    
C15   C27   1.549863 S    
C44   C48   1.422991 A    
C63   H15   1.110398 S    
O15   V3    1.980846 S    
N20   O43   1.300842 A    
N15   O33   1.301331 A    
C34   C54   1.401452 A    
C70   H40   1.108323 S    
C49   N17   1.434005 S    
C33   C53   1.401458 A    
N9    O22   1.300264 A    
C64   H25   1.108284 S    
C9    C26   1.533317 S    
C50   N18   1.433999 S    
O9    V1    1.981200 S    
O7    V3    1.996523 S    
C14   H2    1.110056 S    
C51   C55   1.417167 A    
N13   O30   1.301529 A    
O16   V4    1.980846 S    
N18   O39   1.300844 A    
O4    C8    1.333075 A    
N3    N7    1.333549 A    
N20   O44   1.300892 A    
C7    C17   1.451194 S    
N2    N6    1.333560 A    
C34   C38   1.404610 A    
O1    V3    1.968358 S    
C33   C37   1.404625 A    
N10   O23   1.300278 A    
O2    V4    1.968354 S    
C69   H29   1.110283 S    
C25   C29   1.483542 S    
O3    V1    1.968352 S    
O12   V4    1.981204 S    
C14   C26   1.549861 S    
C45   C61   1.524191 S    
C1    O15   1.325528 A    
C61   H19   1.108335 S    
C52   C56   1.417166 A    
N2    C57   1.358766 A    
C2    O16   1.325528 A    
O2    C6    1.333077 A    
C10   C25   1.533317 S    
N16   O36   1.301527 A    
C69   H27   1.111015 S    
O14   V2    1.980847 S    
C71   H38   1.111798 S    
C67   H33   1.108268 S    
C36   H12   1.083198 S    
C12   C27   1.533316 S    
O11   C7    1.335760 A    
C12   N12   1.456518 S    
O12   C8    1.335760 A    
C68   H31   1.110243 S    
C42   C57   1.485570 S    
C8    C18   1.451193 S    
N17   O38   1.300845 A    
C41   C58   1.485572 S    
O10   V2    1.981200 S    
C1    C56   1.496524 S    
C72   H35   1.111017 S    
C48   C70   1.524250 S    
N18   O40   1.300886 A    
C45   C49   1.420458 A    
C72   H34   1.110976 S    
O5    V1    1.996527 S    
C9    C21   1.540942 S    
C64   H26   1.108351 S    
C37   N13   1.442805 S    
C44   C59   1.485584 S    
C11   C23   1.540941 S    
O8    V4    1.996522 S    
C40   C44   1.418202 A    
C4    C53   1.496527 S    
C12   C16   1.541075 S    
C19   C31   1.215106 T    
C65   C66   1.526267 S    
N19   O42   1.300844 A    
N7    C59   1.358351 A    
C20   C32   1.215109 T    
C66   H22   1.110294 S    
C65   H24   1.111816 S    
C49   C53   1.417165 A    
C40   N16   1.442794 S    
C15   H3    1.110055 S    
C46   C50   1.420479 A    
C9    C13   1.541077 S    
C24   C28   1.549424 S    
C11   C28   1.533316 S    
N1    C58   1.358765 A    
C11   C15   1.541075 S    
O5    C1    1.321587 A    
C46   C64   1.524228 S    
C12   C24   1.540939 S    
C70   H39   1.108260 S    
C42   C46   1.422968 A    
O7    C3    1.321590 A    
C70   C71   1.532686 S    
C41   C45   1.422951 A    
O8    C4    1.321589 A    
C16   C23   1.562672 S    
N5    C57   1.358360 A    
C35   C55   1.401440 A    
C9    N9    1.456518 S    
N11   O26   1.300263 A    
C15   C24   1.562672 S    
C71   H37   1.110239 S    
O11   V3    1.981205 S    
C13   C22   1.562672 S    
O6    V2    1.996528 S    
C62   H16   1.111873 S    
H5    C22   1.109133 S    
C10   C22   1.540940 S    
C68   H30   1.111806 S    
C66   H20   1.110992 S    
C50   C54   1.417167 A    
C18   C30   1.215108 T    
C39   N15   1.442794 S    
C43   C60   1.485584 S    
C35   C39   1.404598 A    
C2    C55   1.496525 S    
C63   H13   1.111141 S    
N1    N5    1.333548 A    
C5    C19   1.451193 S    
C72   H36   1.110280 S    
C11   N11   1.456517 S    
N3    C60   1.358743 A    
N14   O32   1.301531 A    
C6    C20   1.451192 S    
C61   C62   1.532723 S    
C22   C26   1.549427 S    
C3    O13   1.325531 A    
C21   C25   1.549426 S    
C10   C14   1.541076 S    
C62   H17   1.110344 S    
C48   C52   1.420489 A    
C63   H14   1.111095 S    
C65   H23   1.110264 S    
O6    C2    1.321587 A    
N12   O28   1.300261 A    
C64   C65   1.532694 S    
N12   O27   1.300278 A    
O18   V4    1.780164 S    
C36   C40   1.404597 A    
C51   N19   1.434000 S    
N9    O21   1.300278 A    
C27   C31   1.483542 S    
C68   C69   1.526262 S    
C28   C32   1.483541 S    
C10   N10   1.456520 S    
C71   C72   1.526268 S    
O10   C6    1.335759 A    
C66   H21   1.111029 S    
C62   C63   1.526253 S    
N19   O41   1.300893 A    
N6    C58   1.358364 A    
N13   O29   1.301333 A    
O9    C5    1.335758 A    
C43   C47   1.422992 A    
C17   C29   1.215108 T    
C34   H10   1.083198 S    
C14   C21   1.562672 S    
C39   C43   1.418204 A    
C33   H9    1.083195 S    
N4    N8    1.333547 A    
H6    C21   1.109133 S    
O20   V2    1.780164 S    
C36   C56   1.401441 A    
N10   O24   1.300263 A    
C35   H11   1.083196 S    
C69   H28   1.110976 S    
C13   H1    1.110056 S    
O4    V2    1.968355 S    
N15   O34   1.301528 A    
C38   N14   1.442809 S    
C16   H4    1.110052 S    
C61   H18   1.108383 S    
C38   C42   1.418203 A    
N4    C59   1.358745 A    
C4    O14   1.325532 A    
C37   C41   1.418205 A    
N14   O31   1.301332 A    
C67   C68   1.532701 S    
C67   H32   1.108333 S    
C52   N20   1.434000 S    
C13   C25   1.549865 S    
H7    C24   1.109131 S    
C47   C67   1.524253 S    
