data_mof_unit_18560.cif
_audit_creation_date              2012-12-11T15:39:26-0500
_audit_creation_method            fapswitch 2.2
_symmetry_space_group_name_H-M    P1
_symmetry_Int_Tables_number       1
_space_group_crystal_system       triclinic
_cell_length_a                    6.939714
_cell_length_b                    15.171664
_cell_length_c                    16.541369
_cell_angle_alpha                 95.611517
_cell_angle_beta                  90.276096
_cell_angle_gamma                 90.297979
_cell_volume                      1733.19688011

loop_
_atom_site_label
_atom_site_type_symbol
_atom_type_description
_atom_site_fract_x
_atom_site_fract_y
_atom_site_fract_z
_atom_type_partial_charge
O1    O     O_R   0.633330 0.174290 0.828230 -0.536044
O2    O     O_R   0.366670 0.825710 0.171770 -0.536042
O3    O     O_R   0.301450 0.154140 0.662030 -0.543284
O4    O     O_R   0.698550 0.845860 0.337970 -0.543284
O5    O     O_R   0.133140 0.325730 0.671770 -0.533042
O6    O     O_R   0.866860 0.674270 0.328230 -0.533043
C1    C     C_R   0.470189 0.131424 0.633232 0.673771
C2    C     C_R   0.529811 0.868574 0.366770 0.673770
O7    O     O_R   0.303490 0.163670 0.827000 -0.532658
O8    O     O_R   0.696510 0.836330 0.173000 -0.532659
O9    O     O_R   0.135190 0.335320 0.837920 -0.537993
O10   O     O_R   0.864810 0.664680 0.162080 -0.537989
C3    C     C_R   0.472563 0.142826 0.853686 0.725047
C4    C     C_R   0.527437 0.857173 0.146313 0.725054
O11   O     O_R   0.631280 0.164690 0.662080 -0.538468
O12   O     O_R   0.368720 0.835310 0.337920 -0.538469
O13   O     O_3   0.467420 0.306310 0.753380 -0.367154
O14   O     O_3   0.532580 0.693690 0.246620 -0.367152
V1    V     V_3+5 0.191790 0.239560 0.749370 1.420151
V2    V     V_3+5 0.808210 0.760440 0.250630 1.420159
O15   O     O_R   0.805590 0.345870 0.837970 -0.543754
O16   O     O_R   0.194410 0.654130 0.162030 -0.543752
C5    C     C_R   0.975245 0.367457 0.867353 0.694864
C6    C     C_R   0.024756 0.632545 0.132645 0.694869
O17   O     O_R   0.803560 0.336340 0.672990 -0.535229
O18   O     O_R   0.196440 0.663660 0.327010 -0.535230
C7    C     C_R   0.972419 0.356710 0.645914 0.722591
C8    C     C_R   0.027581 0.643290 0.354086 0.722589
V3    V     V_3+5 0.692030 0.260450 0.750630 1.413140
V4    V     V_3+5 0.307970 0.739550 0.249370 1.413152
O19   O     O_3   0.966260 0.193700 0.746610 -0.368340
O20   O     O_3   0.033740 0.806300 0.253390 -0.368342
C9    C     C_1   0.982867 0.418708 0.583515 -0.201128
C10   C     C_1   0.017132 0.581292 0.416485 -0.201128
C11   C     C_1   0.993424 0.469943 0.530999 0.002527
C12   C     C_1   0.006576 0.530057 0.469001 0.002527
C13   C     C_3   0.925544 0.574489 0.977792 0.056803
C14   C     C_3   0.074458 0.425515 0.022205 0.056799
C15   C     C_3   0.099289 0.525597 0.936304 -0.190264
C16   C     C_3   0.900712 0.474406 0.063693 -0.190250
H1    H     H_    0.182757 0.545273 0.883832 0.110487
H2    H     H_    0.817244 0.454729 0.116164 0.110487
C17   C     C_3   0.988942 0.437212 0.938061 -0.049235
C18   C     C_3   0.011059 0.562792 0.061936 -0.049234
C19   C     C_3   0.814407 0.486002 0.978476 -0.162681
C20   C     C_3   0.185594 0.514003 0.021521 -0.162693
H3    H     H_    0.661516 0.475242 0.960065 0.108769
H4    H     H_    0.338484 0.524762 0.039932 0.108777
C21   C     C_3   0.595286 0.974085 0.564288 -0.138787
C22   C     C_3   0.404714 0.025912 0.435715 -0.138788
C23   C     C_3   0.425383 0.923262 0.519621 -0.139555
C24   C     C_3   0.574618 0.076734 0.480382 -0.139555
H5    H     H_    0.364183 0.859467 0.535471 0.100799
H6    H     H_    0.635817 0.140529 0.464532 0.100798
H7    H     H_    0.673421 0.952970 0.617788 0.099787
H8    H     H_    0.326579 0.047026 0.382216 0.099785
C25   C     C_3   0.517304 0.938873 0.437563 -0.006729
C26   C     C_3   0.482696 0.061124 0.562440 -0.006729
C27   C     C_3   0.687252 0.988901 0.481447 -0.117444
C28   C     C_3   0.312748 0.011095 0.518556 -0.117445
H9    H     H_    0.841473 0.979459 0.465631 0.104793
H10   H     H_    0.158527 0.020537 0.534372 0.104793
C29   C     C_1   0.483046 0.080492 0.915816 -0.193929
C30   C     C_1   0.516953 0.919505 0.084182 -0.193920
C31   C     C_1   0.493531 0.029618 0.968638 -0.005675
C32   C     C_1   0.506467 0.970379 0.031360 -0.005669
C33   C     C_R   0.831959 0.656166 0.951349 0.078413
C34   C     C_R   0.925876 0.708223 0.897706 -0.142897
C35   C     C_R   0.830755 0.779656 0.868241 -0.113223
C36   C     C_R   0.641141 0.799020 0.891474 -0.085654
C37   C     C_R   0.547711 0.748180 0.945614 -0.132410
C38   C     C_R   0.643590 0.677820 0.976399 -0.121058
H11   H     H_    0.071674 0.693470 0.878088 0.100551
H12   H     H_    0.903321 0.819395 0.826655 0.105516
H13   H     H_    0.566833 0.853540 0.867687 0.108377
H14   H     H_    0.400979 0.763318 0.963805 0.108163
H15   H     H_    0.569580 0.639097 0.018338 0.102049
C39   C     C_R   0.168079 0.343844 0.048645 0.078396
C40   C     C_R   0.356419 0.322186 0.023556 -0.121050
C41   C     C_R   0.452353 0.251840 0.054339 -0.132414
C42   C     C_R   0.359002 0.201016 0.108515 -0.085661
C43   C     C_R   0.169414 0.220384 0.131788 -0.113223
C44   C     C_R   0.074241 0.291805 0.102325 -0.142887
H16   H     H_    0.430366 0.360897 0.981588 0.102073
H17   H     H_    0.599066 0.236701 0.036117 0.108171
H18   H     H_    0.433351 0.146505 0.132299 0.108379
H19   H     H_    0.096911 0.180657 0.173402 0.105511
H20   H     H_    0.928467 0.306563 0.121975 0.100559

loop_
_geom_bond_atom_site_label_1
_geom_bond_atom_site_label_2
_ccdc_geom_bond_type
C14   C16   S    
C29   C31   T    
O13   V3    S    
C11   C12   S    
O4    C2    A    
V1    O19   S    
C42   C43   A    
C15   H1    S    
C7    C9    S    
O9    V1    S    
C38   H15   S    
O3    C1    A    
C37   H14   S    
C25   C27   S    
C26   C28   S    
C43   H19   S    
C5    C17   S    
C28   H10   S    
C33   C38   A    
O7    C3    A    
C9    C11   T    
O5    C7    A    
C39   C44   A    
O7    V1    S    
O6    C8    A    
O8    V2    S    
C34   C35   A    
C21   C23   S    
C22   C24   S    
O3    V1    S    
C36   C37   A    
C23   C25   S    
C1    C26   S    
C10   C12   T    
C42   H18   S    
C24   H6    S    
C16   H2    S    
C44   H20   S    
C8    C10   S    
C2    O12   A    
C18   C20   S    
O11   V3    S    
C19   H3    S    
O17   V3    S    
C16   C19   S    
C20   H4    S    
C27   H9    S    
C33   C34   A    
O8    C4    A    
C39   C40   A    
C15   C17   S    
C1    O11   A    
C14   C39   S    
C34   H11   S    
C21   H7    S    
O15   V3    S    
C22   H8    S    
C21   C26   S    
C23   H5    S    
C30   C32   T    
C41   H17   S    
C24   C27   S    
C2    C25   S    
C3    C29   S    
C16   C18   S    
C4    C30   S    
O10   V2    S    
O1    V3    S    
C35   H12   S    
C17   C19   S    
C24   C26   S    
C15   C20   S    
O14   V4    S    
O18   V4    S    
O15   C5    A    
C6    C18   S    
O16   C6    A    
O1    C3    A    
C13   C19   S    
V2    O20   S    
O16   V4    S    
C22   C25   S    
C41   C42   A    
O5    V1    S    
O17   C7    A    
O6    V2    S    
O10   C6    A    
O18   C8    A    
C21   C27   S    
O2    V4    S    
C22   C28   S    
C13   C18   S    
C14   C17   S    
C13   C15   S    
V4    O20   S    
C40   H16   S    
C13   C33   S    
O9    C5    A    
O13   V1    S    
O14   V2    S    
C31   C32   S    
C35   C36   A    
O2    C4    A    
C14   C20   S    
C40   C41   A    
O4    V2    S    
C37   C38   A    
V3    O19   S    
C43   C44   A    
C36   H13   S    
C23   C28   S    
O12   V4    S    
