data_mof_unit_24839.cif
_audit_creation_date              2012-12-10T20:25:45-0500
_audit_creation_method            fapswitch 2.2
_symmetry_space_group_name_H-M    P1
_symmetry_Int_Tables_number       1
_space_group_crystal_system       triclinic
_cell_length_a                    8.630688
_cell_length_b                    10.661944
_cell_length_c                    9.919572
_cell_angle_alpha                 90.581125
_cell_angle_beta                  99.279655
_cell_angle_gamma                 91.357105
_cell_volume                      900.509528935

loop_
_atom_site_label
_atom_site_type_symbol
_atom_type_description
_atom_site_fract_x
_atom_site_fract_y
_atom_site_fract_z
_atom_type_partial_charge
C1    C     C_R   0.492316 0.260286 0.498267 0.874715
C2    C     C_R   0.378813 0.445617 0.910717 0.194106
C3    C     C_3   0.322458 0.314020 0.888174 -0.480599
C4    C     C_R   0.201223 0.494202 0.463509 0.852061
C5    C     C_3   0.334212 0.304574 0.042982 -0.195826
C6    C     C_R   0.509005 0.739037 0.501924 0.842430
C7    C     C_R   0.798215 0.493460 0.535471 0.974964
C8    C     C_2   0.036819 0.470844 0.442735 -0.227723
C9    C     C_2   0.963525 0.486613 0.551890 -0.307132
C10   C     C_R   0.392773 0.058340 0.563871 -0.034144
C11   C     C_R   0.495822 0.128022 0.497264 -0.048023
C12   C     C_R   0.626655 0.940206 0.444177 -0.010607
C13   C     C_R   0.615574 0.070255 0.441712 -0.070042
C14   C     C_2   0.962326 0.425534 0.303927 0.433140
C15   C     C_2   0.735122 0.643146 0.895533 0.475859
C16   C     C_2   0.181704 0.280789 0.094098 0.621114
C17   C     C_2   0.462012 0.217851 0.103729 0.488426
C18   C     C_2   0.749099 0.878440 0.379636 0.452439
C19   C     C_2   0.159448 0.825030 0.430132 0.530166
C20   C     C_2   0.191360 0.845790 0.684088 0.322357
C21   C     C_2   0.136786 0.093825 0.403802 0.514494
C22   C     C_2   0.149289 0.109821 0.659781 0.386082
C23   C     C_R   0.516537 0.871051 0.506024 -0.090593
C24   C     C_R   0.404572 0.930517 0.568119 0.001505
C25   C     C_3   0.230553 0.904050 0.554673 -0.172082
C26   C     C_3   0.214318 0.048901 0.542966 -0.168943
C27   C     C_R   0.381512 0.441507 0.052808 0.039749
C28   C     C_R   0.610278 0.566136 0.089554 -0.021929
C29   C     C_R   0.611520 0.566990 0.945900 -0.030516
H1    H     H_    0.991777 0.471427 0.213872 0.094274
H2    H     H_    0.059605 0.762843 0.435897 0.035579
H3    H     H_    0.283974 0.813583 0.762506 0.130244
H4    H     H_    0.019090 0.129919 0.390317 0.157725
H5    H     H_    0.202020 0.090837 0.764173 0.139301
H6    H     H_    0.698937 0.618398 0.158939 0.173402
H7    H     H_    0.720886 0.674346 0.791641 0.133732
H8    H     H_    0.201204 0.312557 0.830587 0.249001
H9    H     H_    0.406326 0.255320 0.843016 0.206462
H10   H     H_    0.176835 0.299843 0.200411 0.055311
H11   H     H_    0.578927 0.254550 0.143582 0.128185
H12   H     H_    0.026362 0.509498 0.653560 0.182190
H13   H     H_    0.698807 0.126723 0.395796 0.197062
H14   H     H_    0.776223 0.780995 0.399903 0.034966
N1    N     N_R   0.498950 0.499140 0.142680 -0.140182
N2    N     N_R   0.498950 0.499180 0.857030 -0.151551
O1    O     O_R   0.500020 0.316790 0.614690 -0.612897
O2    O     O_2   0.855537 0.674814 0.971897 -0.541280
O3    O     O_2   0.065545 0.237852 0.019751 -0.507393
O4    O     O_2   0.436979 0.104648 0.103382 -0.482715
O5    O     O_2   0.819925 0.935391 0.301370 -0.534503
O6    O     O_2   0.210704 0.830202 0.322479 -0.462048
O7    O     O_2   0.054842 0.833580 0.701230 -0.554599
O8    O     O_2   0.201957 0.084414 0.303935 -0.499194
O9    O     O_2   0.035947 0.177614 0.639645 -0.576954
O10   O     O_R   0.500000 0.316760 0.385350 -0.632673
O11   O     O_R   0.271760 0.500010 0.587850 -0.608213
O12   O     O_R   0.271740 0.499970 0.358500 -0.633987
O13   O     O_R   0.500000 0.683240 0.614650 -0.669264
O14   O     O_R   0.499980 0.683210 0.385310 -0.578523
O15   O     O_R   0.728260 0.500030 0.641500 -0.639799
O16   O     O_R   0.728240 0.499990 0.412150 -0.607441
O17   O     O_2   0.874061 0.333431 0.289593 -0.567492
Zn1   Zn    Zn3+2 0.500010 0.500020 0.653130 0.953406
Zn2   Zn    Zn3+2 0.499990 0.499980 0.346870 0.984419

loop_
_geom_bond_atom_site_label_1
_geom_bond_atom_site_label_2
_ccdc_geom_bond_type
C4    O12   A    
O16   Zn2   S    
C21   C26   S    
C3    H9    S    
C2    C27   A    
C17   H11   S    
C6    O13   A    
C9    H12   S    
C1    C11   S    
C15   O2    D    
O1    Zn1   S    
C4    C8    S    
C19   H2    S    
O10   Zn2   S    
C10   C26   S    
C2    C3    S    
C1    O10   A    
O11   Zn1   S    
C20   O7    D    
C18   H14   S    
C4    O11   A    
C21   O8    D    
C12   C13   A    
C11   C13   A    
C12   C23   A    
C16   O3    D    
O14   Zn2   S    
C7    O16   A    
C14   H1    S    
O15   Zn1   S    
C22   H5    S    
C6    C23   S    
C27   N1    A    
C13   H13   S    
C25   C26   S    
N2    Zn1   S    
C15   C29   S    
C2    N2    A    
C20   H3    S    
C19   C25   S    
C1    O1    A    
C5    C17   S    
C10   C11   A    
C23   C24   A    
C12   C18   S    
C14   O17   D    
C19   O6    D    
C7    O15   A    
C21   H4    S    
C24   C25   S    
C18   O5    D    
O12   Zn2   S    
C22   O9    D    
C22   C26   S    
C17   O4    D    
O13   Zn1   S    
C7    C9    S    
C28   C29   A    
C5    C16   S    
C8    C14   S    
C16   H10   S    
C10   C24   A    
C15   H7    S    
C5    C27   S    
C28   H6    S    
C6    O14   A    
C28   N1    A    
N1    Zn2   S    
C3    H8    S    
C29   N2    A    
C8    C9    D    
C3    C5    S    
C20   C25   S    
