data_mof_unit_54176.cif
_audit_creation_date              2012-12-10T18:19:55-0500
_audit_creation_method            fapswitch 2.2
_symmetry_space_group_name_H-M    P1
_symmetry_Int_Tables_number       1
_space_group_crystal_system       triclinic
_cell_length_a                    10.607927
_cell_length_b                    10.637522
_cell_length_c                    9.440993
_cell_angle_alpha                 89.727606
_cell_angle_beta                  89.962029
_cell_angle_gamma                 89.569142
_cell_volume                      1065.29869846

loop_
_atom_site_label
_atom_site_type_symbol
_atom_type_description
_atom_site_fract_x
_atom_site_fract_y
_atom_site_fract_z
_atom_type_partial_charge
C1    C     C_R   0.500684 0.259796 0.500333 0.937564
C2    C     C_R   0.499317 0.740204 0.499667 0.937562
C3    C     C_3   0.390252 0.960097 0.550105 0.400013
C4    C     C_3   0.609750 0.039903 0.449896 0.400173
C5    C     C_3   0.581741 0.576797 0.048973 0.490470
C6    C     C_3   0.418259 0.423203 0.951027 0.490441
C7    C     C_3   0.473272 0.610884 0.948692 -0.102888
C8    C     C_3   0.526728 0.389116 0.051308 -0.102888
C9    C     C_3   0.609527 0.466768 0.949423 -0.138128
C10   C     C_3   0.390473 0.533232 0.050577 -0.138128
C11   C     C_R   0.259494 0.500749 0.500085 0.853638
C12   C     C_R   0.740506 0.499250 0.499915 0.853638
C13   C     C_3   0.040635 0.529682 0.630293 -0.111702
C14   C     C_3   0.959365 0.470316 0.369707 -0.111726
C15   C     C_3   0.959394 0.414266 0.594138 -0.109969
C16   C     C_3   0.040606 0.585732 0.405862 -0.109922
C17   C     C_3   0.877491 0.499114 0.499618 -0.046923
C18   C     C_3   0.122509 0.500884 0.500381 -0.046914
C19   C     C_3   0.956448 0.614479 0.535733 -0.092187
C20   C     C_3   0.043552 0.385519 0.464266 -0.092273
C21   C     C_3   0.483785 0.040916 0.634749 -0.291990
C22   C     C_3   0.516217 0.959084 0.365252 -0.291969
C23   C     C_3   0.593330 0.956510 0.581655 0.322902
C24   C     C_3   0.406672 0.043489 0.418345 0.322891
C25   C     C_3   0.499131 0.876629 0.498896 -0.304384
C26   C     C_3   0.500871 0.123370 0.501104 -0.304391
Cu1   Cu    Cu3+1 0.500030 0.499990 0.643150 1.052097
Cu2   Cu    Cu3+1 0.499970 0.500010 0.356850 1.052114
H1    H     H_    0.923395 0.344716 0.671994 0.199921
H2    H     H_    0.076604 0.655282 0.328005 0.199939
H3    H     H_    0.076692 0.554173 0.736966 0.199042
H4    H     H_    0.923307 0.445825 0.263033 0.199029
H5    H     H_    0.917879 0.708190 0.564679 0.221443
H6    H     H_    0.082122 0.291808 0.435321 0.221392
H7    H     H_    0.470345 0.075227 0.744648 0.245545
H8    H     H_    0.529657 0.924773 0.255353 0.245526
H9    H     H_    0.452077 0.704535 0.901843 0.209024
H10   H     H_    0.547921 0.295464 0.098157 0.209047
H11   H     H_    0.701836 0.439418 0.902947 0.173266
H12   H     H_    0.298164 0.560582 0.097052 0.173270
N1    N     N_3   0.500090 0.499970 0.858290 -0.218745
N2    N     N_3   0.499910 0.500030 0.141710 -0.218739
O1    O     O_R   0.500060 0.316850 0.620870 -0.558255
O2    O     O_R   0.499940 0.683150 0.379130 -0.558239
O3    O     O_R   0.500000 0.316860 0.379090 -0.553659
O4    O     O_R   0.500000 0.683140 0.620910 -0.553695
O5    O     O_R   0.316880 0.499960 0.620870 -0.543154
O6    O     O_R   0.683120 0.500040 0.379130 -0.543139
O7    O     O_R   0.316830 0.499970 0.379090 -0.593516
O8    O     O_R   0.683170 0.500030 0.620910 -0.593520
Cl1   Cl    Cl    0.717552 0.896589 0.690347 -0.509534
Cl2   Cl    Cl    0.282452 0.103411 0.309652 -0.509653
S1    S     S_3+6 0.241950 0.907284 0.614905 0.051607
O9    O     O_2   0.176291 0.836079 0.499902 -0.317225
O10   O     O_2   0.261707 0.823065 0.741258 -0.291497
O11   O     O_3   0.153968 0.032541 0.661576 -0.452124
H13   H     H_    0.068623 0.998660 0.679136 0.405560
S2    S     S_3+6 0.758046 0.092715 0.385075 0.051372
O12   O     O_2   0.738252 0.176938 0.258732 -0.292022
O13   O     O_2   0.823743 0.163908 0.500057 -0.316983
O14   O     O_3   0.846016 0.967461 0.338377 -0.452238
H14   H     H_    0.931018 0.001578 0.319241 0.405423
Cl3   Cl    Cl    0.694399 0.683683 0.117764 -0.525860
Cl4   Cl    Cl    0.305601 0.316318 0.882236 -0.525733

loop_
_geom_bond_atom_site_label_1
_geom_bond_atom_site_label_2
_ccdc_geom_bond_type
C12   C17   S    
C24   Cl2   S    
C7    C10   S    
C12   O8    A    
C5    N2    S    
C22   C24   S    
C11   C18   S    
C5    C9    S    
C11   O7    A    
C14   H4    S    
Cu1   O1    S    
C10   N2    S    
C4    C22   S    
Cu2   O7    S    
Cu1   N1    S    
S1    O10   D    
C9    N1    S    
O14   H14   S    
Cu1   O8    S    
C9    H11   S    
C12   O6    A    
C20   H6    S    
S2    O14   S    
C13   C15   S    
C11   O5    A    
C7    H9    S    
C16   C18   S    
S1    O9    D    
C2    O4    A    
C3    S1    S    
C14   C17   S    
C1    O3    A    
C3    C24   S    
C15   C20   S    
Cu1   O5    S    
C8    H10   S    
C13   C18   S    
C16   C19   S    
C21   H7    S    
Cu1   O4    S    
Cu2   N2    S    
C17   C19   S    
C21   C26   S    
C8    N2    S    
C15   H1    S    
C2    C25   S    
C18   C20   S    
C21   C23   S    
C1    C26   S    
C14   C16   S    
Cu2   O3    S    
C3    C21   S    
C4    C26   S    
C6    C10   S    
C13   C19   S    
C16   H2    S    
S2    O13   D    
C14   C20   S    
C3    C25   S    
C23   C25   S    
C22   H8    S    
O11   H13   S    
C5    Cl3   S    
Cu2   O2    S    
C10   H12   S    
C19   H5    S    
S1    O11   S    
C6    Cl4   S    
Cu1   Cu2   S    
C5    C7    S    
C4    C23   S    
C13   H3    S    
Cu2   O6    S    
C6    C8    S    
C4    S2    S    
S2    O12   D    
C15   C17   S    
C22   C25   S    
C23   Cl1   S    
C1    O1    A    
C24   C26   S    
C7    N1    S    
C2    O2    A    
C8    C9    S    
C6    N1    S    
