data_mof_unit_8824.cif
_audit_creation_date              2012-12-10T20:24:45-0500
_audit_creation_method            fapswitch 2.2
_symmetry_space_group_name_H-M    P1
_symmetry_Int_Tables_number       1
_space_group_crystal_system       triclinic
_cell_length_a                    10.762283
_cell_length_b                    18.525886
_cell_length_c                    18.436482
_cell_angle_alpha                 90.367509
_cell_angle_beta                  89.847173
_cell_angle_gamma                 90.166184
_cell_volume                      3675.77707206

loop_
_atom_site_label
_atom_site_type_symbol
_atom_type_description
_atom_site_fract_x
_atom_site_fract_y
_atom_site_fract_z
_atom_type_partial_charge
C1    C     C_R   0.503462 0.364241 0.499701 0.865958
C2    C     C_R   0.540726 0.170158 0.548822 -0.171261
C3    C     C_R   0.843308 0.205425 0.355698 -0.178145
C4    C     C_R   0.958837 0.196322 0.322046 -0.131523
C5    C     C_R   0.061947 0.175695 0.362811 -0.104381
C6    C     C_R   0.049709 0.164193 0.437308 -0.147440
C7    C     C_R   0.934303 0.173084 0.471114 -0.146141
C8    C     C_R   0.658107 0.848000 0.500918 0.069826
C9    C     C_R   0.651144 0.152372 0.511631 0.064093
C10   C     C_R   0.698779 0.796269 0.551937 0.014683
C11   C     C_R   0.708058 0.204843 0.466598 0.011227
C12   C     C_R   0.641399 0.728566 0.552999 -0.258538
C13   C     C_R   0.650566 0.271936 0.458498 -0.254330
C14   C     C_R   0.549453 0.710143 0.502428 -0.032721
C15   C     C_R   0.544464 0.289615 0.498811 -0.027582
C16   C     C_R   0.686424 0.960146 0.572390 -0.209790
C17   C     C_R   0.505363 0.635755 0.500385 0.870192
C18   C     C_R   0.712304 0.040754 0.446271 -0.207908
C19   C     C_R   0.690034 0.035263 0.577419 0.001815
C20   C     C_R   0.719785 0.965647 0.442107 0.002507
C21   C     C_R   0.260195 0.499681 0.500077 0.901821
C22   C     C_R   0.740103 0.500452 0.499984 0.884090
C23   C     C_R   0.692749 0.076188 0.512864 0.026490
C24   C     C_R   0.696476 0.924710 0.505168 0.025789
C25   C     C_R   0.533139 0.561793 0.724827 -0.038209
C26   C     C_R   0.490888 0.435927 0.274390 -0.048081
C27   C     C_R   0.539660 0.564665 0.801110 -0.073883
C28   C     C_R   0.872720 0.500856 0.500278 -0.147738
C29   C     C_R   0.488854 0.432915 0.197974 -0.069537
C30   C     C_R   0.509889 0.501937 0.841334 0.055590
C31   C     C_R   0.499244 0.498043 0.158107 0.060578
C32   C     C_R   0.478239 0.438723 0.803054 -0.328289
C33   C     C_R   0.507137 0.563244 0.197347 -0.333056
C34   C     C_R   0.474079 0.438833 0.727098 0.030783
C35   C     C_R   0.506762 0.563097 0.273341 0.037962
C36   C     C_R   0.582512 0.452785 0.961027 -0.211802
C37   C     C_R   0.429978 0.548569 0.037782 -0.205032
C38   C     C_R   0.581655 0.452564 0.037167 -0.158439
C39   C     C_R   0.128191 0.500020 0.500168 -0.144686
C40   C     C_R   0.432345 0.549549 0.961655 -0.154746
C41   C     C_R   0.503733 0.499602 0.076664 0.116499
C42   C     C_R   0.508211 0.501445 0.922433 0.119997
C43   C     C_R   0.197403 0.722173 0.384620 -0.161678
C44   C     C_R   0.760948 0.308299 0.645654 -0.113665
C45   C     C_R   0.148064 0.669499 0.430417 -0.165194
C46   C     C_R   0.825489 0.347326 0.592987 -0.145242
C47   C     C_R   0.132256 0.598457 0.405181 0.151269
C48   C     C_R   0.868488 0.417068 0.608545 0.163526
C49   C     C_R   0.166928 0.580623 0.333807 -0.074866
C50   C     C_R   0.935640 0.459214 0.552259 -0.068774
C51   C     C_R   0.849309 0.446794 0.677944 -0.101244
C52   C     C_R   0.217489 0.633312 0.288430 -0.147359
C53   C     C_R   0.785978 0.407251 0.730801 -0.134171
C54   C     C_R   0.232729 0.704033 0.313804 -0.139738
C55   C     C_R   0.741168 0.338148 0.714522 -0.127573
C56   C     C_R   0.936941 0.542787 0.448810 -0.070667
C57   C     C_R   0.064154 0.455642 0.549429 -0.069759
C58   C     C_R   0.684938 0.069038 0.650513 0.123503
C59   C     C_R   0.585915 0.053801 0.697972 -0.185417
C60   C     C_R   0.581972 0.085373 0.767025 -0.133001
C61   C     C_R   0.065695 0.545079 0.451150 -0.070631
C62   C     C_R   0.677534 0.131451 0.789613 -0.122428
C63   C     C_R   0.777480 0.145703 0.743315 -0.154550
C64   C     C_R   0.781278 0.114654 0.674026 -0.146581
C65   C     C_R   0.746936 0.931694 0.370806 0.121050
C66   C     C_R   0.669280 0.944171 0.311032 -0.184643
C67   C     C_R   0.696434 0.912938 0.243604 -0.137896
C68   C     C_R   0.802153 0.870058 0.235055 -0.125894
C69   C     C_R   0.881085 0.858525 0.293869 -0.144140
C70   C     C_R   0.853564 0.889088 0.361543 -0.151373
C71   C     C_R   0.583181 0.632389 0.836215 0.106052
C72   C     C_R   0.512638 0.760062 0.450713 -0.236069
C73   C     C_R   0.527333 0.698609 0.819036 -0.187395
C74   C     C_R   0.570196 0.762745 0.850702 -0.143339
C75   C     C_R   0.669296 0.761385 0.899463 -0.128362
C76   C     C_R   0.726088 0.695920 0.916407 -0.148143
C77   C     C_R   0.683729 0.631669 0.884753 -0.120757
C78   C     C_R   0.470226 0.361685 0.162452 0.099005
C79   C     C_R   0.372575 0.350906 0.113004 -0.123648
C80   C     C_R   0.355335 0.283525 0.079903 -0.145277
C81   C     C_R   0.434509 0.226293 0.096343 -0.118477
C82   C     C_R   0.530914 0.236281 0.146065 -0.136158
C83   C     C_R   0.491187 0.239098 0.544920 -0.235586
C84   C     C_R   0.548688 0.303603 0.179189 -0.181242
C85   C     C_R   0.871605 0.586498 0.393512 0.161487
C86   C     C_R   0.828051 0.655660 0.410943 -0.150395
C87   C     C_R   0.773593 0.698163 0.357465 -0.113198
C88   C     C_R   0.763621 0.672315 0.286361 -0.144082
C89   C     C_R   0.807300 0.603455 0.268661 -0.144350
C90   C     C_R   0.860768 0.560450 0.322100 -0.101842
C91   C     C_R   0.127623 0.400904 0.594657 0.150145
C92   C     C_R   0.156216 0.416312 0.667391 -0.084734
C93   C     C_R   0.194442 0.361074 0.713493 -0.169486
C94   C     C_R   0.563442 0.829139 0.451535 -0.183265
C95   C     C_R   0.204303 0.290352 0.687319 -0.128087
C96   C     C_R   0.175445 0.274699 0.615039 -0.161035
C97   C     C_R   0.138323 0.329838 0.568583 -0.176812
C98   C     C_R   0.800949 0.810290 0.604225 0.093879
C99   C     C_R   0.783119 0.796924 0.678587 -0.172700
C100  C     C_R   0.879293 0.809543 0.727913 -0.124007
C101  C     C_R   0.994118 0.835199 0.703500 -0.117757
C102  C     C_R   0.013035 0.848065 0.629691 -0.137079
C103  C     C_R   0.917065 0.835521 0.580202 -0.139105
C104  C     C_R   0.829904 0.193346 0.430536 0.099838
H1    H     H_    0.271372 0.744849 0.278510 0.119086
H2    H     H_    0.515306 0.614256 0.169350 0.143846
H3    H     H_    0.642701 0.415641 0.932119 0.129674
H4    H     H_    0.368949 0.585480 0.066355 0.129077
H5    H     H_    0.642102 0.415497 0.065246 0.139119
H6    H     H_    0.373801 0.587413 0.933218 0.134687
H7    H     H_    0.153069 0.526320 0.313215 0.114062
H8    H     H_    0.882835 0.500546 0.690754 0.111224
H9    H     H_    0.526702 0.868373 0.414114 0.144017
H10   H     H_    0.491420 0.130445 0.580671 0.143443
H11   H     H_    0.511107 0.018304 0.681091 0.117729
H12   H     H_    0.690995 0.307821 0.755207 0.125488
H13   H     H_    0.504865 0.074066 0.803044 0.119194
H14   H     H_    0.674421 0.155851 0.843081 0.116985
H15   H     H_    0.851942 0.180986 0.761021 0.134146
H16   H     H_    0.859884 0.125580 0.639218 0.114633
H17   H     H_    0.587171 0.977390 0.316913 0.119975
H18   H     H_    0.635651 0.922115 0.197931 0.121696
H19   H     H_    0.823105 0.845947 0.182831 0.118075
H20   H     H_    0.963289 0.825580 0.287156 0.140745
H21   H     H_    0.916318 0.880347 0.406202 0.115008
H22   H     H_    0.450366 0.700531 0.781371 0.123389
H23   H     H_    0.673728 0.688460 0.591126 0.147877
H24   H     H_    0.526744 0.813539 0.837292 0.125242
H25   H     H_    0.702517 0.811102 0.923812 0.118676
H26   H     H_    0.803446 0.695000 0.953776 0.121354
H27   H     H_    0.730164 0.581562 0.897485 0.121929
H28   H     H_    0.309731 0.394554 0.100255 0.125178
H29   H     H_    0.280346 0.275627 0.041640 0.121043
H30   H     H_    0.420947 0.174155 0.070703 0.115924
H31   H     H_    0.591977 0.191863 0.158916 0.122847
H32   H     H_    0.624181 0.310629 0.217364 0.117728
H33   H     H_    0.451167 0.389640 0.698250 0.147006
H34   H     H_    0.694594 0.312792 0.425162 0.144619
H35   H     H_    0.512552 0.613792 0.302439 0.147176
H36   H     H_    0.208085 0.777115 0.403990 0.125489
H37   H     H_    0.726185 0.255011 0.632995 0.159099
H38   H     H_    0.119179 0.684346 0.484815 0.124203
H39   H     H_    0.842874 0.323482 0.540295 0.125647
H40   H     H_    0.243794 0.619474 0.233385 0.125522
H41   H     H_    0.770702 0.430398 0.784129 0.126330
H42   H     H_    0.838470 0.676857 0.465421 0.124233
H43   H     H_    0.740206 0.751429 0.370922 0.167106
H44   H     H_    0.721744 0.705540 0.245058 0.127982
H45   H     H_    0.668991 0.929490 0.621188 0.152808
H46   H     H_    0.799457 0.583363 0.213604 0.132653
H47   H     H_    0.895137 0.507321 0.307843 0.110347
H48   H     H_    0.145041 0.470506 0.688752 0.118566
H49   H     H_    0.215207 0.372968 0.769721 0.128232
H50   H     H_    0.233356 0.247599 0.723169 0.121753
H51   H     H_    0.181308 0.219737 0.595086 0.122046
H52   H     H_    0.112887 0.316776 0.513214 0.135051
H53   H     H_    0.444307 0.745853 0.410234 0.154966
H54   H     H_    0.411086 0.252867 0.577370 0.152980
H55   H     H_    0.694445 0.777381 0.698401 0.137117
H56   H     H_    0.715083 0.071216 0.396379 0.153620
H57   H     H_    0.864803 0.799425 0.785064 0.137650
H58   H     H_    0.068550 0.844890 0.741734 0.117043
H59   H     H_    0.102275 0.867489 0.610760 0.122939
H60   H     H_    0.933807 0.844672 0.523266 0.112356
H61   H     H_    0.764192 0.221424 0.323412 0.121910
H62   H     H_    0.968474 0.205414 0.264370 0.124276
H63   H     H_    0.151405 0.168896 0.336728 0.124254
H64   H     H_    0.129840 0.148817 0.468957 0.122646
H65   H     H_    0.926939 0.165408 0.528955 0.115603
H66   H     H_    0.558009 0.608842 0.693511 0.130252
H67   H     H_    0.482285 0.386609 0.305023 0.140545
H68   H     H_    0.455813 0.389589 0.831862 0.145286
N1    N     N_R   0.500020 0.499980 0.689440 -0.089558
N2    N     N_R   0.499980 0.500020 0.310560 -0.091697
O1    O     O_R   0.500010 0.398180 0.560840 -0.604596
O2    O     O_R   0.499990 0.601820 0.439160 -0.608083
O3    O     O_R   0.499950 0.398180 0.439210 -0.632976
O4    O     O_R   0.500050 0.601820 0.560790 -0.633340
O5    O     O_R   0.316790 0.500010 0.560810 -0.614078
O6    O     O_R   0.683210 0.499990 0.439190 -0.609850
O7    O     O_R   0.316730 0.500000 0.439190 -0.613290
O8    O     O_R   0.683270 0.500000 0.560810 -0.610462
Zn1   Zn    Zn3+2 0.500040 0.500000 0.581210 0.949233
Zn2   Zn    Zn3+2 0.499960 0.500000 0.418790 0.948760

loop_
_geom_bond_atom_site_label_1
_geom_bond_atom_site_label_2
_ccdc_geom_bond_type
C3    C104  A    
C17   O4    A    
C87   C88   A    
C101  C102  A    
C8    C24   S    
C99   H55   S    
C2    H10   S    
C73   C74   A    
C36   C42   A    
C95   C96   A    
C81   C82   A    
C28   C56   A    
C81   H30   S    
C47   C49   A    
C12   H23   S    
C85   C86   A    
C21   O7    A    
C1    O1    A    
C103  H60   S    
C52   H40   S    
C87   H43   S    
C101  H58   S    
C37   C40   A    
C5    C6    A    
C97   H52   S    
C96   H51   S    
C55   H12   S    
C26   N2    A    
C98   C103  A    
C39   C57   A    
C60   C62   A    
C77   H27   S    
C45   C47   A    
C82   H31   S    
C10   C98   S    
O8    Zn1   S    
C92   C93   A    
C35   H35   S    
C28   C50   A    
C48   C51   A    
C74   H24   S    
C29   C78   S    
C20   C24   A    
C52   C54   A    
C102  H59   S    
C92   H48   S    
O6    Zn2   S    
C31   C33   A    
C11   C104  S    
C1    C15   S    
C31   C41   S    
C25   H66   S    
O4    Zn1   S    
C17   O2    A    
C49   H7    S    
C72   C94   A    
C40   C42   A    
C66   C67   A    
C32   H68   S    
C59   C60   A    
C16   C24   A    
C22   C28   S    
C27   C30   A    
C35   N2    A    
C14   C17   S    
C2    C83   A    
C69   C70   A    
C76   H26   S    
C86   H42   S    
C68   H19   S    
C94   H9    S    
C44   C46   A    
C6    C7    A    
O5    Zn1   S    
C53   C55   A    
C19   C58   S    
C58   C64   A    
C39   C61   A    
C46   C48   A    
C74   C75   A    
C18   C23   A    
C20   C65   S    
C60   H13   S    
C8    C94   A    
C76   C77   A    
C37   H4    S    
C22   O6    A    
C90   H47   S    
N2    Zn2   S    
C91   C92   A    
C71   C73   A    
C78   C79   A    
C68   C69   A    
C40   H6    S    
C69   H20   S    
C58   C59   A    
C93   H49   S    
C80   H29   S    
C67   C68   A    
C16   H45   S    
C51   C53   A    
C32   C34   A    
C19   C23   A    
C75   C76   A    
C62   C63   A    
C78   C84   A    
C63   H15   S    
C43   C54   A    
C99   C100  A    
C21   C39   S    
C51   H8    S    
C21   O5    A    
C49   C52   A    
C96   C97   A    
C53   H41   S    
C88   H44   S    
C66   H17   S    
C43   H36   S    
C91   C97   A    
C38   H5    S    
C43   C45   A    
C9    C11   A    
C100  H57   S    
C10   C12   A    
C38   C41   A    
C22   O8    A    
C70   H21   S    
C59   H11   S    
C89   H46   S    
C12   C14   A    
C26   H67   S    
C65   C66   A    
C82   C84   A    
C7    C104  A    
C7    H65   S    
C45   H38   S    
C79   C80   A    
C3    C4    A    
C67   H18   S    
C71   C77   A    
C27   C71   S    
C3    H61   S    
O1    Zn1   S    
C44   H37   S    
O7    Zn2   S    
O2    Zn2   S    
C6    H64   S    
C84   H32   S    
C57   C91   S    
C54   H1    S    
C86   C87   A    
C50   C57   A    
C14   C72   A    
C8    C10   A    
C9    C23   S    
C33   H2    S    
C80   C81   A    
C47   C61   S    
C15   C83   A    
C85   C90   A    
C46   H39   S    
C25   C27   A    
O3    Zn2   S    
C34   H33   S    
C64   H16   S    
C95   H50   S    
C13   H34   S    
C13   C15   A    
C73   H22   S    
C89   C90   A    
C29   C31   A    
C34   N1    A    
C36   C38   A    
C30   C32   A    
C11   C13   A    
C44   C55   A    
C56   C85   S    
C83   H54   S    
C16   C19   A    
C79   H28   S    
C48   C50   S    
C100  C101  A    
C33   C35   A    
C4    H62   S    
C18   C20   A    
C5    H63   S    
C37   C41   A    
C102  C103  A    
C62   H14   S    
C18   H56   S    
C72   H53   S    
C63   C64   A    
C25   N1    A    
C4    C5    A    
C88   C89   A    
N1    Zn1   S    
C26   C29   A    
C93   C95   A    
C98   C99   A    
C56   C61   A    
C30   C42   S    
C65   C70   A    
C2    C9    A    
C1    O3    A    
C75   H25   S    
C36   H3    S    
