data_mof_unit_15246.cif
_audit_creation_date              2013-03-05T15:50:58-0500
_audit_creation_method            fapswitch 2.2
_symmetry_space_group_name_H-M    P1
_symmetry_Int_Tables_number       1
_space_group_crystal_system       triclinic
_cell_length_a                    11.709997
_cell_length_b                    10.88507
_cell_length_c                    9.594099
_cell_angle_alpha                 91.375234
_cell_angle_beta                  90.065824
_cell_angle_gamma                 92.749973
_cell_volume                      1221.14018206

loop_
_atom_site_label
_atom_site_type_symbol
_atom_site_description
_atom_site_fract_x
_atom_site_fract_y
_atom_site_fract_z
_atom_type_partial_charge
O1    O     O_R   0.499990 0.319640 0.618810 -0.592238
O2    O     O_R   0.500000 0.319660 0.381240 -0.517491
C1    C     C_R   0.510390 0.263319 0.498148 0.820641
O3    O     O_R   0.337190 0.500000 0.618790 -0.571631
O4    O     O_R   0.337200 0.500030 0.381210 -0.575446
C2    C     C_R   0.284091 0.499681 0.499931 0.829176
Cu1   Cu    Cu3+1 0.499990 0.499990 0.640660 0.947600
Cu2   Cu    Cu3+1 0.500010 0.500010 0.359340 0.990177
O5    O     O_R   0.500000 0.680340 0.618760 -0.614531
O6    O     O_R   0.500010 0.680360 0.381190 -0.605475
O7    O     O_R   0.662800 0.499970 0.618790 -0.594833
O8    O     O_R   0.662810 0.500000 0.381210 -0.582531
C3    C     C_R   0.496207 0.737940 0.502617 0.818926
C4    C     C_R   0.715907 0.500460 0.500091 0.805997
C5    C     C_1   0.162364 0.500061 0.499874 -0.153391
C6    C     C_1   0.059892 0.500402 0.500004 0.032316
C7    C     C_1   0.940083 0.500663 0.500192 0.040959
C8    C     C_1   0.837610 0.500671 0.500240 -0.129000
C9    C     C_R   0.609941 0.132270 0.731913 -0.124309
H1    H     H_    0.653105 0.221498 0.719874 0.158877
C10   C     C_R   0.615225 0.078910 0.861754 -0.026484
H2    H     H_    0.659306 0.127694 0.946878 0.191774
C11   C     C_R   0.560206 0.965074 0.882445 -0.067997
H3    H     H_    0.557161 0.926989 0.985665 0.164780
C12   C     C_R   0.512268 0.898124 0.769316 -0.164047
H4    H     H_    0.466952 0.812986 0.793471 0.173144
C13   C     C_R   0.519056 0.944659 0.632536 0.115889
C14   C     C_R   0.551930 0.070153 0.619409 0.051308
C15   C     C_R   0.525958 0.129829 0.494629 -0.232189
C16   C     C_R   0.499206 0.058491 0.372805 0.352487
H5    H     H_    0.470330 0.878840 0.285338 0.195872
C17   C     C_R   0.486449 0.931755 0.381100 -0.264356
C18   C     C_R   0.495363 0.873022 0.508512 -0.160184
H6    H     H_    0.369264 0.361831 0.125204 0.166267
C19   C     C_R   0.654893 0.661075 0.147977 -0.210529
H7    H     H_    0.661237 0.670456 0.257998 0.219390
C20   C     C_R   0.732067 0.738075 0.078109 -0.282697
H8    H     H_    0.790567 0.798551 0.138241 0.207171
C21   C     C_R   0.733307 0.738577 0.933576 0.324391
C22   C     C_R   0.654897 0.660544 0.860258 -0.249357
H9    H     H_    0.656934 0.669123 0.750807 0.237305
C23   C     C_R   0.576173 0.579047 0.927471 0.137592
C24   C     C_R   0.576123 0.579127 0.076842 0.219594
N1    N     N_R   0.501070 0.501210 0.147910 -0.196096
C25   C     C_R   0.428105 0.424107 0.071737 0.020345
H10   H     H_    0.369260 0.361889 0.866811 0.153677
C26   C     C_R   0.428126 0.424147 0.923815 -0.030245
N2    N     N_R   0.501110 0.501290 0.852040 -0.199073
N3    N     N_R   0.490970 0.111713 0.238045 0.117195
O9    O     O_R   0.407092 0.076908 0.154765 -0.388746
O10   O     O_R   0.578827 0.173596 0.187984 -0.382057
N4    N     N_R   0.812016 0.820423 0.861014 0.136376
O11   O     O_R   0.882253 0.895668 0.930063 -0.340780
O12   O     O_R   0.813608 0.821444 0.725371 -0.373514

loop_
_geom_bond_atom_site_label_1
_geom_bond_atom_site_label_2
_geom_bond_distance
_ccdc_geom_bond_type
O4    Cu2   1.918267 S    
C16   C17   1.384653 A    
C24   N1    1.383563 A    
C3    C18   1.470612 S    
C20   H8    1.083059 S    
C12   C13   1.418895 A    
C19   C24   1.415147 A    
C4    C8    1.425039 S    
H5    C17   1.084096 S    
Cu2   O8    1.917664 S    
C17   C18   1.399112 A    
N3    O10   1.301162 A    
C22   C23   1.415245 A    
C21   N4    1.442319 S    
C2    C5    1.425621 S    
Cu1   Cu2   2.699017 S    
C20   C21   1.386906 A    
H6    C25   1.081710 S    
C23   N2    1.382204 A    
C10   H2    1.080427 S    
Cu1   N2    2.027734 S    
Cu1   O7    1.918265 S    
C9    C14   1.415231 A    
Cu2   N1    2.028884 S    
C15   C16   1.414018 A    
O3    Cu1   1.917667 S    
O3    C2    1.298073 A    
C14   C15   1.415295 A    
C19   C20   1.387149 A    
C16   N3    1.434413 S    
N4    O12   1.301840 A    
O2    C1    1.299546 A    
C11   C12   1.394844 A    
C10   C11   1.387590 A    
O4    C2    1.298368 A    
O7    C4    1.298172 A    
C13   C18   1.426472 A    
C23   C24   1.433064 A    
C11   H3    1.082675 S    
C5    C6    1.200142 T    
C26   N2    1.367467 A    
Cu1   O5    1.979336 S    
C21   C22   1.397977 A    
N4    O11   1.301626 A    
C7    C8    1.199963 T    
N3    O9    1.301781 A    
C25   C26   1.419186 A    
C13   C14   1.409948 A    
C1    C15   1.472688 S    
O5    C3    1.293374 A    
H10   C26   1.081671 S    
C22   H9    1.056657 S    
C9    C10   1.389599 A    
C12   H4    1.075893 S    
O1    Cu1   1.969274 S    
O6    C3    1.311389 A    
Cu2   O6    1.969274 S    
O2    Cu2   1.979337 S    
N1    C25   1.367049 A    
C9    H1    1.081926 S    
O8    C4    1.298182 A    
C6    C7    1.403097 S    
O1    C1    1.305462 A    
C19   H7    1.060222 S    
