data_mof_unit_35125.cif
_audit_creation_date              2012-12-11T14:42:20-0500
_audit_creation_method            fapswitch 2.2
_symmetry_space_group_name_H-M    P1
_symmetry_Int_Tables_number       1
_space_group_crystal_system       triclinic
_cell_length_a                    19.024452
_cell_length_b                    10.876739
_cell_length_c                    18.819323
_cell_angle_alpha                 89.605883
_cell_angle_beta                  90.190861
_cell_angle_gamma                 90.096725
_cell_volume                      3894.05044175

loop_
_atom_site_label
_atom_site_type_symbol
_atom_type_description
_atom_site_fract_x
_atom_site_fract_y
_atom_site_fract_z
_atom_type_partial_charge
C1    C     C_R   0.725311 0.959119 0.855183 0.561745
C2    C     C_R   0.237966 0.432960 0.929515 0.005262
C3    C     C_R   0.253161 0.921260 0.075137 -0.020184
C4    C     C_R   0.737972 0.932946 0.929514 0.005097
C5    C     C_R   0.788484 0.324176 0.043661 -0.150882
C6    C     C_R   0.180237 0.400990 0.971716 -0.103404
C7    C     C_R   0.288313 0.824020 0.043695 -0.150870
C8    C     C_R   0.680253 0.900904 0.971705 -0.103540
C9    C     C_R   0.784271 0.309285 0.971363 -0.163189
C10   C     C_R   0.186966 0.395609 0.044268 -0.163172
C11   C     C_R   0.284076 0.809056 0.971400 -0.163149
C12   C     C_R   0.273015 0.957047 0.146244 0.556788
C13   C     C_R   0.686972 0.895551 0.044258 -0.163120
C14   C     C_R   0.743822 0.390136 0.929041 0.038561
C15   C     C_R   0.252361 0.416609 0.076332 0.031342
C16   C     C_R   0.243808 0.890102 0.929039 0.038651
C17   C     C_R   0.752352 0.916616 0.076333 0.031419
C18   C     C_R   0.454230 0.266180 0.552199 -0.126139
C19   C     C_R   0.435829 0.269187 0.481199 -0.133548
C20   C     C_R   0.954204 0.766145 0.552207 -0.126138
C21   C     C_R   0.935793 0.769154 0.481208 -0.133564
C22   C     C_R   0.453015 0.170660 0.437480 0.027272
C23   C     C_R   0.225306 0.459131 0.855186 0.561869
C24   C     C_R   0.490938 0.164759 0.579304 0.033090
C25   C     C_R   0.953016 0.670657 0.437479 0.027263
C26   C     C_R   0.990950 0.664752 0.579299 0.033091
C27   C     C_R   0.485833 0.065884 0.465633 -0.138785
C28   C     C_R   0.503875 0.062225 0.536706 -0.139817
C29   C     C_R   0.985874 0.565907 0.465619 -0.138791
C30   C     C_R   0.003922 0.562246 0.536690 -0.139824
C31   C     C_R   0.821284 0.404153 0.548085 -0.127741
C32   C     C_R   0.203852 0.325394 0.468756 -0.131043
C33   C     C_R   0.321287 0.904146 0.548086 -0.127734
C34   C     C_R   0.773009 0.457025 0.146252 0.556824
C35   C     C_R   0.703888 0.825341 0.468766 -0.131029
C36   C     C_R   0.831406 0.428120 0.476754 -0.135363
C37   C     C_R   0.202725 0.335397 0.541402 -0.135285
C38   C     C_R   0.331397 0.928081 0.476750 -0.135358
C39   C     C_R   0.702758 0.835361 0.541412 -0.135286
C40   C     C_R   0.527724 0.177252 0.849299 0.549140
C41   C     C_R   0.442597 0.181955 0.141267 0.579626
C42   C     C_R   0.027723 0.677253 0.849298 0.549091
C43   C     C_R   0.942592 0.681956 0.141268 0.579608
C44   C     C_R   0.776922 0.476898 0.435473 0.026100
C45   C     C_R   0.709938 0.499373 0.034137 -0.088693
C46   C     C_R   0.245351 0.422057 0.574943 0.028802
C47   C     C_R   0.276917 0.976890 0.435471 0.026115
C48   C     C_R   0.745352 0.922070 0.574942 0.028782
C49   C     C_R   0.712189 0.504827 0.467137 -0.130664
C50   C     C_R   0.292137 0.494608 0.534707 -0.140408
C51   C     C_R   0.212194 0.004870 0.467140 -0.130644
C52   C     C_R   0.792107 0.994665 0.534696 -0.140415
C53   C     C_R   0.701275 0.477944 0.538659 -0.137053
C54   C     C_R   0.294927 0.481369 0.461211 -0.148737
C55   C     C_R   0.201286 0.977993 0.538664 -0.137028
C56   C     C_R   0.302043 0.464250 0.961113 -0.119498
C57   C     C_R   0.794898 0.981415 0.461201 -0.148756
C58   C     C_R   0.755190 0.423482 0.578841 0.029072
C59   C     C_R   0.250867 0.396007 0.428035 0.032725
C60   C     C_R   0.255199 0.923504 0.578844 0.029074
C61   C     C_R   0.750870 0.895999 0.428036 0.032703
C62   C     C_R   0.737237 0.359925 0.854289 0.580029
C63   C     C_R   0.262002 0.365613 0.147388 0.564059
C64   C     C_R   0.237239 0.859928 0.854286 0.580134
C65   C     C_R   0.762000 0.865616 0.147389 0.564104
C66   C     C_R   0.727660 0.956270 0.647066 0.551157
C67   C     C_R   0.210120 0.999668 0.034073 -0.088704
C68   C     C_R   0.289621 0.999693 0.360158 0.538228
C69   C     C_R   0.227661 0.456266 0.647066 0.551189
C70   C     C_R   0.789623 0.499698 0.360158 0.538220
C71   C     C_R   0.528047 0.175868 0.645865 0.544947
C72   C     C_R   0.436907 0.179985 0.362700 0.538862
C73   C     C_R   0.028050 0.675867 0.645863 0.544944
C74   C     C_R   0.936907 0.679985 0.362700 0.538854
C75   C     C_R   0.740033 0.364758 0.646974 0.549088
C76   C     C_R   0.260838 0.360583 0.354455 0.533222
C77   C     C_R   0.240036 0.864770 0.646972 0.549095
C78   C     C_R   0.802026 0.964326 0.961125 -0.119413
C79   C     C_R   0.760838 0.860582 0.354455 0.533219
C80   C     C_2   0.485081 0.169058 0.913485 -0.104941
C81   C     C_2   0.467660 0.174728 0.068196 -0.094582
C82   C     C_2   0.985076 0.669063 0.913482 -0.105005
C83   C     C_2   0.967649 0.674730 0.068193 -0.094602
C84   C     C_2   0.458663 0.073324 0.028641 -0.169755
C85   C     C_2   0.484058 0.068195 0.954813 -0.159458
C86   C     C_2   0.958645 0.573330 0.028636 -0.169766
C87   C     C_2   0.984038 0.568197 0.954807 -0.159513
C88   C     C_R   0.705176 0.484577 0.961002 0.217493
C89   C     C_R   0.753151 0.421178 0.075154 -0.020194
C90   C     C_R   0.309723 0.457666 0.034468 0.198179
C91   C     C_R   0.205343 0.984802 0.960945 0.217480
C92   C     C_R   0.809701 0.957739 0.034480 0.198263
Cl1   Cl    Cl    0.654125 0.590157 0.911714 -0.599262
Cl2   Cl    Cl    0.392109 0.501252 0.069493 -0.616015
Cl3   Cl    Cl    0.154527 0.090604 0.911579 -0.599462
Cl4   Cl    Cl    0.892058 0.001409 0.069523 -0.616181
Cr1   Cr    Cr6+3 0.769270 0.163730 0.750710 1.022763
Cr2   Cr    Cr6+3 0.385840 0.322500 0.252290 1.073588
Cr3   Cr    Cr6+3 0.114160 0.822500 0.747710 1.076053
Cr4   Cr    Cr6+3 0.885840 0.822500 0.252290 1.073614
Cr5   Cr    Cr6+3 0.230730 0.163730 0.249290 1.025641
Cr6   Cr    Cr6+3 0.269270 0.663730 0.750710 1.022822
Cr7   Cr    Cr6+3 0.730730 0.663730 0.249290 1.025632
Cr8   Cr    Cr6+3 0.612620 0.009790 0.748780 1.041889
Cr9   Cr    Cr6+3 0.387380 0.009790 0.251220 1.030953
Cr10  Cr    Cr6+3 0.112620 0.509790 0.748780 1.041896
Cr11  Cr    Cr6+3 0.887380 0.509790 0.251220 1.030942
Cr12  Cr    Cr6+3 0.614160 0.322500 0.747710 1.076132
H1    H     H_    0.436284 0.990419 0.051882 0.167338
H2    H     H_    0.324492 0.564324 0.559510 0.135445
H3    H     H_    0.169135 0.042231 0.436170 0.131809
H4    H     H_    0.824435 0.064422 0.559492 0.135482
H5    H     H_    0.649729 0.493083 0.561191 0.130991
H6    H     H_    0.331932 0.535798 0.430655 0.128286
H7    H     H_    0.149744 0.993164 0.561201 0.130983
H8    H     H_    0.831875 0.035882 0.430638 0.128317
H9    H     H_    0.492850 0.256018 0.046038 0.157532
H10   H     H_    0.460497 0.253433 0.931380 0.135752
H11   H     H_    0.992842 0.756017 0.046036 0.157448
H12   H     H_    0.505754 0.982038 0.936116 0.157420
H13   H     H_    0.960501 0.753445 0.931379 0.135682
H14   H     H_    0.683137 0.576512 0.058051 0.174723
H15   H     H_    0.345771 0.495429 0.928877 0.159017
H16   H     H_    0.183474 0.077003 0.057945 0.174675
H17   H     H_    0.845741 0.995569 0.928898 0.158960
H18   H     H_    0.821915 0.263169 0.074461 0.190804
H19   H     H_    0.128970 0.382317 0.948984 0.175332
H20   H     H_    0.321608 0.762858 0.074537 0.190683
H21   H     H_    0.629000 0.882161 0.948963 0.175400
H22   H     H_    0.812835 0.232966 0.948803 0.168091
H23   H     H_    0.936262 0.490428 0.051877 0.167278
H24   H     H_    0.141492 0.367466 0.074920 0.157657
H25   H     H_    0.312486 0.732550 0.948867 0.168022
H26   H     H_    0.641505 0.867370 0.074904 0.157693
H27   H     H_    0.443845 0.346001 0.584645 0.129487
H28   H     H_    0.411166 0.350453 0.459493 0.128662
H29   H     H_    0.943794 0.845945 0.584661 0.129480
H30   H     H_    0.911096 0.850395 0.459511 0.128669
H31   H     H_    0.499767 0.988684 0.432511 0.134216
H32   H     H_    0.532697 0.983355 0.556701 0.135185
H33   H     H_    0.999832 0.488732 0.432489 0.134233
H34   H     H_    0.005719 0.482032 0.936105 0.157373
H35   H     H_    0.032779 0.483402 0.556674 0.135192
H36   H     H_    0.864044 0.362683 0.577845 0.133233
H37   H     H_    0.168819 0.258977 0.444872 0.131274
H38   H     H_    0.364050 0.862672 0.577848 0.133226
H39   H     H_    0.668881 0.758882 0.444887 0.131287
H40   H     H_    0.881281 0.404369 0.453273 0.126616
H41   H     H_    0.165655 0.279287 0.570918 0.131661
H42   H     H_    0.381262 0.904287 0.453266 0.126610
H43   H     H_    0.665712 0.779222 0.570935 0.131662
H44   H     H_    0.669128 0.542161 0.436167 0.131811
O1    O     O_R   0.784320 0.290430 0.830510 -0.535678
O2    O     O_R   0.456080 0.282180 0.333210 -0.495555
O3    O     O_R   0.043920 0.782180 0.666790 -0.522974
O4    O     O_R   0.956080 0.782180 0.333210 -0.495532
O5    O     O_R   0.679040 0.374160 0.674430 -0.498403
O6    O     O_R   0.320960 0.374160 0.325570 -0.524408
O7    O     O_R   0.179040 0.874160 0.674430 -0.498358
O8    O     O_R   0.820960 0.874160 0.325570 -0.524402
O9    O     O_3   0.665350 0.165340 0.749070 -0.261742
O10   O     O_3   0.334650 0.165340 0.250930 -0.318173
O11   O     O_3   0.165350 0.665340 0.749070 -0.261771
O12   O     O_R   0.215680 0.290430 0.169490 -0.527716
O13   O     O_3   0.834650 0.665340 0.250930 -0.318172
O14   O     O_R   0.762640 0.040960 0.825200 -0.515635
O15   O     O_R   0.237360 0.040960 0.174800 -0.496753
O16   O     O_R   0.262640 0.540960 0.825200 -0.515706
O17   O     O_R   0.737360 0.540960 0.174800 -0.496767
O18   O     O_R   0.667400 0.923970 0.829950 -0.490304
O19   O     O_R   0.332600 0.923970 0.170050 -0.512708
O20   O     O_R   0.167400 0.423970 0.829950 -0.490163
O21   O     O_R   0.832600 0.423970 0.170050 -0.512760
O22   O     O_R   0.553960 0.081340 0.821780 -0.503703
O23   O     O_R   0.284320 0.790430 0.830510 -0.535608
O24   O     O_R   0.446040 0.081340 0.178220 -0.491349
O25   O     O_R   0.053960 0.581340 0.821780 -0.503714
O26   O     O_R   0.946040 0.581340 0.178220 -0.491342
O27   O     O_R   0.543180 0.283240 0.826740 -0.489373
O28   O     O_R   0.456820 0.283240 0.173260 -0.449462
O29   O     O_R   0.043180 0.783240 0.826740 -0.489523
O30   O     O_R   0.956820 0.783240 0.173260 -0.449496
O31   O     O_R   0.678360 0.375140 0.822710 -0.441012
O32   O     O_R   0.321640 0.375140 0.177290 -0.448410
O33   O     O_R   0.178360 0.875140 0.822710 -0.441086
O34   O     O_R   0.715680 0.790430 0.169490 -0.527701
O35   O     O_R   0.821640 0.875140 0.177290 -0.448394
O36   O     O_R   0.785050 0.289380 0.670560 -0.525781
O37   O     O_R   0.214950 0.289380 0.329440 -0.527819
O38   O     O_R   0.285050 0.789380 0.670560 -0.525752
O39   O     O_R   0.714950 0.789380 0.329440 -0.527815
O40   O     O_R   0.763320 0.039990 0.676930 -0.504916
O41   O     O_R   0.236680 0.039990 0.323070 -0.494585
O42   O     O_R   0.263320 0.539990 0.676930 -0.504898
O43   O     O_R   0.736680 0.539990 0.323070 -0.494594
O44   O     O_R   0.668130 0.922920 0.670000 -0.517859
O45   O     O_R   0.554640 0.080370 0.673500 -0.509311
O46   O     O_R   0.331870 0.922920 0.330000 -0.512001
O47   O     O_R   0.168130 0.422920 0.670000 -0.517851
O48   O     O_R   0.831870 0.422920 0.330000 -0.511981
O49   O     O_R   0.445360 0.080370 0.326500 -0.512728
O50   O     O_R   0.054640 0.580370 0.673500 -0.509321
O51   O     O_R   0.945360 0.580370 0.326500 -0.512742
O52   O     O_R   0.543920 0.282180 0.666790 -0.522988

loop_
_geom_bond_atom_site_label_1
_geom_bond_atom_site_label_2
_ccdc_geom_bond_type
C44   C49   A    
Cr1   O36   S    
Cr2   O2    S    
C43   O26   A    
C8    C13   A    
C81   H9    S    
C72   O49   A    
C43   C83   S    
Cr8   O45   S    
C41   O28   A    
C75   O36   A    
C28   H32   S    
C92   Cl4   S    
C4    C8    A    
C67   H16   S    
C12   O15   A    
Cr11  O13   S    
C9    H22   S    
C7    C11   A    
C17   C92   A    
C76   O6    A    
C5    C9    A    
C29   C30   A    
C57   C61   A    
C20   C26   A    
C32   H37   S    
C18   C24   A    
C77   O38   A    
C31   C58   A    
Cr5   O10   S    
C6    H19   S    
C18   C19   A    
C3    C7    A    
C10   C15   A    
C11   H25   S    
Cr11  O48   S    
C86   H23   S    
C51   H3    S    
C74   O51   A    
C52   H4    S    
C42   O25   A    
Cr1   O14   S    
C14   C62   S    
C39   H43   S    
C1    O18   A    
C50   H2    S    
C26   C73   S    
C68   O46   A    
C25   C74   S    
C13   H26   S    
C83   H11   S    
C31   H36   S    
Cr5   O15   S    
C46   C69   S    
C76   O37   A    
C62   O31   A    
C65   O34   A    
C36   H40   S    
Cr1   O40   S    
C23   O20   A    
Cr2   O6    S    
Cr5   O41   S    
Cr6   O11   S    
Cr9   O24   S    
C42   C82   S    
C5    H18   S    
C65   O35   A    
Cr6   O16   S    
C40   C80   S    
C44   C70   S    
C68   O41   A    
C3    C12   S    
Cr1   O1    S    
C7    H20   S    
C57   H8    S    
C71   O45   A    
Cr4   O30   S    
C82   H13   S    
C64   O33   A    
Cr12  O31   S    
Cr4   O4    S    
C56   C90   A    
C41   C81   S    
C79   O39   A    
C55   C60   A    
C2    C6    A    
Cr7   O34   S    
Cr7   O43   S    
C21   H30   S    
Cr6   O42   S    
C22   C72   S    
Cr2   O10   S    
C53   H5    S    
C58   C75   S    
C90   Cl2   S    
C12   O19   A    
C54   C59   A    
C42   O29   A    
C25   C29   A    
C71   O52   A    
C80   H10   S    
C60   C77   S    
C72   O2    A    
C56   H15   S    
C19   C22   A    
C84   C85   S    
C52   C57   A    
C79   O8    A    
C86   C87   S    
C70   O43   A    
C47   C51   A    
Cr12  O5    S    
Cr11  O21   S    
C78   C92   A    
C19   H28   S    
Cr10  O11   S    
C27   H31   S    
C30   H35   S    
Cr12  O27   S    
Cr3   O3    S    
Cr4   O13   S    
C20   H29   S    
C85   H12   S    
C35   C39   A    
C9    C14   A    
Cr11  O51   S    
C80   C85   D    
C17   C65   S    
Cr10  O50   S    
C40   O27   A    
C11   C16   A    
Cr4   O8    S    
Cr9   O49   S    
C29   H33   S    
C63   O12   A    
C73   O3    A    
C67   C91   A    
Cr3   O7    S    
Cr8   O44   S    
C74   O4    A    
C18   H27   S    
C35   C61   A    
C35   H39   S    
C32   C37   A    
C64   O23   A    
C66   O40   A    
C38   C47   A    
C34   O17   A    
Cr11  O26   S    
C77   O7    A    
Cr3   O11   S    
Cr4   O35   S    
Cr9   O46   S    
C41   O24   A    
Cr7   O13   S    
C33   C60   A    
Cr1   O9    S    
C22   C27   A    
C45   C88   A    
C36   C44   A    
Cr7   O39   S    
Cr2   O28   S    
Cr9   O19   S    
C47   C68   S    
Cr8   O9    S    
C81   C84   D    
C45   C89   A    
Cr8   O18   S    
Cr12  O9    S    
C21   C25   A    
C88   Cl1   S    
C70   O48   A    
C63   O32   A    
Cr10  O25   S    
C49   H44   S    
C31   C36   A    
Cr10  O20   S    
Cr5   O12   S    
C3    C67   A    
C24   C28   A    
C84   H1    S    
C37   H41   S    
C6    C10   A    
C66   O44   A    
C53   C58   A    
C26   C30   A    
Cr8   O22   S    
C45   H14   S    
C4    C78   A    
C73   O50   A    
C46   C50   A    
C43   O30   A    
Cr5   O37   S    
C33   C38   A    
C62   O1    A    
C13   C17   A    
C1    C4    S    
Cr6   O23   S    
C34   C89   S    
C14   C88   A    
C50   C54   A    
C34   O21   A    
C2    C56   A    
C15   C90   A    
C40   O22   A    
C75   O5    A    
C55   H7    S    
C1    O14   A    
C61   C79   S    
C49   C53   A    
C54   H6    S    
C8    H21   S    
C69   O42   A    
Cr6   O38   S    
Cr3   O33   S    
C51   C55   A    
C87   H34   S    
Cr2   O32   S    
C10   H24   S    
Cr3   O29   S    
C33   H38   S    
C91   Cl3   S    
C23   O16   A    
C69   O47   A    
C48   C52   A    
C83   C86   D    
C20   C21   A    
C16   C91   A    
Cr12  O52   S    
C2    C23   S    
Cr7   O17   S    
C15   C63   S    
Cr9   O10   S    
C39   C48   A    
C16   C64   S    
C32   C59   A    
C48   C66   S    
C37   C46   A    
C78   H17   S    
C59   C76   S    
C38   H42   S    
C5    C89   A    
C82   C87   D    
C24   C71   S    
Cr10  O47   S    
C27   C28   A    
