data_mof_unit_59123.cif
_audit_creation_date              2012-12-10T17:19:52-0500
_audit_creation_method            fapswitch 2.2
_symmetry_space_group_name_H-M    P1
_symmetry_Int_Tables_number       1
_space_group_crystal_system       triclinic
_cell_length_a                    9.634786
_cell_length_b                    10.845845
_cell_length_c                    15.457238
_cell_angle_alpha                 87.921454
_cell_angle_beta                  73.974013
_cell_angle_gamma                 91.975307
_cell_volume                      1549.78127812

loop_
_atom_site_label
_atom_site_type_symbol
_atom_type_description
_atom_site_fract_x
_atom_site_fract_y
_atom_site_fract_z
_atom_type_partial_charge
C1    C     C_R   0.999716 0.263190 0.495579 0.799354
C2    C     C_R   0.664282 0.459368 0.905563 0.037355
C3    C     C_R   0.752092 0.397297 0.952161 0.011722
C4    C     C_R   0.515918 0.476210 0.949500 0.070675
C5    C     C_R   0.461822 0.445719 0.043157 -0.007944
C6    C     C_R   0.548906 0.378779 0.086381 -0.287704
C7    C     C_R   0.690176 0.350676 0.041446 0.409068
C8    C     C_R   0.418727 0.519593 0.902467 -0.186034
C9    C     C_R   0.276545 0.541796 0.947242 -0.222583
C10   C     C_R   0.227135 0.525543 0.040540 0.159469
C11   C     C_R   0.319590 0.478710 0.089856 0.128029
C12   C     C_R   0.917788 0.497172 0.672106 0.796311
C13   C     C_R   0.086188 0.556837 0.085144 -0.128462
C14   C     C_R   0.036669 0.545442 0.178743 -0.118340
C15   C     C_R   0.268418 0.471547 0.184533 -0.247374
C16   C     C_R   0.249529 0.138308 0.391143 -0.227750
C17   C     C_R   0.386182 0.095146 0.382395 -0.168894
C18   C     C_R   0.400737 0.984728 0.427045 0.503056
C19   C     C_R   0.278530 0.906817 0.465976 -0.287401
C20   C     C_R   0.138643 0.946724 0.470461 0.027927
C21   C     C_R   0.127306 0.071827 0.447070 0.091105
C22   C     C_R   0.999014 0.129830 0.488504 -0.106451
C23   C     C_R   0.002057 0.737938 0.502842 0.783001
C24   C     C_R   0.877236 0.059340 0.537933 -0.128417
C25   C     C_R   0.879224 0.931549 0.541541 -0.158185
C26   C     C_R   0.008742 0.873104 0.506404 -0.121891
C27   C     C_R   0.706362 0.649837 0.370583 -0.099271
C28   C     C_R   0.666366 0.716627 0.303668 -0.132089
C29   C     C_R   0.522621 0.719784 0.305569 -0.153133
C30   C     C_R   0.418697 0.653938 0.373267 -0.166434
C31   C     C_R   0.456097 0.574593 0.437105 0.216435
C32   C     C_R   0.605584 0.573515 0.436446 0.249395
C33   C     C_R   0.544469 0.428734 0.559832 -0.027666
C34   C     C_R   0.082160 0.500986 0.327870 0.767977
C35   C     C_R   0.396880 0.428583 0.559691 -0.040892
C36   C     C_R   0.869879 0.477847 0.770532 -0.046860
C37   C     C_R   0.128273 0.504548 0.228948 -0.049270
C38   C     C_R   0.899038 0.381625 0.907349 -0.119853
C39   C     C_R   0.956758 0.420533 0.817301 -0.221266
C40   C     C_R   0.727737 0.502399 0.815838 -0.204798
Cu1   Cu    Cu3+1 0.140660 0.499990 0.500010 0.936737
Cu2   Cu    Cu3+1 0.859340 0.500010 0.499990 0.969556
H1    H     H_    0.014462 0.590997 0.047590 0.138488
H2    H     H_    0.781769 0.103661 0.575345 0.201819
H3    H     H_    0.241393 0.228538 0.361079 0.175085
H4    H     H_    0.479880 0.154830 0.350388 0.210245
H5    H     H_    0.780860 0.878375 0.575552 0.214022
H6    H     H_    0.816382 0.664834 0.369281 0.180107
H7    H     H_    0.337716 0.444980 0.225443 0.154836
H8    H     H_    0.490608 0.777829 0.256579 0.163208
H9    H     H_    0.310444 0.671845 0.374447 0.196007
H10   H     H_    0.318017 0.369880 0.608689 0.142167
H11   H     H_    0.205704 0.574740 0.908625 0.149576
H12   H     H_    0.970542 0.337256 0.940372 0.211238
H13   H     H_    0.067660 0.401331 0.783417 0.154977
H14   H     H_    0.668662 0.555068 0.778682 0.146122
H15   H     H_    0.505775 0.340991 0.154295 0.200068
N1    N     N_R   0.648320 0.501210 0.499140 -0.203975
N2    N     N_R   0.352470 0.501290 0.499110 -0.206403
O1    O     O_R   0.118810 0.319640 0.500010 -0.577764
O2    O     O_R   0.881240 0.319660 0.500000 -0.558463
O3    O     O_R   0.055570 0.499980 0.629840 -0.578456
O4    O     O_R   0.818000 0.500010 0.629830 -0.584856
O5    O     O_R   0.118760 0.680340 0.500000 -0.607357
O6    O     O_R   0.881190 0.680360 0.499990 -0.579014
O7    O     O_R   0.182000 0.499990 0.370170 -0.609159
O8    O     O_R   0.944430 0.500020 0.370160 -0.592166
S1    S     S_3+6 0.781575 0.248984 0.097286 -0.016847
O9    O     O_2   0.831946 0.142205 0.039081 -0.279413
O10   O     O_2   0.910263 0.316148 0.113444 -0.319105
O11   O     O_3   0.671758 0.194418 0.196632 -0.550314
H16   H     H_    0.735701 0.150999 0.226732 0.407107
S2    S     S_3+6 0.563501 0.963443 0.453723 -0.041082
O12   O     O_2   0.578888 0.064478 0.514621 -0.324579
O13   O     O_2   0.561020 0.840377 0.502050 -0.337984
O14   O     O_3   0.702391 0.976829 0.359620 -0.560802
H17   H     H_    0.788306 0.954477 0.379051 0.371415
H18   H     H_    0.293634 0.824589 0.502765 0.212817
H19   H     H_    0.575215 0.370095 0.608927 0.145465
H20   H     H_    0.746762 0.771832 0.252894 0.167754
H21   H     H_    0.928010 0.571258 0.211727 0.144873
H22   H     H_    0.447550 0.533632 0.830246 0.142132

loop_
_geom_bond_atom_site_label_1
_geom_bond_atom_site_label_2
_ccdc_geom_bond_type
C27   H6    S    
C8    C9    A    
C30   H9    S    
C16   C21   A    
C34   C37   S    
S2    O12   D    
C19   C20   A    
C32   N1    A    
C4    C8    A    
Cu2   N1    S    
C33   N1    A    
C8    H22   S    
C5    C6    A    
C28   C29   A    
C5    C11   A    
C3    C7    A    
C30   C31   A    
C35   N2    A    
C18   C19   A    
Cu1   Cu2   S    
C23   C26   S    
C31   N2    A    
C15   C37   A    
C7    S1    S    
C11   C15   A    
C39   H13   S    
C3    C38   A    
C16   C17   A    
C40   H14   S    
Cu2   O6    S    
C24   C25   A    
C12   C36   S    
C9    C10   A    
C25   H5    S    
C1    C22   S    
C21   C22   A    
S2    O13   D    
C6    H15   S    
C34   O7    A    
Cu1   O3    S    
C29   H8    S    
C36   C40   A    
C17   H4    S    
Cu1   N2    S    
C1    O1    A    
C12   O4    A    
S1    O9    D    
C25   C26   A    
C34   O8    A    
C19   H18   S    
C2    C4    A    
C29   C30   A    
C12   O3    A    
C31   C32   A    
C38   H12   S    
C17   C18   A    
O14   H17   S    
Cu2   O2    S    
C6    C7    A    
C23   O5    A    
C18   S2    S    
Cu2   O8    S    
C24   H2    S    
S2    O14   S    
C22   C24   A    
C9    H11   S    
C13   H1    S    
C27   C32   A    
C36   C39   A    
C33   H19   S    
Cu1   O1    S    
C4    C5    A    
C10   C13   A    
C1    O2    A    
C16   H3    S    
Cu1   O7    S    
Cu1   O5    S    
C23   O6    A    
C2    C3    A    
O11   H16   S    
C14   C37   A    
C35   H10   S    
C38   C39   A    
C20   C26   A    
S1    O11   S    
C33   C35   A    
C15   H7    S    
C28   H20   S    
C10   C11   A    
C2    C40   A    
C20   C21   A    
S1    O10   D    
C27   C28   A    
C14   H21   S    
C13   C14   A    
Cu2   O4    S    
