data_mof_unit_54284.cif
_audit_creation_date              2012-12-10T17:02:04-0500
_audit_creation_method            fapswitch 2.2
_symmetry_space_group_name_H-M    P1
_symmetry_Int_Tables_number       1
_space_group_crystal_system       triclinic
_cell_length_a                    10.73718
_cell_length_b                    11.04495
_cell_length_c                    9.915788
_cell_angle_alpha                 111.635586
_cell_angle_beta                  97.27076
_cell_angle_gamma                 92.075959
_cell_volume                      1079.9033507

loop_
_atom_site_label
_atom_site_type_symbol
_atom_type_description
_atom_site_fract_x
_atom_site_fract_y
_atom_site_fract_z
_atom_type_partial_charge
C1    C     C_R   0.490936 0.254034 0.440242 0.810359
C2    C     C_R   0.066217 0.395811 0.539286 0.101723
C3    C     C_R   0.129086 0.491507 0.502756 -0.060344
C4    C     C_R   0.062816 0.580356 0.458928 -0.183612
C5    C     C_R   0.933994 0.578601 0.454923 -0.139394
C6    C     C_R   0.869648 0.486834 0.492749 -0.060528
C7    C     C_2   0.486899 0.113946 0.406805 -0.317001
C8    C     C_2   0.504747 0.069850 0.515819 -0.128312
C9    C     C_2   0.515433 0.886132 0.593148 -0.309123
C10   C     C_2   0.500340 0.930346 0.484076 -0.102624
C11   C     C_2   0.520253 0.501654 0.078400 0.374718
C12   C     C_R   0.262930 0.497343 0.501184 0.769067
C13   C     C_2   0.503346 0.476091 0.915907 0.006613
C14   C     C_R   0.509573 0.745977 0.559740 0.871444
C15   C     C_R   0.736716 0.496232 0.497399 0.799381
C16   C     C_R   0.130923 0.300749 0.576882 -0.282980
C17   C     C_R   0.065657 0.205983 0.609499 -0.211258
C18   C     C_R   0.935321 0.203180 0.603819 0.689123
C19   C     C_R   0.869579 0.295347 0.565703 -0.244420
C20   C     C_R   0.933964 0.393155 0.533694 0.005415
Cu1   Cu    Cu3+1 0.521920 0.521810 0.644910 1.035330
Cu2   Cu    Cu3+1 0.478080 0.478190 0.355090 1.003304
H1    H     H_    0.111612 0.652850 0.429922 0.156727
H2    H     H_    0.469357 0.046551 0.292842 0.181256
H3    H     H_    0.455485 0.383103 0.840556 0.079273
H4    H     H_    0.369164 0.385179 0.068072 0.169064
H5    H     H_    0.231739 0.297589 0.579864 0.163711
H6    H     H_    0.116411 0.133754 0.638012 0.166465
H7    H     H_    0.768203 0.287960 0.559520 0.162969
H8    H     H_    0.884841 0.651584 0.426163 0.193016
H9    H     H_    0.483919 0.863298 0.369873 0.211137
H10   H     H_    0.522343 0.136951 0.629973 0.183654
H11   H     H_    0.531873 0.953463 0.707154 0.171218
N1    N     N_2   0.445130 0.445430 0.137370 -0.318743
N2    N     N_2   0.554930 0.554500 0.862630 -0.019684
O1    O     O_R   0.511700 0.332330 0.577400 -0.611031
O2    O     O_R   0.474680 0.295500 0.332650 -0.563979
O3    O     O_R   0.338160 0.518420 0.622400 -0.576904
O4    O     O_R   0.301140 0.481590 0.377650 -0.571414
O5    O     O_R   0.525320 0.704500 0.667350 -0.524583
O6    O     O_R   0.488300 0.667670 0.422600 -0.555068
O7    O     O_R   0.698860 0.518410 0.622350 -0.557725
O8    O     O_R   0.661840 0.481580 0.377600 -0.533765
Br1   Br    Br    0.670172 0.611541 0.192822 -0.419348
Br2   Br    Br    0.553476 0.736241 0.972198 -0.359505
F1    F     F_    0.872032 0.109853 0.633814 -0.653624

loop_
_geom_bond_atom_site_label_1
_geom_bond_atom_site_label_2
_ccdc_geom_bond_type
C9    C14   S    
Cu1   N2    S    
C7    H2    S    
C6    C20   A    
C9    C10   D    
Cu2   O8    S    
C1    O2    A    
C17   H6    S    
C16   H5    S    
C17   C18   A    
C8    H10   S    
C15   O8    A    
C11   Br1   S    
Cu1   O1    S    
Cu1   Cu2   S    
C9    H11   S    
C11   C13   S    
C13   H3    S    
Cu1   O7    S    
Cu1   O5    S    
C12   O4    A    
C14   O6    A    
Cu2   O4    S    
C18   F1    S    
C13   N2    D    
C2    C3    A    
C12   O3    A    
C5    C6    A    
Cu2   N1    S    
Cu2   O6    S    
C14   O5    A    
C3    C4    A    
C19   H7    S    
C7    C8    D    
C2    C16   A    
C15   O7    A    
C8    C10   S    
C18   C19   A    
C5    H8    S    
C4    H1    S    
C16   C17   A    
C3    C12   S    
C6    C15   S    
C1    C7    S    
Cu2   O2    S    
C2    C20   A    
C10   H9    S    
H4    N1    S    
C11   N1    D    
Cu1   O3    S    
C19   C20   A    
C1    O1    A    
C4    C5    A    
N2    Br2   S    
