data_mof_unit_58223.cif
_audit_creation_date              2012-10-26T20:18:17-0400
_audit_creation_method            fapswitch 2.2
_symmetry_space_group_name_H-M    P1
_symmetry_Int_Tables_number       1
_space_group_crystal_system       triclinic
_cell_length_a                    23.507933
_cell_length_b                    8.677824
_cell_length_c                    7.459324
_cell_angle_alpha                 103.188339
_cell_angle_beta                  94.514779
_cell_angle_gamma                 92.778339
_cell_volume                      1473.49046176

loop_
_atom_site_label
_atom_site_type_symbol
_atom_type_description
_atom_site_fract_x
_atom_site_fract_y
_atom_site_fract_z
_atom_type_partial_charge
C1    C     C_R   0.498248 0.199611 0.453024 0.521675
C2    C     C_R   0.698267 0.530331 0.342518 0.345373
C3    C     C_R   0.242479 0.470107 0.658969 -0.058402
C4    C     C_R   0.757522 0.529924 0.341056 -0.058391
C5    C     C_R   0.209172 0.503313 0.510563 0.094692
C6    C     C_R   0.790827 0.496673 0.489439 0.094691
C7    C     C_2   0.497433 0.031496 0.426786 -0.099837
C8    C     C_2   0.502567 0.968504 0.573214 -0.099836
C9    C     C_R   0.390957 0.500404 0.501984 0.576058
C10   C     C_R   0.609043 0.499595 0.498016 0.576072
C11   C     C_R   0.883416 0.639511 0.543468 0.486227
C12   C     C_R   0.501753 0.800388 0.546975 0.521675
C13   C     C_R   0.116583 0.360474 0.456539 0.486249
C14   C     C_R   0.876411 0.357350 0.436003 0.506547
C15   C     C_R   0.123588 0.642635 0.564006 0.506530
C16   C     C_R   0.936205 0.354706 0.439047 -0.004593
C17   C     C_R   0.063794 0.645279 0.560963 -0.004591
C18   C     C_R   0.969871 0.499627 0.497156 -0.173380
C19   C     C_R   0.030128 0.500358 0.502853 -0.173379
C20   C     C_R   0.943394 0.643805 0.549722 -0.003127
C21   C     C_R   0.056605 0.356180 0.450286 -0.003126
C22   C     C_R   0.963131 0.211849 0.386419 0.483624
C23   C     C_R   0.235105 0.536779 0.360115 0.474371
C24   C     C_R   0.036868 0.788136 0.613591 0.483624
C25   C     C_R   0.022531 0.212567 0.392020 0.483437
C26   C     C_R   0.977469 0.787418 0.607989 0.483438
C27   C     C_R   0.764891 0.463165 0.639865 0.474372
C28   C     C_R   0.294298 0.536554 0.357320 0.366089
C29   C     C_R   0.705698 0.463395 0.642659 0.366090
C30   C     C_R   0.328355 0.502434 0.506015 -0.056222
C31   C     C_R   0.671644 0.497560 0.493985 -0.056212
C32   C     C_R   0.301735 0.469704 0.657504 0.345369
Cu1   Cu    Cu3+1 0.506340 0.517380 0.684380 1.292051
Cu2   Cu    Cu3+1 0.493660 0.482620 0.315620 1.292051
F1    F     F_    0.932334 0.070132 0.328550 -0.474666
F2    F     F_    0.667408 0.565959 0.197582 -0.489725
F3    F     F_    0.446768 0.351053 0.924268 -0.479219
F4    F     F_    0.553231 0.648947 0.075732 -0.479214
F5    F     F_    0.067665 0.929853 0.671460 -0.474665
F6    F     F_    0.046241 0.071530 0.339021 -0.477173
F7    F     F_    0.953759 0.928455 0.660988 -0.477170
F8    F     F_    0.202730 0.569156 0.216059 -0.527380
F9    F     F_    0.797264 0.430744 0.783900 -0.527358
F10   F     F_    0.318097 0.572150 0.210389 -0.505325
F11   F     F_    0.681897 0.427760 0.789566 -0.505351
F12   F     F_    0.332596 0.434120 0.802462 -0.489702
H1    H     H_    0.222274 0.443975 0.775222 0.232982
H2    H     H_    0.777729 0.556090 0.224821 0.232960
H3    H     H_    0.492619 0.959284 0.285955 0.174934
H4    H     H_    0.507381 0.040716 0.714045 0.174935
N1    N     N_R   0.851666 0.497980 0.488197 -0.398352
N2    N     N_R   0.148333 0.502005 0.511810 -0.398349
N3    N     N_2   0.484110 0.456420 0.038520 0.198008
N4    N     N_2   0.515890 0.543580 0.961480 0.198005
O1    O     O_R   0.504120 0.286130 0.619770 -0.483255
O2    O     O_2   0.143232 0.225014 0.406851 -0.318542
O3    O     O_2   0.843003 0.221062 0.381839 -0.315847
O4    O     O_2   0.156997 0.778923 0.618167 -0.315866
O5    O     O_R   0.495880 0.713870 0.380230 -0.483256
O6    O     O_R   0.493410 0.256770 0.308360 -0.504048
O7    O     O_R   0.506590 0.743230 0.691640 -0.504046
O8    O     O_R   0.423230 0.514630 0.655730 -0.431522
O9    O     O_R   0.576770 0.485370 0.344270 -0.431526
O10   O     O_R   0.412530 0.485280 0.344320 -0.435462
O11   O     O_R   0.587470 0.514720 0.655680 -0.435467
O12   O     O_2   0.856767 0.774971 0.593155 -0.318547

loop_
_geom_bond_atom_site_label_1
_geom_bond_atom_site_label_2
_ccdc_geom_bond_type
Cu1   O1    S    
C2    C4    A    
C5    N2    S    
N3    N4    D    
C22   F1    S    
C8    H4    S    
C6    N1    S    
C27   C29   A    
C13   N2    A    
C14   N1    A    
C5    C23   A    
C11   O12   S    
C8    C12   S    
C13   O2    S    
F3    N3    S    
C10   O9    A    
Cu2   O10   S    
Cu1   Cu2   S    
C1    O1    A    
Cu1   O11   S    
C7    C8    D    
C29   C31   A    
C23   C28   A    
C30   C32   A    
C12   O7    A    
C3    C32   A    
C23   F8    S    
C20   C26   A    
C9    C30   S    
Cu1   O7    S    
C10   C31   S    
C3    H1    S    
Cu2   O9    S    
C17   C19   A    
C24   C26   A    
C18   C19   A    
C18   C20   A    
C25   F6    S    
Cu2   O5    S    
C15   O4    S    
C14   C16   A    
C11   C20   A    
C1    O6    A    
C17   C24   A    
C11   N1    A    
Cu1   O8    S    
C13   C21   A    
C9    O8    A    
C9    O10   A    
C27   F9    S    
C24   F5    S    
C7    H3    S    
Cu2   N3    S    
C16   C18   A    
C4    C6    A    
C4    H2    S    
C10   O11   A    
C2    F2    S    
Cu1   N4    S    
C15   C17   A    
C14   O3    S    
C21   C25   A    
C2    C31   A    
C16   C22   A    
C19   C21   A    
C15   N2    A    
C1    C7    S    
C12   O5    A    
C32   F12   S    
Cu2   O6    S    
C28   F10   S    
C6    C27   A    
C26   F7    S    
C29   F11   S    
C28   C30   A    
C3    C5    A    
C22   C25   A    
F4    N4    S    
