data_mof_unit_53964.cif
_audit_creation_date              2012-12-11T16:53:52-0500
_audit_creation_method            fapswitch 2.2
_symmetry_space_group_name_H-M    P1
_symmetry_Int_Tables_number       1
_space_group_crystal_system       triclinic
_cell_length_a                    14.946578
_cell_length_b                    14.798866
_cell_length_c                    17.011457
_cell_angle_alpha                 108.913732
_cell_angle_beta                  106.176657
_cell_angle_gamma                 108.568368
_cell_volume                      3053.20391325

loop_
_atom_site_label
_atom_site_type_symbol
_atom_type_description
_atom_site_fract_x
_atom_site_fract_y
_atom_site_fract_z
_atom_type_partial_charge
C1    C     C_R   0.085799 0.283313 0.073095 -0.142005
C2    C     C_R   0.064056 0.477457 0.251220 -0.139205
C3    C     C_R   0.227891 0.799512 0.188333 -0.129609
C4    C     C_R   0.934607 0.460304 0.734080 -0.128313
C5    C     C_R   0.698850 0.407468 0.997939 -0.107891
C6    C     C_R   0.246858 0.805429 0.275237 0.060010
C7    C     C_R   0.640094 0.438734 0.943849 0.064854
C8    C     C_R   0.972754 0.415106 0.251664 0.067452
C9    C     C_R   0.997017 0.816504 0.967816 0.053699
C10   C     C_R   0.398085 0.465333 0.877678 0.110060
C11   C     C_R   0.355615 0.423421 0.929151 0.054642
C12   C     C_R   0.026487 0.484335 0.723104 0.065004
C13   C     C_R   0.381677 0.346970 0.947738 -0.202979
C14   C     C_R   0.468554 0.337318 0.938326 -0.165900
C15   C     C_R   0.528434 0.404574 0.910743 -0.023911
C16   C     C_R   0.720643 0.214137 0.824008 -0.126822
C17   C     C_R   0.483198 0.455311 0.867666 0.111028
C18   C     C_3   0.529026 0.564354 0.872585 0.441722
C19   C     C_3   0.436025 0.575151 0.883912 -0.682865
C20   C     C_R   0.964889 0.371944 0.316989 0.129684
C21   C     C_R   0.035867 0.442096 0.636823 0.128466
C22   C     C_R   0.141396 0.448801 0.551813 -0.219624
C23   C     C_R   0.664020 0.217460 0.746193 0.066211
C24   C     C_R   0.134226 0.472607 0.635072 -0.164066
C25   C     C_R   0.945514 0.374501 0.554521 -0.277530
C26   C     C_R   0.951770 0.355224 0.471385 0.188756
C27   C     C_R   0.050320 0.397285 0.470525 0.185523
C28   C     C_R   0.266404 0.541032 0.956221 -0.134494
C29   C     C_R   0.055982 0.400321 0.391415 -0.278440
C30   C     C_R   0.867037 0.316949 0.313881 -0.171744
C31   C     C_R   0.860644 0.306828 0.390682 -0.222510
C32   C     C_R   0.554945 0.144680 0.680728 0.126562
C33   C     C_R   0.290746 0.901912 0.362114 0.136863
C34   C     C_R   0.295703 0.466230 0.970430 0.078622
C35   C     C_R   0.394711 0.093661 0.449684 -0.225028
C36   C     C_R   0.331941 0.003387 0.365805 -0.182466
C37   C     C_R   0.304107 0.893096 0.443900 -0.276646
C38   C     C_R   0.375111 0.981436 0.527597 0.185292
C39   C     C_R   0.422999 0.081768 0.529830 0.189819
C40   C     C_R   0.726362 0.310583 0.747645 -0.134300
C41   C     C_R   0.508839 0.164541 0.608462 -0.266267
C42   C     C_R   0.500985 0.048758 0.682361 -0.171056
C43   C     C_R   0.409446 0.968132 0.606599 -0.219899
C44   C     C_R   0.081741 0.109090 0.132738 0.168038
C45   C     C_R   0.221301 0.702457 0.265269 -0.127692
C46   C     C_R   0.992644 0.106001 0.075192 0.019457
C47   C     C_R   0.896482 0.022314 0.054418 -0.205627
C48   C     C_R   0.893936 0.949119 0.092080 -0.193590
C49   C     C_R   0.986756 0.956567 0.150593 0.026045
C50   C     C_R   0.078581 0.038313 0.167888 0.186833
C51   C     C_3   0.193659 0.086393 0.217493 -0.503995
C52   C     C_R   0.256449 0.440310 0.029399 -0.133159
C53   C     C_3   0.197870 0.167854 0.179271 -0.538398
C54   C     C_R   0.107861 0.554200 0.809474 -0.133974
C55   C     C_R   0.913421 0.198577 0.994103 -0.117008
C56   C     C_R   0.705113 0.500245 0.918261 -0.166626
C57   C     C_R   0.998087 0.187838 0.042021 0.069033
C58   C     C_3   0.593845 0.655981 0.796462 0.214583
C59   C     C_3   0.536740 0.724868 0.790358 -0.300096
C60   C     C_3   0.601972 0.824706 0.786086 -1.031738
C61   C     C_R   0.891176 0.394720 0.174797 -0.130289
C62   C     C_R   0.083191 0.803226 0.008951 -0.133783
C63   C     C_R   0.911471 0.719179 0.934849 -0.113965
H1    H     H_    0.162460 0.310213 0.124604 0.096710
H2    H     H_    0.495779 0.288964 0.964603 0.120709
H3    H     H_    0.604006 0.621266 0.934732 0.007496
H4    H     H_    0.855514 0.411384 0.682093 0.093758
H5    H     H_    0.459603 0.639257 0.952938 0.168435
H6    H     H_    0.382993 0.577916 0.825097 0.211649
H7    H     H_    0.132100 0.437662 0.393350 0.115201
H8    H     H_    0.795162 0.289626 0.255760 0.113423
H9    H     H_    0.217657 0.479283 0.551817 0.130625
H10   H     H_    0.784518 0.271847 0.389919 0.126836
H11   H     H_    0.205683 0.519484 0.697448 0.113700
H12   H     H_    0.682697 0.521604 0.863564 0.121963
H13   H     H_    0.869212 0.345379 0.554174 0.118465
H14   H     H_    0.546075 0.239457 0.607331 0.118966
H15   H     H_    0.691506 0.161052 0.851793 0.084660
H16   H     H_    0.532618 0.032504 0.738681 0.114327
H17   H     H_    0.430733 0.170468 0.450643 0.129128
H18   H     H_    0.372498 0.891916 0.606281 0.128856
H19   H     H_    0.323505 0.012967 0.304509 0.116277
H20   H     H_    0.269693 0.816173 0.442812 0.119129
H21   H     H_    0.823107 0.013248 0.010262 0.124556
H22   H     H_    0.819755 0.886471 0.075555 0.131114
H23   H     H_    0.810439 0.337472 0.146592 0.083050
H24   H     H_    0.221013 0.122020 0.293270 0.204024
H25   H     H_    0.224874 0.031906 0.187728 0.180443
H26   H     H_    0.226836 0.250231 0.233422 0.194070
H27   H     H_    0.289080 0.584579 0.920581 0.108227
H28   H     H_    0.233373 0.161183 0.129559 0.194175
H29   H     H_    0.703550 0.347883 0.705931 0.087934
H30   H     H_    0.265565 0.385749 0.056709 0.093621
H31   H     H_    0.187235 0.600637 0.823623 0.081291
H32   H     H_    0.832050 0.147670 0.972137 0.086044
H33   H     H_    0.226655 0.675771 0.317559 0.095393
H34   H     H_    0.163377 0.859092 0.032490 0.089619
H35   H     H_    0.617071 0.638901 0.738723 0.124556
H36   H     H_    0.667712 0.701280 0.860499 0.058632
H37   H     H_    0.461341 0.677290 0.727978 0.206555
H38   H     H_    0.520487 0.750363 0.851648 0.191394
H39   H     H_    0.677631 0.873694 0.848043 0.264751
H40   H     H_    0.559318 0.873649 0.783167 0.265670
H41   H     H_    0.616847 0.802047 0.723778 0.272032
H42   H     H_    0.832184 0.696689 0.891146 0.082140
H43   H     H_    0.142680 0.496217 0.293261 0.085181
H44   H     H_    0.239954 0.864437 0.170486 0.085419
H45   H     H_    0.670574 0.347359 0.019671 0.080751
H46   H     H_    0.344429 0.304911 0.980004 0.123959
N1    N     N_R   0.055640 0.348550 0.045600 -0.038544
N2    N     N_R   0.811290 0.303400 0.871650 -0.038506
N3    N     N_R   0.205180 0.552990 0.997660 -0.042351
N4    N     N_R   0.814810 0.361830 0.823710 -0.038343
N5    N     N_R   0.201660 0.494570 0.045600 -0.040427
N6    N     N_R   0.068420 0.560530 0.871650 -0.038467
N7    N     N_R   0.948050 0.295860 0.997660 -0.040042
N8    N     N_R   0.185190 0.638170 0.176290 -0.041804
N9    N     N_R   0.798340 0.505430 0.954400 -0.038463
N10   N     N_R   0.931580 0.439470 0.128350 -0.039017
N11   N     N_R   0.051950 0.704140 0.002340 -0.040157
N12   N     N_R   0.944360 0.651450 0.954400 -0.041180
N13   N     N_R   0.039170 0.492150 0.176290 -0.038227
N14   N     N_R   0.188710 0.696600 0.128350 -0.041204
N15   N     N_R   0.794820 0.447010 0.002340 -0.040313
N16   N     N_R   0.960830 0.507850 0.823710 -0.040388
Ni1   Ni    Ni4+2 0.119330 0.493420 0.109950 0.209404
Ni2   Ni    Ni4+2 0.880670 0.506580 0.890050 0.210492
Ni3   Ni    Ni4+2 0.872590 0.372590 0.000000 0.207246
Ni4   Ni    Ni4+2 0.127410 0.627410 0.000000 0.211585
O1    O     O_3   0.527734 0.556314 0.786982 -0.650951

loop_
_geom_bond_atom_site_label_1
_geom_bond_atom_site_label_2
_ccdc_geom_bond_type
C59   C60   S    
C6    C45   A    
C61   N10   A    
C35   C36   A    
C58   H35   S    
C3    C6    A    
N3    N5    A    
C30   H8    S    
C39   C41   A    
C20   C30   A    
C28   N3    A    
C5    N15   A    
C26   C27   A    
C8    C20   S    
C4    N16   A    
N12   Ni2   S    
C41   H14   S    
C30   C31   A    
N5    Ni1   S    
C31   H10   S    
C27   C29   A    
C55   N7    A    
C10   C17   A    
C44   C50   A    
C23   C40   A    
C35   H17   S    
C33   C36   A    
C18   C19   S    
C13   H46   S    
C44   C53   S    
C47   C48   A    
C36   H19   S    
C53   H28   S    
C32   C41   A    
N3    Ni4   S    
C4    C12   A    
C60   H40   S    
N8    Ni1   S    
C62   N11   A    
C8    C61   A    
N15   Ni3   S    
N10   Ni3   S    
C7    C15   S    
C28   C34   A    
C26   C31   A    
C56   H12   S    
C13   C14   A    
N14   Ni4   S    
C59   H37   S    
C3    N14   A    
C7    C56   A    
C60   H39   S    
C22   H9    S    
C63   N12   A    
C44   C46   A    
C50   C51   S    
C20   C29   A    
C2    N13   A    
C9    C62   A    
C59   H38   S    
C52   H30   S    
C55   H32   S    
C10   C11   A    
C51   H24   S    
C5    C7    A    
C3    H44   S    
C58   C59   S    
C12   C21   S    
C2    H43   S    
C33   C37   A    
N11   Ni4   S    
C51   C53   S    
N13   Ni1   S    
C35   C39   A    
C37   C38   A    
C1    C57   A    
C1    N1    A    
C62   H34   S    
C40   N4    A    
C14   C15   A    
C10   C19   S    
C54   N6    A    
C17   C18   S    
C19   H5    S    
N2    N4    A    
N9    N15   A    
C47   H21   S    
C40   H29   S    
N1    Ni1   S    
C48   C49   A    
C16   C23   A    
C22   C27   A    
C55   C57   A    
C46   C57   S    
C53   H26   S    
C43   H18   S    
C22   C24   A    
C19   H6    S    
C63   H42   S    
N9    Ni2   S    
N7    Ni3   S    
C1    H1    S    
N1    N7    A    
N11   N12   A    
C29   H7    S    
N6    Ni4   S    
N10   N13   A    
C45   N8    A    
C15   C17   A    
C21   C25   A    
C46   C47   A    
C9    C63   A    
C56   N9    A    
C11   C34   S    
C2    C8    A    
C58   H36   S    
C51   H25   S    
C4    H4    S    
N4    Ni2   S    
C52   N5    A    
C18   H3    S    
C34   C52   A    
N6    N16   A    
C6    C33   S    
C25   H13   S    
C23   C32   S    
C25   C26   A    
C38   C43   A    
C11   C13   A    
C24   H11   S    
C38   C39   A    
C58   O1    S    
C14   H2    S    
C16   H15   S    
N8    N14   A    
C54   H31   S    
C18   O1    S    
C61   H23   S    
C42   H16   S    
C49   C50   A    
C42   C43   A    
C21   C24   A    
N2    Ni3   S    
N16   Ni2   S    
C32   C42   A    
C48   H22   S    
C37   H20   S    
C28   H27   S    
C60   H41   S    
C45   H33   S    
C12   C54   A    
C16   N2    A    
C5    H45   S    
