data_mof_unit_18957.cif
_audit_creation_date              2012-12-11T20:51:05-0500
_audit_creation_method            fapswitch 2.2
_symmetry_space_group_name_H-M    P1
_symmetry_Int_Tables_number       1
_space_group_crystal_system       triclinic
_cell_length_a                    30.536711
_cell_length_b                    33.896416
_cell_length_c                    8.446129
_cell_angle_alpha                 89.999958
_cell_angle_beta                  90.014399
_cell_angle_gamma                 90.000555
_cell_volume                      8742.46166057

loop_
_atom_site_label
_atom_site_type_symbol
_atom_type_description
_atom_site_fract_x
_atom_site_fract_y
_atom_site_fract_z
_atom_type_partial_charge
Ba1   Ba    Ba6+2 0.999930 0.472870 0.844940 1.670512
Ba2   Ba    Ba6+2 0.999930 0.527130 0.344940 1.670381
Ba3   Ba    Ba6+2 0.499930 0.972870 0.844940 1.670372
Ba4   Ba    Ba6+2 0.499930 0.027130 0.344940 1.670484
C1    C     C_3   0.013646 0.280564 0.516827 -0.354752
C2    C     C_R   0.210892 0.332307 0.531097 0.590065
C3    C     C_R   0.403067 0.087836 0.692233 0.042976
C4    C     C_R   0.870680 0.383946 0.152290 -0.081117
C5    C     C_R   0.870716 0.616072 0.652273 -0.081336
C6    C     C_R   0.370692 0.883935 0.152312 -0.081315
C7    C     C_R   0.370700 0.116059 0.652258 -0.081182
C8    C     C_R   0.861438 0.350892 0.250817 0.229765
C9    C     C_R   0.861433 0.649102 0.750901 0.229251
C10   C     C_R   0.361420 0.850898 0.250917 0.229378
C11   C     C_R   0.361442 0.149103 0.750819 0.229560
C12   C     C_2   0.067756 0.596312 0.882020 -0.259094
C13   C     C_R   0.710898 0.167714 0.030599 0.590063
C14   C     C_2   0.067627 0.403558 0.382873 -0.257593
C15   C     C_2   0.567609 0.096449 0.882859 -0.257585
C16   C     C_2   0.567787 0.903703 0.381994 -0.259224
C17   C     C_3   0.127405 0.477735 0.201082 0.297291
C18   C     C_3   0.126962 0.522680 0.698507 0.295235
C19   C     C_3   0.626996 0.977347 0.198633 0.295475
C20   C     C_3   0.627343 0.022320 0.700780 0.297028
C21   C     C_3   0.167029 0.450590 0.194176 -0.329918
C22   C     C_3   0.166667 0.549739 0.692488 -0.330190
C23   C     C_3   0.666701 0.950288 0.192578 -0.330226
C24   C     C_R   0.710761 0.832286 0.531929 0.590052
C25   C     C_3   0.666972 0.049460 0.693957 -0.329786
C26   C     C_3   0.873861 0.525618 0.016076 0.297544
C27   C     C_3   0.873848 0.474387 0.516098 0.297423
C28   C     C_3   0.373846 0.025610 0.016070 0.297476
C29   C     C_3   0.373861 0.974381 0.516101 0.297503
C30   C     C_3   0.832583 0.550762 0.017309 -0.354941
C31   C     C_3   0.832571 0.449239 0.517422 -0.354856
C32   C     C_3   0.332567 0.050753 0.017356 -0.354912
C33   C     C_3   0.332585 0.949231 0.517393 -0.354889
C34   C     C_3   0.003318 0.324216 0.536093 0.342510
C35   C     C_R   0.158424 0.719699 0.995596 0.583446
C36   C     C_3   0.003231 0.675826 0.036700 0.343214
C37   C     C_3   0.503248 0.824205 0.536598 0.342979
C38   C     C_3   0.503304 0.175808 0.036216 0.342852
C39   C     C_R   0.926809 0.407797 0.324284 -0.292935
C40   C     C_R   0.926841 0.592214 0.824265 -0.292978
C41   C     C_R   0.426836 0.907781 0.324260 -0.293005
C42   C     C_R   0.426812 0.092198 0.824294 -0.292909
C43   C     C_3   0.018120 0.234912 0.054555 -0.302689
C44   C     C_3   0.972807 0.235020 0.129945 -0.376265
C45   C     C_3   0.017524 0.765312 0.559202 -0.303091
C46   C     C_R   0.158464 0.280380 0.496156 0.583444
C47   C     C_3   0.972304 0.764976 0.635296 -0.375731
C48   C     C_3   0.517694 0.734692 0.059450 -0.303007
C49   C     C_3   0.472460 0.735054 0.135427 -0.375772
C50   C     C_3   0.517919 0.265108 0.554550 -0.302760
C51   C     C_3   0.472623 0.265000 0.630079 -0.376222
C52   C     C_3   0.859998 0.192834 0.230940 -0.165609
C53   C     C_3   0.864047 0.196976 0.410635 -0.368704
C54   C     C_3   0.859299 0.807171 0.737659 -0.165844
C55   C     C_3   0.862713 0.802419 0.917270 -0.369139
C56   C     C_3   0.359509 0.692833 0.235215 -0.165815
C57   C     C_R   0.658393 0.219623 0.996731 0.583524
C58   C     C_3   0.363188 0.697349 0.414830 -0.368045
C59   C     C_3   0.359799 0.307158 0.733213 -0.165856
C60   C     C_3   0.363622 0.302808 0.912853 -0.368629
C61   C     C_R   0.658501 0.780307 0.495050 0.583369
C62   C     C_R   0.190272 0.748184 0.037820 -0.017202
C63   C     C_R   0.190308 0.251884 0.538285 -0.017322
C64   C     C_R   0.690242 0.248116 0.038876 -0.017366
C65   C     C_3   0.014309 0.719398 0.020337 -0.353881
C66   C     C_R   0.690344 0.751819 0.537271 -0.017145
C67   C     C_R   0.232912 0.735962 0.079511 -0.053720
C68   C     C_R   0.232997 0.264081 0.579432 -0.053654
C69   C     C_R   0.732977 0.235925 0.079456 -0.053616
C70   C     C_R   0.732940 0.764044 0.579486 -0.053756
C71   C     C_R   0.284822 0.683395 0.125267 -0.081333
C72   C     C_R   0.285013 0.316613 0.624148 -0.081350
C73   C     C_R   0.785088 0.183404 0.122973 -0.081316
C74   C     C_R   0.784759 0.816620 0.626359 -0.081481
C75   C     C_R   0.817484 0.210489 0.169990 0.056105
C76   C     C_3   0.514538 0.780663 0.520701 -0.353798
C77   C     C_R   0.817109 0.789529 0.673744 0.056253
C78   C     C_R   0.317194 0.710479 0.172501 0.056093
C79   C     C_R   0.317391 0.289519 0.671253 0.056136
C80   C     C_R   0.808415 0.252030 0.164565 -0.032425
C81   C     C_R   0.808218 0.747978 0.666400 -0.032039
C82   C     C_R   0.308248 0.752029 0.165842 -0.032321
C83   C     C_R   0.308377 0.247977 0.665148 -0.032334
C84   C     C_R   0.765452 0.264238 0.123022 -0.066019
C85   C     C_R   0.765402 0.735735 0.623182 -0.066132
C86   C     C_R   0.265384 0.764269 0.123173 -0.066049
C87   C     C_3   0.513479 0.219486 0.016669 -0.354662
C88   C     C_R   0.265464 0.235763 0.623016 -0.066041
C89   C     C_R   0.180207 0.788646 0.040779 -0.082347
C90   C     C_R   0.180196 0.211436 0.541665 -0.082410
C91   C     C_R   0.680092 0.288552 0.042814 -0.082404
C92   C     C_R   0.680315 0.711349 0.539730 -0.082358
C93   C     C_3   0.027800 0.309698 0.043429 0.322075
C94   C     C_3   0.027138 0.690537 0.545494 0.322694
C95   C     C_3   0.527223 0.809469 0.045474 0.322603
C96   C     C_3   0.527694 0.190327 0.543570 0.322203
C97   C     C_R   0.711647 0.316365 0.085431 -0.075600
C98   C     C_R   0.242979 0.695523 0.077942 -0.043708
C99   C     C_R   0.711856 0.683539 0.582509 -0.075689
C100  C     C_R   0.211757 0.816451 0.083519 -0.075651
C101  C     C_R   0.211743 0.183619 0.584307 -0.075639
C102  C     C_R   0.754519 0.304768 0.125454 -0.021359
C103  C     C_R   0.754596 0.695174 0.624136 -0.021350
C104  C     C_R   0.254542 0.804822 0.124617 -0.021346
C105  C     C_R   0.254569 0.195223 0.624905 -0.021359
C106  C     C_R   0.786356 0.332947 0.169519 0.585191
C107  C     C_R   0.786421 0.667002 0.668382 0.585213
C108  C     C_R   0.286377 0.832993 0.168797 0.585195
C109  C     C_R   0.243115 0.304507 0.577411 -0.043754
C110  C     C_R   0.286395 0.167041 0.669029 0.585197
C111  C     C_R   0.840236 0.281878 0.197864 0.578224
C112  C     C_R   0.840083 0.718157 0.699384 0.577978
C113  C     C_R   0.340102 0.781853 0.199004 0.577976
C114  C     C_R   0.340207 0.218135 0.698352 0.578101
C115  C     C_2   0.109885 0.654553 0.811323 -0.085918
C116  C     C_2   0.109964 0.345487 0.311493 -0.085646
C117  C     C_2   0.609899 0.154564 0.811604 -0.085756
C118  C     C_2   0.609951 0.845494 0.311201 -0.085806
C119  C     C_3   0.070739 0.631419 0.787885 -0.100950
C120  C     C_R   0.743133 0.195508 0.076875 -0.043736
C121  C     C_3   0.070778 0.368576 0.288092 -0.100990
C122  C     C_3   0.570735 0.131446 0.788133 -0.100960
C123  C     C_3   0.570784 0.868602 0.287838 -0.100990
C124  C     C_1   0.095439 0.588853 0.007779 0.021891
C125  C     C_1   0.095449 0.411120 0.508111 0.020937
C126  C     C_1   0.595444 0.088878 0.008060 0.020983
C127  C     C_1   0.595453 0.911148 0.507809 0.021901
C128  C     C_2   0.126412 0.616179 0.053599 -0.093753
C129  C     C_2   0.126521 0.383869 0.553701 -0.093910
C130  C     C_2   0.626534 0.116118 0.053599 -0.093943
C131  C     C_R   0.742972 0.804491 0.578410 -0.043741
C132  C     C_2   0.626411 0.883811 0.553666 -0.093716
C133  C     C_2   0.135547 0.650650 0.949491 0.219337
C134  C     C_2   0.135656 0.349416 0.449563 0.219521
C135  C     C_2   0.635623 0.150604 0.949581 0.219740
C136  C     C_2   0.635587 0.849368 0.449447 0.219141
C137  C     C_R   0.882968 0.346985 0.390207 -0.098187
C138  C     C_R   0.882947 0.652984 0.890342 -0.098079
C139  C     C_R   0.382947 0.847006 0.390329 -0.097962
C140  C     C_R   0.382957 0.152998 0.890246 -0.098237
C141  C     C_3   0.025676 0.271186 0.949357 -0.180912
C142  C     C_R   0.210756 0.667734 0.031519 0.590038
C143  C     C_3   0.025066 0.729260 0.452761 -0.180098
C144  C     C_3   0.525258 0.770720 0.952897 -0.180092
C145  C     C_3   0.525470 0.228823 0.449410 -0.180893
C146  C     C_R   0.916519 0.376179 0.436264 -0.047096
C147  C     C_R   0.916547 0.623828 0.936265 -0.047692
C148  C     C_R   0.416544 0.876167 0.436265 -0.047810
C149  C     C_R   0.416517 0.123812 0.936277 -0.047028
C150  C     C_R   0.903058 0.412164 0.192240 0.043004
C151  C     C_R   0.903083 0.587846 0.692229 0.043029
C152  C     C_R   0.403073 0.912154 0.192240 0.043072
H1    H     H_    0.033833 0.340041 0.568689 0.058506
H2    H     H_    0.159828 0.577461 0.757524 0.076465
H3    H     H_    0.498868 0.226747 0.360279 0.137149
H4    H     H_    0.057319 0.266907 0.886534 0.114466
H5    H     H_    0.056757 0.733664 0.390412 0.113549
H6    H     H_    0.556991 0.766329 0.890811 0.113388
H7    H     H_    0.557078 0.233125 0.386388 0.114578
H8    H     H_    0.121881 0.486243 0.325257 0.043232
H9    H     H_    0.120603 0.514845 0.822897 0.041987
H10   H     H_    0.620680 0.985220 0.323008 0.041934
H11   H     H_    0.621727 0.013891 0.825001 0.042964
H12   H     H_    0.098233 0.461923 0.155446 0.054177
H13   H     H_    0.659881 0.922580 0.257729 0.076367
H14   H     H_    0.098135 0.538290 0.649098 0.057922
H15   H     H_    0.598154 0.961721 0.149432 0.057754
H16   H     H_    0.598203 0.038105 0.654713 0.054614
H17   H     H_    0.968903 0.260672 0.210245 0.158178
H18   H     H_    0.947325 0.236295 0.036265 0.157744
H19   H     H_    0.968391 0.207620 0.200167 0.123949
H20   H     H_    0.021259 0.207979 0.980346 0.133969
H21   H     H_    0.043582 0.233305 0.148442 0.144604
H22   H     H_    0.946711 0.763768 0.542000 0.158774
H23   H     H_    0.968591 0.739209 0.715131 0.158119
H24   H     H_    0.660384 0.076938 0.760980 0.076471
H25   H     H_    0.967893 0.792265 0.706210 0.123763
H26   H     H_    0.043088 0.766783 0.652764 0.144833
H27   H     H_    0.020520 0.792395 0.485799 0.133909
H28   H     H_    0.468778 0.760779 0.215507 0.157901
H29   H     H_    0.446899 0.736367 0.042046 0.158747
H30   H     H_    0.467973 0.707728 0.206052 0.123818
H31   H     H_    0.520700 0.707592 0.986144 0.133878
H32   H     H_    0.543240 0.733240 0.153081 0.144989
H33   H     H_    0.447111 0.263796 0.536494 0.157755
H34   H     H_    0.468714 0.239312 0.710191 0.158375
H35   H     H_    0.174397 0.442749 0.069324 0.144346
H36   H     H_    0.468255 0.292368 0.700527 0.123861
H37   H     H_    0.543401 0.266735 0.648361 0.144442
H38   H     H_    0.521031 0.292035 0.480280 0.133983
H39   H     H_    0.862366 0.228231 0.448603 0.160461
H40   H     H_    0.837258 0.180436 0.469674 0.122514
H41   H     H_    0.895862 0.184571 0.450077 0.116072
H42   H     H_    0.861895 0.160786 0.203591 0.080443
H43   H     H_    0.888453 0.205579 0.169052 0.149967
H44   H     H_    0.835275 0.818249 0.975947 0.122772
H45   H     H_    0.861603 0.770956 0.953141 0.160483
H46   H     H_    0.174676 0.557055 0.567629 0.142633
H47   H     H_    0.894112 0.815274 0.959178 0.116139
H48   H     H_    0.888070 0.794789 0.676496 0.149954
H49   H     H_    0.861079 0.839324 0.712259 0.080629
H50   H     H_    0.361376 0.728709 0.451728 0.160114
H51   H     H_    0.336267 0.680878 0.473666 0.122375
H52   H     H_    0.394962 0.685047 0.455530 0.116159
H53   H     H_    0.361342 0.660726 0.209040 0.080461
H54   H     H_    0.388140 0.705364 0.173731 0.149903
H55   H     H_    0.361977 0.271480 0.950148 0.160328
H56   H     H_    0.395371 0.315245 0.953075 0.116163
H57   H     H_    0.674681 0.942948 0.067723 0.142772
H58   H     H_    0.336686 0.319222 0.971773 0.122547
H59   H     H_    0.388359 0.294526 0.671611 0.150112
H60   H     H_    0.361667 0.339236 0.706521 0.080515
H61   H     H_    0.674422 0.057226 0.569083 0.144160
H62   H     H_    0.884836 0.521844 0.892298 0.016990
H63   H     H_    0.884802 0.478161 0.392293 0.016999
H64   H     H_    0.384805 0.021832 0.892274 0.017014
H65   H     H_    0.033505 0.659440 0.067744 0.056915
H66   H     H_    0.384826 0.978151 0.392308 0.016987
H67   H     H_    0.899494 0.540747 0.087035 0.051032
H68   H     H_    0.899493 0.459260 0.587009 0.050906
H69   H     H_    0.399487 0.040743 0.086979 0.050885
H70   H     H_    0.399501 0.959256 0.587047 0.051040
H71   H     H_    0.806366 0.536010 0.947972 0.143152
H72   H     H_    0.806341 0.463989 0.448142 0.143234
H73   H     H_    0.306340 0.035995 0.948097 0.143210
H74   H     H_    0.306360 0.963977 0.448074 0.143182
H75   H     H_    0.839052 0.580000 0.964023 0.068060
H76   H     H_    0.533453 0.840731 0.567360 0.056516
H77   H     H_    0.839034 0.420002 0.464123 0.068244
H78   H     H_    0.339027 0.079987 0.964015 0.068166
H79   H     H_    0.339054 0.919992 0.464119 0.068121
H80   H     H_    0.821174 0.555087 0.140967 0.127310
H81   H     H_    0.821183 0.444913 0.641106 0.127222
H82   H     H_    0.321179 0.055088 0.141032 0.127249
H83   H     H_    0.321187 0.944909 0.641066 0.127278
H84   H     H_    0.991525 0.334821 0.418791 -0.082418
H85   H     H_    0.991077 0.665885 0.918930 -0.082714
H86   H     H_    0.491002 0.834017 0.418760 -0.082451
H87   H     H_    0.533867 0.160079 0.069028 0.058789
H88   H     H_    0.491580 0.165115 0.918932 -0.082717
H89   H     H_    0.032781 0.275859 0.407004 0.112159
H90   H     H_    0.033253 0.724334 0.910226 0.113290
H91   H     H_    0.533394 0.775725 0.410410 0.113392
H92   H     H_    0.532692 0.224194 0.907025 0.112103
H93   H     H_    0.033686 0.269821 0.616973 0.130279
H94   H     H_    0.034782 0.729335 0.120706 0.131106
H95   H     H_    0.535175 0.770907 0.620949 0.131210
H96   H     H_    0.533378 0.230357 0.116966 0.130232
H97   H     H_    0.702276 0.347187 0.086644 0.123623
H98   H     H_    0.195956 0.465551 0.246607 0.128532
H99   H     H_    0.702581 0.652691 0.582559 0.123636
H100  H     H_    0.202452 0.847293 0.083964 0.123628
H101  H     H_    0.202401 0.152788 0.585084 0.123633
H102  H     H_    0.147754 0.799031 0.009921 0.117396
H103  H     H_    0.147710 0.201070 0.511206 0.117379
H104  H     H_    0.647571 0.298912 0.012809 0.117360
H105  H     H_    0.647898 0.700960 0.508452 0.117414
H106  H     H_    0.875724 0.322668 0.469095 0.090549
H107  H     H_    0.875661 0.677258 0.969392 0.090899
H108  H     H_    0.375672 0.822721 0.469342 0.090912
H109  H     H_    0.195288 0.534964 0.747880 0.129596
H110  H     H_    0.375699 0.177302 0.969184 0.090683
H111  H     H_    0.292139 0.652118 0.128985 0.121256
H112  H     H_    0.292375 0.347883 0.627479 0.121307
H113  H     H_    0.792489 0.152137 0.125813 0.121310
H114  H     H_    0.792033 0.847901 0.630545 0.121280
H115  H     H_    0.143191 0.613166 0.166272 0.115685
H116  H     H_    0.143344 0.386907 0.666273 0.115612
H117  H     H_    0.643415 0.113044 0.166047 0.115408
H118  H     H_    0.643142 0.886794 0.666442 0.115866
H119  H     H_    0.116765 0.678698 0.730695 0.094823
H120  H     H_    0.695334 0.965076 0.247828 0.129484
H121  H     H_    0.116867 0.321341 0.230911 0.094351
H122  H     H_    0.616767 0.178745 0.731150 0.094140
H123  H     H_    0.616861 0.821382 0.230450 0.095025
H124  H     H_    0.852389 0.387808 0.043591 0.110023
H125  H     H_    0.852457 0.612222 0.543498 0.110702
H126  H     H_    0.352417 0.887792 0.043575 0.110477
H127  H     H_    0.352427 0.112205 0.543515 0.110286
H128  H     H_    0.951364 0.429354 0.356535 0.070297
H129  H     H_    0.951394 0.570656 0.856509 0.070363
H130  H     H_    0.451397 0.929334 0.356487 0.070361
H131  H     H_    0.695864 0.034529 0.746793 0.128653
H132  H     H_    0.451361 0.070637 0.856557 0.070303
H133  H     H_    0.982888 0.263179 0.509395 0.115225
H134  H     H_    0.983859 0.737276 0.015186 0.114636
H135  H     H_    0.484180 0.762637 0.516181 0.114618
H136  H     H_    0.482655 0.236766 0.008720 0.115200
H137  H     H_    0.038502 0.578457 0.868152 0.071846
H138  H     H_    0.038245 0.421263 0.369608 0.071907
H139  H     H_    0.538248 0.078718 0.869515 0.071921
H140  H     H_    0.538523 0.921542 0.368170 0.071831
H141  H     H_    0.994018 0.319914 0.071191 0.022756
H142  H     H_    0.160486 0.423155 0.261525 0.076374
H143  H     H_    0.993354 0.680311 0.573146 0.022971
H144  H     H_    0.493411 0.819656 0.072902 0.023226
H145  H     H_    0.493939 0.180074 0.571577 0.022495
H146  H     H_    0.045508 0.303387 0.154936 -0.028757
H147  H     H_    0.044918 0.696594 0.657099 -0.029347
H148  H     H_    0.544962 0.803457 0.157198 -0.029312
H149  H     H_    0.545451 0.196670 0.654949 -0.028833
H150  H     H_    0.999111 0.273220 0.860072 0.137016
H151  H     H_    0.998569 0.727445 0.363073 0.136028
H152  H     H_    0.498810 0.772484 0.863002 0.135830
N1    N     N_R   0.168854 0.679848 0.991432 -0.423298
N2    N     N_R   0.168951 0.320213 0.491503 -0.423362
N3    N     N_R   0.668917 0.179803 0.991541 -0.423388
N4    N     N_R   0.668896 0.820168 0.491364 -0.423272
N5    N     N_R   0.828783 0.321500 0.204172 -0.421900
N6    N     N_R   0.828754 0.678490 0.704339 -0.421802
N7    N     N_R   0.328741 0.821511 0.204349 -0.421845
N8    N     N_R   0.328788 0.178498 0.704172 -0.421865
O1    O     O_2   0.914200 0.445720 0.903420 -0.460618
O2    O     O_3   0.049139 0.661953 0.454537 -0.575140
O3    O     O_3   0.549209 0.838064 0.954527 -0.575227
O4    O     O_3   0.549836 0.161602 0.453781 -0.575581
O5    O     O_3   0.049930 0.518940 0.045960 -0.494009
O6    O     O_3   0.049930 0.481060 0.545960 -0.495709
O7    O     O_3   0.549930 0.018940 0.045960 -0.495596
O8    O     O_3   0.549930 0.981060 0.545960 -0.494182
O9    O     O_2   0.220211 0.632727 0.025364 -0.598527
O10   O     O_2   0.220377 0.367303 0.524607 -0.598400
O11   O     O_2   0.720409 0.132729 0.023659 -0.598392
O12   O     O_2   0.914200 0.554280 0.403420 -0.460489
O13   O     O_2   0.720196 0.867301 0.526158 -0.598511
O14   O     O_2   0.121206 0.730425 0.964633 -0.624937
O15   O     O_2   0.121201 0.269684 0.465723 -0.624450
O16   O     O_2   0.621096 0.230306 0.966757 -0.624357
O17   O     O_2   0.621315 0.769570 0.463668 -0.625069
O18   O     O_2   0.776146 0.367743 0.178498 -0.597474
O19   O     O_2   0.776279 0.632175 0.676349 -0.597596
O20   O     O_2   0.276218 0.867813 0.177080 -0.597543
O21   O     O_2   0.276203 0.132235 0.677625 -0.597517
O22   O     O_2   0.878466 0.272892 0.218051 -0.628742
O23   O     O_2   0.414200 0.945720 0.903420 -0.460518
O24   O     O_2   0.878256 0.727217 0.720387 -0.629241
O25   O     O_2   0.378286 0.772807 0.219897 -0.628957
O26   O     O_2   0.378419 0.227142 0.718872 -0.628897
O27   O     O_3   0.950020 0.480960 0.143730 -0.493821
O28   O     O_3   0.950020 0.519040 0.643730 -0.493865
O29   O     O_3   0.450020 0.980960 0.143730 -0.493851
O30   O     O_3   0.450020 0.019040 0.643730 -0.493838
O31   O     O_3   0.985090 0.412220 0.642040 -0.475791
O32   O     O_3   0.985090 0.587780 0.142040 -0.475883
O33   O     O_3   0.485090 0.912220 0.642040 -0.475933
O34   O     O_2   0.414200 0.054280 0.403420 -0.460584
O35   O     O_3   0.485090 0.087780 0.142040 -0.475749
O36   O     O_2   0.913971 0.378604 0.768569 -0.474393
O37   O     O_2   0.913908 0.621303 0.268478 -0.474420
O38   O     O_2   0.413923 0.878677 0.768501 -0.474379
O39   O     O_2   0.413957 0.121375 0.268559 -0.474443
O40   O     O_3   0.863742 0.488903 0.081268 -0.627411
O41   O     O_3   0.863737 0.511103 0.581297 -0.627328
O42   O     O_3   0.363737 0.988897 0.081296 -0.627353
O43   O     O_3   0.363741 0.011097 0.581272 -0.627384
O44   O     O_3   0.972156 0.329426 0.657190 -0.581748
O45   O     O_3   0.136090 0.488532 0.611943 -0.633108
O46   O     O_3   0.972105 0.670550 0.157829 -0.580719
O47   O     O_3   0.472129 0.829447 0.657761 -0.580591
O48   O     O_3   0.472131 0.170571 0.157268 -0.581822
O49   O     O_2   0.085560 0.445380 0.786390 -0.442369
O50   O     O_2   0.085560 0.554620 0.286390 -0.445348
O51   O     O_2   0.585560 0.945380 0.786390 -0.445083
O52   O     O_2   0.585560 0.054620 0.286390 -0.442630
O53   O     O_3   0.014550 0.412170 0.047860 -0.459908
O54   O     O_3   0.014550 0.587830 0.547860 -0.460157
O55   O     O_3   0.514550 0.912170 0.047860 -0.460163
O56   O     O_3   0.136041 0.511406 0.110942 -0.632483
O57   O     O_3   0.514550 0.087830 0.547860 -0.459922
O58   O     O_2   0.099908 0.399164 0.002480 -0.482933
O59   O     O_2   0.099698 0.601526 0.500639 -0.483484
O60   O     O_2   0.599714 0.898523 0.000677 -0.483437
O61   O     O_2   0.599883 0.100924 0.502342 -0.483003
O62   O     O_3   0.636043 0.988592 0.611049 -0.632448
O63   O     O_3   0.636089 0.011466 0.111853 -0.633073
O64   O     O_3   0.049945 0.338437 0.953724 -0.575705
P1    P     P_3+3 0.909970 0.458430 0.077330 0.998360
P2    P     P_3+3 0.058605 0.620668 0.574231 0.966635
P3    P     P_3+3 0.558629 0.879357 0.074220 0.966641
P4    P     P_3+3 0.558814 0.120428 0.574550 0.967393
P5    P     P_3+3 0.945786 0.625329 0.127025 0.981023
P6    P     P_3+3 0.945801 0.374657 0.626932 0.981012
P7    P     P_3+3 0.445794 0.125335 0.126949 0.981064
P8    P     P_3+3 0.445793 0.874664 0.627016 0.980980
P9    P     P_3+3 0.909970 0.541570 0.577330 0.998456
P10   P     P_3+3 0.409970 0.958430 0.077330 0.998441
P11   P     P_3+3 0.409970 0.041570 0.577330 0.998381
P12   P     P_3+3 0.089830 0.458070 0.612460 0.984728
P13   P     P_3+3 0.089830 0.541930 0.112460 0.985688
P14   P     P_3+3 0.589830 0.958070 0.612460 0.985694
P15   P     P_3+3 0.589830 0.041930 0.112460 0.984773
P16   P     P_3+3 0.058850 0.379613 0.074550 0.967458

loop_
_geom_bond_atom_site_label_1
_geom_bond_atom_site_label_2
_ccdc_geom_bond_type
C141  H150  S    
O46   P5    S    
C132  C136  S    
C20   O62   S    
O31   P6    S    
C71   H111  S    
C52   C75   S    
C53   H39   S    
C8    N5    S    
C14   C121  A    
C88   C105  A    
C33   H83   S    
C151  P9    S    
O55   P3    S    
C52   C53   S    
C56   C58   S    
C5    C9    A    
Ba2   O50   S    
C29   O43   S    
Ba2   P13   S    
C112  N6    Am   
O4    P4    S    
C76   H95   S    
Ba1   O1    S    
C21   H142  S    
C66   C70   A    
C63   C90   A    
C48   H31   S    
C18   O45   S    
C148  P8    S    
C43   H20   S    
C44   H19   S    
C29   H66   S    
C54   H48   S    
Ba3   O55   S    
C46   O15   D    
Ba4   P15   S    
O35   P7    S    
O52   P15   D    
C126  C130  A    
C72   C79   A    
C58   H52   S    
C52   H42   S    
C87   H96   S    
C73   C75   A    
C64   C91   A    
C83   C114  A    
C82   C86   A    
C116  C121  A    
C54   H49   S    
C128  C133  S    
C68   C109  A    
C41   H130  S    
C138  C147  S    
C97   H97   S    
C69   C84   A    
O53   P16   S    
C112  O24   D    
C9    C138  D    
C95   O3    S    
C18   H14   S    
O61   P4    D    
O45   P12   S    
C125  C129  A    
Ba4   O29   S    
C67   C98   A    
Ba1   P1    S    
C116  C134  A    
C138  H107  S    
O27   P1    S    
C42   C149  S    
C87   H92   S    
O29   P10   S    
C53   H41   S    
C93   C141  S    
C81   C112  A    
C80   C84   A    
C34   H1    S    
C47   H25   S    
C115  C119  A    
C13   N3    Am   
O39   P7    D    
C36   H65   S    
C144  H6    S    
C6    H126  S    
O32   P5    S    
O37   P5    D    
C114  O26   D    
C73   C120  A    
O54   P2    S    
C22   H2    S    
C82   C113  A    
Ba4   O57   S    
C57   N3    Am   
C34   H84   S    
C19   H15   S    
C147  P5    S    
C60   H56   S    
C99   C103  A    
C139  H108  S    
C58   H50   S    
O3    P3    S    
O51   P14   D    
C124  P13   S    
C50   H38   S    
Ba4   O35   S    
C30   H75   S    
C31   H81   S    
Ba1   O6    S    
Ba2   O32   S    
C40   H129  S    
C17   H12   S    
C15   H139  S    
C51   H33   S    
C36   O46   S    
O28   P9    S    
C75   C80   A    
C94   C143  S    
C32   H78   S    
C61   C66   A    
C8    C137  D    
C63   C68   A    
C118  C123  A    
C2    O10   D    
O43   P11   S    
O48   P7    S    
Ba3   O7    S    
Ba3   O8    S    
C59   H60   S    
C39   C150  D    
C46   C63   A    
C26   H62   S    
O5    P13   S    
C108  N7    Am   
C57   O16   D    
O49   P12   D    
C35   N1    Am   
C7    C11   A    
C47   H23   S    
C94   H143  S    
C110  O21   D    
C137  C146  S    
C33   H79   S    
C44   H18   S    
C91   H104  S    
C26   C30   S    
O40   P1    S    
C149  P7    S    
C3    C42   D    
C20   H11   S    
C110  N8    Am   
C16   C123  A    
C127  C132  A    
C6    C10   A    
C130  C135  S    
O2    P2    S    
C45   C47   S    
C38   O48   S    
C89   H102  S    
C113  N7    Am   
C66   C92   A    
C49   H30   S    
O42   P10   S    
C12   C124  A    
C13   C120  A    
C55   H44   S    
C4    C8    A    
Ba2   O5    S    
C45   H26   S    
C142  O9    D    
C72   C109  A    
C41   C152  D    
C96   O4    S    
C28   H64   S    
C39   C146  S    
C105  C110  A    
C62   C89   A    
O6    P12   S    
C96   H149  S    
C72   H112  S    
C73   H113  S    
Ba3   Ba4   S    
C47   H22   S    
C48   C49   S    
C74   C131  A    
C97   C102  A    
O50   P13   D    
C17   C21   S    
C50   C51   S    
C34   O44   S    
C103  C107  A    
C140  H110  S    
C14   C125  A    
C71   C78   A    
C26   H67   S    
Ba1   P12   S    
C114  N8    Am   
C94   O2    S    
C117  C135  A    
Ba4   O52   S    
C86   C104  A    
C106  O18   D    
O12   P9    D    
C67   C86   A    
Ba1   O53   S    
C123  P3    S    
C24   O13   D    
C20   H16   S    
C27   H68   S    
C135  N3    S    
C5    C151  A    
C127  P14   S    
C130  H117  S    
Ba3   P10   S    
O1    P1    D    
C93   H146  S    
C48   H32   S    
C83   C88   A    
C77   C81   A    
C95   H148  S    
C91   C97   A    
C79   C83   A    
C43   C141  S    
C90   C101  A    
C3    P11   S    
C125  P12   S    
C99   H99   S    
O8    P14   S    
C7    H127  S    
C37   C76   S    
Ba3   P14   S    
Ba4   O34   S    
Ba3   O23   S    
C68   C88   A    
C28   O42   S    
C24   C131  A    
O63   P15   S    
C38   H87   S    
C65   H134  S    
C96   H145  S    
C20   C25   S    
C101  C105  A    
C45   H27   S    
C32   H73   S    
Ba4   O7    S    
C106  N5    Am   
C31   H77   S    
C56   H53   S    
C36   H85   S    
C15   C126  A    
C14   H138  S    
C129  C134  S    
C25   H131  S    
C17   H8    S    
C1    C34   S    
Ba2   O54   S    
O58   P16   D    
C27   H63   S    
C32   H82   S    
C87   H136  S    
C53   H40   S    
C31   H72   S    
C1    H93   S    
C93   H141  S    
C117  H122  S    
Ba3   O33   S    
C29   H70   S    
C21   H35   S    
C54   C77   S    
C81   C85   A    
C107  N6    Am   
C111  O22   D    
C54   C55   S    
C78   C82   A    
C29   C33   S    
C104  C108  A    
C59   C79   S    
C23   H13   S    
C107  O19   D    
C62   C67   A    
C37   H76   S    
C70   C131  A    
C85   C103  A    
C24   N4    Am   
C10   N7    S    
C65   H94   S    
Ba3   O30   S    
C27   O41   S    
C139  C148  S    
C93   O64   S    
C143  H5    S    
C16   H140  S    
C35   C62   A    
C27   C31   S    
C49   H28   S    
C16   C127  A    
C28   C32   S    
C58   H51   S    
C100  C104  A    
C108  O20   D    
O56   P13   S    
C35   O14   D    
C10   C139  D    
C101  H101  S    
C132  H118  S    
C1    H89   S    
O47   P8    S    
C129  H116  S    
C150  P1    S    
Ba1   O5    S    
O41   P9    S    
C96   C145  S    
C12   H137  S    
C15   C122  A    
C142  N1    Am   
C41   C148  S    
C51   H36   S    
C113  O25   D    
O30   P11   S    
C74   C77   A    
C136  N4    S    
C2    N2    Am   
C17   O56   S    
C74   H114  S    
C121  P16   S    
O57   P4    S    
C133  N1    S    
C115  H119  S    
C39   H128  S    
O59   P2    D    
C55   H47   S    
C65   H90   S    
Ba1   O31   S    
C18   C22   S    
C92   C99   A    
O38   P8    D    
C23   H57   S    
C119  P2    S    
C59   H59   S    
C23   H120  S    
C95   C144  S    
C92   H105  S    
C137  H106  S    
C30   H80   S    
C118  H123  S    
C128  H115  S    
C116  H121  S    
O60   P3    D    
Ba2   O27   S    
C144  H152  S    
C146  P6    S    
C3    C7    A    
Ba4   P11   S    
C70   C85   A    
C60   H58   S    
C22   H46   S    
C12   C119  A    
C13   O11   D    
C134  N2    S    
Ba2   O12   S    
C143  H151  S    
C45   C143  S    
Ba1   Ba2   S    
C140  C149  S    
C49   H29   S    
O23   P10   D    
C122  P4    S    
C95   H144  S    
C37   O47   S    
C18   H9    S    
C56   C78   S    
Ba2   O6    S    
C25   H24   S    
C71   C98   A    
C60   H55   S    
C145  H7    S    
C19   C23   S    
O33   P8    S    
C4    C150  A    
C22   H109  S    
C25   H61   S    
C50   H37   S    
O44   P6    S    
C124  C128  A    
C89   C100  A    
C4    H124  S    
C50   C145  S    
C33   H74   S    
C76   H91   S    
C40   C147  S    
C36   C65   S    
C115  C133  A    
C51   H34   S    
O62   P14   S    
C6    C152  A    
C141  H4    S    
C64   C69   A    
C59   C60   S    
C2    C109  A    
C94   H147  S    
C19   H10   S    
C84   C102  A    
C11   N8    S    
C55   H45   S    
C43   C44   S    
C69   C120  A    
O34   P11   D    
C5    H125  S    
C145  H3    S    
C46   N2    Am   
C80   C111  A    
C90   H103  S    
C26   O40   S    
O7    P15   S    
O36   P6    D    
C44   H17   S    
C102  C106  A    
Ba1   O49   S    
C40   C151  D    
O64   P16   S    
Ba3   O51   S    
C118  C136  A    
C61   N4    Am   
C1    H133  S    
C21   H98   S    
C76   H135  S    
C9    N6    S    
C100  H100  S    
C37   H86   S    
C42   H132  S    
C52   H43   S    
Ba1   O28   S    
C30   H71   S    
C117  C122  A    
C43   H21   S    
C98   C142  A    
C57   C64   A    
C152  P10   S    
C126  P15   S    
C38   H88   S    
C111  N5    Am   
Ba2   P9    S    
C11   C140  D    
C28   H69   S    
C48   C144  S    
Ba4   O8    S    
C19   O63   S    
C56   H54   S    
C61   O17   D    
C38   C87   S    
