data_mof_unit_27097.cif
_audit_creation_date              2012-12-10T19:07:56-0500
_audit_creation_method            fapswitch 2.2
_symmetry_space_group_name_H-M    P1
_symmetry_Int_Tables_number       1
_space_group_crystal_system       triclinic
_cell_length_a                    12.997031
_cell_length_b                    13.550685
_cell_length_c                    23.415861
_cell_angle_alpha                 88.938295
_cell_angle_beta                  92.52528
_cell_angle_gamma                 85.794853
_cell_volume                      4107.89405635

loop_
_atom_site_label
_atom_site_type_symbol
_atom_type_description
_atom_site_fract_x
_atom_site_fract_y
_atom_site_fract_z
_atom_type_partial_charge
C1    C     C_R   0.481074 0.685211 0.499925 0.886851
C2    C     C_R   0.518918 0.314749 0.500123 0.882945
C3    C     C_R   0.574544 0.446479 0.767168 0.439874
C4    C     C_R   0.592035 0.551775 0.242161 0.475163
C5    C     C_R   0.578627 0.442720 0.707443 -0.094402
C6    C     C_R   0.573338 0.567185 0.299958 -0.085528
C7    C     C_R   0.497589 0.494001 0.673382 -0.333783
C8    C     C_R   0.505213 0.505839 0.327214 -0.326968
C9    C     C_R   0.411451 0.541257 0.699442 0.335502
C10   C     C_R   0.446446 0.441180 0.295033 0.329744
C11   C     C_R   0.401434 0.529828 0.758085 0.405433
C12   C     C_R   0.451640 0.441613 0.235792 0.374990
C13   C     C_R   0.484922 0.486661 0.792074 -0.003765
C14   C     C_R   0.527164 0.493668 0.209648 -0.009050
C15   C     C_1   0.534557 0.211727 0.498095 -0.185359
C16   C     C_1   0.465510 0.788314 0.497932 -0.185554
C17   C     C_2   0.546423 0.019153 0.494317 0.408431
C18   C     C_2   0.454026 0.980968 0.491366 0.398304
C19   C     C_1   0.455894 0.875850 0.495190 -0.078422
C20   C     C_1   0.544402 0.124277 0.496126 -0.084105
C21   C     C_2   0.034263 0.460091 0.493956 0.323237
C22   C     C_2   0.965017 0.538453 0.501450 0.341891
C23   C     C_R   0.499572 0.497487 0.610941 0.939877
C24   C     C_R   0.500753 0.503687 0.389242 0.944693
C25   C     C_1   0.853822 0.523939 0.506313 0.065190
C26   C     C_1   0.146009 0.475522 0.491922 0.067507
C27   C     C_R   0.551693 0.407081 0.121818 0.568980
C28   C     C_R   0.482552 0.576085 0.879597 0.547725
C29   C     C_R   0.509591 0.581609 0.118948 0.543831
C30   C     C_R   0.489480 0.399417 0.882846 0.559725
C31   C     C_R   0.511929 0.584567 0.058875 -0.070542
C32   C     C_R   0.509275 0.396962 0.942672 -0.069138
C33   C     C_R   0.519979 0.492622 0.030665 -0.044875
C34   C     C_R   0.507169 0.489294 0.970724 -0.045923
C35   C     C_R   0.540321 0.403759 0.062452 -0.062700
C36   C     C_R   0.492026 0.578796 0.938939 -0.056853
C37   C     C_R   0.502965 0.674311 0.025804 0.099754
C38   C     C_R   0.532594 0.307650 0.975603 0.094259
C39   C     C_R   0.491584 0.669547 0.966414 -0.196018
C40   C     C_R   0.547904 0.313200 0.034876 -0.202390
H1    H     H_    0.483683 0.738125 0.941456 0.187825
H2    H     H_    0.564233 0.245240 0.059864 0.187653
N1    N     N_R   0.532045 0.494308 0.148735 -0.313782
N2    N     N_R   0.481988 0.487530 0.853027 -0.312827
N3    N     N_1   0.234540 0.484780 0.490870 -0.087630
N4    N     N_1   0.765460 0.515220 0.509130 -0.102918
O1    O     O_R   0.402510 0.634760 0.496660 -0.620357
O2    O     O_R   0.597490 0.365240 0.503340 -0.605989
O3    O     O_R   0.572960 0.644530 0.502520 -0.599549
O4    O     O_R   0.427040 0.355470 0.497480 -0.610533
O5    O     O_R   0.414760 0.495140 0.580910 -0.574508
O6    O     O_R   0.585240 0.504860 0.419090 -0.631336
O7    O     O_R   0.585200 0.504910 0.586770 -0.624517
O8    O     O_R   0.414800 0.495090 0.413230 -0.579772
O9    O     O_2   0.579718 0.323574 0.152759 -0.567500
O10   O     O_2   0.476311 0.661261 0.848322 -0.574466
O11   O     O_2   0.479897 0.663381 0.147661 -0.576569
O12   O     O_2   0.477325 0.315764 0.853933 -0.581807
Zn1   Zn    Zn3+2 0.386190 0.493470 0.496090 0.990746
Zn2   Zn    Zn3+2 0.613810 0.506530 0.503910 0.953405
C41   C     C_3   0.514351 0.776285 0.050081 -0.358551
C42   C     C_3   0.408627 0.831573 0.057383 -0.307198
C43   C     C_3   0.420106 0.932718 0.083547 -0.859867
H3    H     H_    0.459004 0.924033 0.126739 0.278732
H4    H     H_    0.465937 0.978642 0.055920 0.256736
H5    H     H_    0.342601 0.971526 0.087594 0.246800
H6    H     H_    0.366918 0.842263 0.014979 0.208098
H7    H     H_    0.361252 0.787755 0.085306 0.256605
H8    H     H_    0.562462 0.772724 0.090450 0.250253
H9    H     H_    0.558431 0.820243 0.020297 0.169625
C44   C     C_3   0.546515 0.204855 0.950948 -0.351941
C45   C     C_3   0.443390 0.156511 0.946359 -0.312843
C46   C     C_3   0.456580 0.053948 0.920628 -0.854483
H10   H     H_    0.484638 0.059437 0.876635 0.279971
H11   H     H_    0.512450 0.005015 0.947418 0.250546
H12   H     H_    0.381142 0.020347 0.918619 0.249867
H13   H     H_    0.412706 0.149154 0.989703 0.206271
H14   H     H_    0.385637 0.203234 0.919530 0.254899
H15   H     H_    0.585381 0.205702 0.909779 0.251219
H16   H     H_    0.600863 0.156949 0.979389 0.169029
O13   O     O_3   0.655389 0.404420 0.802053 -0.623114
C47   C     C_3   0.722946 0.478336 0.815877 0.051005
H17   H     H_    0.681352 0.542439 0.836162 0.158955
H18   H     H_    0.759214 0.504876 0.776736 0.138083
C48   C     C_3   0.807855 0.434649 0.858086 -0.314602
H19   H     H_    0.772204 0.403834 0.896207 0.231319
H20   H     H_    0.853434 0.373568 0.837518 0.224148
C49   C     C_3   0.879869 0.512906 0.877304 -0.975509
H21   H     H_    0.915270 0.546006 0.839835 0.267761
H22   H     H_    0.942395 0.478284 0.906560 0.264494
H23   H     H_    0.836498 0.572287 0.900402 0.272083
O14   O     O_3   0.667402 0.601075 0.215810 -0.623711
C50   C     C_3   0.756290 0.535477 0.210231 0.071398
H24   H     H_    0.798933 0.563269 0.173875 0.171135
H25   H     H_    0.737461 0.458829 0.199299 0.149717
C51   C     C_3   0.827322 0.533689 0.264484 -0.393414
H26   H     H_    0.846034 0.610345 0.274558 0.231439
H27   H     H_    0.787524 0.502934 0.301098 0.220595
C52   C     C_3   0.927672 0.470415 0.257162 -0.940786
H28   H     H_    0.911197 0.393060 0.247436 0.270452
H29   H     H_    0.976460 0.469929 0.297337 0.260850
H30   H     H_    0.971009 0.501317 0.222034 0.260457
C53   C     C_3   0.666405 0.379554 0.681869 -0.326181
C54   C     C_3   0.627066 0.285489 0.655788 -0.308239
C55   C     C_3   0.713450 0.223964 0.627992 -0.883332
H31   H     H_    0.743140 0.266244 0.591908 0.277988
H32   H     H_    0.777722 0.203250 0.659781 0.260823
H33   H     H_    0.682998 0.155210 0.611301 0.246297
H34   H     H_    0.595591 0.240010 0.690000 0.235987
H35   H     H_    0.564048 0.304282 0.623073 0.211455
H36   H     H_    0.706862 0.422702 0.650377 0.217039
H37   H     H_    0.727601 0.355634 0.714809 0.223968
C56   C     C_3   0.620556 0.653383 0.330020 -0.340215
C57   C     C_3   0.536842 0.734919 0.342771 -0.336608
C58   C     C_3   0.583893 0.825694 0.367587 -0.885640
H38   H     H_    0.627410 0.805696 0.408549 0.286345
H39   H     H_    0.636615 0.856814 0.337034 0.260225
H40   H     H_    0.521526 0.883462 0.375718 0.256277
H41   H     H_    0.491882 0.757687 0.302577 0.244077
H42   H     H_    0.482742 0.706970 0.373579 0.210409
H43   H     H_    0.665748 0.628540 0.369534 0.211560
H44   H     H_    0.676832 0.687416 0.302906 0.237893
O15   O     O_3   0.331705 0.592363 0.667433 -0.609329
C59   C     C_3   0.361629 0.686403 0.650023 0.130149
H45   H     H_    0.322545 0.705120 0.607638 0.172921
H46   H     H_    0.446194 0.688422 0.644017 0.095533
C60   C     C_3   0.326545 0.765279 0.692380 -0.319418
H47   H     H_    0.242358 0.762821 0.698247 0.240978
H48   H     H_    0.368221 0.749966 0.734421 0.264219
C61   C     C_3   0.348165 0.868566 0.671083 -0.964558
H49   H     H_    0.432201 0.872985 0.665644 0.271467
H50   H     H_    0.322368 0.924144 0.702688 0.276141
H51   H     H_    0.305669 0.886507 0.629539 0.259707
O16   O     O_3   0.377646 0.382588 0.320546 -0.611683
C62   C     C_3   0.430695 0.295328 0.344492 0.130188
H52   H     H_    0.396873 0.280229 0.386216 0.174748
H53   H     H_    0.515093 0.301411 0.353664 0.096171
C63   C     C_3   0.414618 0.207633 0.305665 -0.310756
H54   H     H_    0.330596 0.201879 0.296746 0.232018
H55   H     H_    0.451527 0.219567 0.264462 0.267073
C64   C     C_3   0.461433 0.110776 0.333368 -1.003722
H56   H     H_    0.546165 0.113517 0.340554 0.267595
H57   H     H_    0.446603 0.048330 0.304844 0.275616
H58   H     H_    0.426314 0.097232 0.374881 0.282454
O17   O     O_3   0.313565 0.570503 0.782684 -0.599871
C65   C     C_3   0.250101 0.494609 0.798132 0.080976
H59   H     H_    0.209770 0.518493 0.836964 0.163204
H60   H     H_    0.293835 0.422535 0.809724 0.146485
C66   C     C_3   0.168976 0.480091 0.750165 -0.310263
H61   H     H_    0.123628 0.551583 0.740244 0.240133
H62   H     H_    0.207913 0.455505 0.711034 0.246183
C67   C     C_3   0.095760 0.402657 0.767156 -0.987383
H63   H     H_    0.139196 0.329614 0.774950 0.273172
H64   H     H_    0.036497 0.395511 0.732141 0.272410
H65   H     H_    0.056167 0.424820 0.806475 0.270546
O18   O     O_3   0.388268 0.384312 0.203615 -0.605975
C68   C     C_3   0.299724 0.443646 0.183665 0.099177
H66   H     H_    0.319965 0.515514 0.164780 0.140662
H67   H     H_    0.247654 0.458557 0.219530 0.165105
C69   C     C_3   0.243002 0.387963 0.137296 -0.321255
H68   H     H_    0.296348 0.369208 0.102590 0.229986
H69   H     H_    0.218102 0.317921 0.155829 0.228276
C70   C     C_3   0.148612 0.449837 0.111927 -0.977033
H70   H     H_    0.093741 0.468912 0.145722 0.263071
H71   H     H_    0.108886 0.406944 0.078760 0.268637
H72   H     H_    0.172266 0.519005 0.091765 0.268119
O19   O     O_3   0.363180 0.043801 0.485325 -0.676373
C71   C     C_3   0.271551 0.993727 0.478911 0.091945
H73   H     H_    0.206049 0.047485 0.488272 0.162053
H74   H     H_    0.269009 0.931917 0.510703 0.138722
C72   C     C_3   0.254611 0.959143 0.417311 -0.372232
H75   H     H_    0.252151 0.023853 0.387358 0.233613
H76   H     H_    0.319228 0.906311 0.405648 0.222669
C73   C     C_3   0.153876 0.908626 0.410040 -0.957983
H77   H     H_    0.155371 0.842702 0.439072 0.274635
H78   H     H_    0.143631 0.884281 0.365264 0.273498
H79   H     H_    0.087322 0.960803 0.419625 0.254309
O20   O     O_3   0.637236 0.956040 0.498094 -0.671967
C74   C     C_3   0.729474 0.005244 0.495719 0.094665
H80   H     H_    0.793550 0.952665 0.512823 0.161637
H81   H     H_    0.729943 0.070321 0.523934 0.141513
C75   C     C_3   0.751957 0.032846 0.433897 -0.358773
H82   H     H_    0.756920 0.964869 0.408068 0.231277
H83   H     H_    0.688608 0.084066 0.414841 0.219654
C76   C     C_3   0.853170 0.082817 0.431239 -0.969595
H84   H     H_    0.848082 0.153145 0.454948 0.280155
H85   H     H_    0.868917 0.099718 0.386011 0.271928
H86   H     H_    0.918153 0.033270 0.450132 0.250011
O21   O     O_3   0.001949 0.632048 0.507061 -0.664981
C77   C     C_3   0.940685 0.705325 0.474348 0.081982
H87   H     H_    0.966386 0.778446 0.487215 0.171367
H88   H     H_    0.857444 0.706999 0.483830 0.144665
C78   C     C_3   0.956447 0.694288 0.410042 -0.383929
H89   H     H_    0.040131 0.694075 0.402046 0.237892
H90   H     H_    0.928396 0.623085 0.395325 0.206242
C79   C     C_3   0.898105 0.778620 0.375329 -0.968226
H91   H     H_    0.814073 0.778527 0.381823 0.265831
H92   H     H_    0.911249 0.768855 0.329183 0.267718
H93   H     H_    0.925582 0.850935 0.388348 0.276458
O22   O     O_3   0.996019 0.366319 0.490347 -0.673387
C80   C     C_3   0.064882 0.293633 0.466929 0.084339
H94   H     H_    0.035232 0.220456 0.476209 0.169352
H95   H     H_    0.143602 0.290422 0.487888 0.146182
C81   C     C_3   0.067437 0.306942 0.401749 -0.367541
H96   H     H_    0.987429 0.308947 0.382673 0.233570
H97   H     H_    0.100227 0.377933 0.390792 0.217767
C82   C     C_3   0.132595 0.222489 0.375778 -0.928759
H98   H     H_    0.212733 0.218298 0.394699 0.275485
H99   H     H_    0.135165 0.235332 0.328910 0.268176
H100  H     H_    0.098195 0.151092 0.383607 0.261810

loop_
_geom_bond_atom_site_label_1
_geom_bond_atom_site_label_2
_ccdc_geom_bond_type
C41   H9    S    
C24   O6    A    
C62   C63   S    
C38   C40   A    
C21   C26   S    
C5    C53   S    
C50   H24   S    
C46   H11   S    
C80   H94   S    
C49   H22   S    
C70   H70   S    
C72   H75   S    
C43   H4    S    
C57   C58   S    
C28   O10   S    
C62   H52   S    
C39   H1    S    
C48   H19   S    
C72   H76   S    
C68   H66   S    
O3    Zn2   S    
C42   H6    S    
O4    Zn1   S    
O18   C68   S    
C70   H71   S    
C65   H59   S    
C66   H62   S    
O17   C65   S    
C54   H34   S    
C8    C10   A    
C27   O9    S    
C76   H85   S    
C24   O8    A    
C58   H38   S    
C51   C52   S    
C79   H91   S    
C17   C20   S    
C53   H36   S    
C18   C19   S    
C46   H10   S    
C73   H77   S    
C44   H16   S    
C45   H14   S    
C2    O4    A    
C77   C78   S    
C33   C35   A    
C75   H82   S    
C17   O20   S    
C56   H44   S    
O22   C80   S    
C78   H90   S    
C22   C25   S    
C51   H27   S    
C3    O13   S    
C82   H100  S    
C67   H65   S    
O2    Zn2   S    
C32   C38   A    
O6    Zn2   S    
C57   H41   S    
C3    C13   A    
C74   C75   S    
C58   H40   S    
C40   H2    S    
C43   H5    S    
C50   H25   S    
C62   H53   S    
C21   C22   D    
C29   N1    A    
C80   C81   S    
C80   H95   S    
C30   N2    A    
C41   C42   S    
C12   O18   S    
C79   H93   S    
C44   H15   S    
C54   C55   S    
C72   C73   S    
O7    Zn2   S    
C23   O7    A    
C65   H60   S    
O8    Zn1   S    
C48   H20   S    
C15   C20   T    
C37   C39   A    
C55   H33   S    
C82   H98   S    
C69   C70   S    
O20   C74   S    
O15   C59   S    
C70   H72   S    
C4    C6    A    
C64   H58   S    
O19   C71   S    
C5    C7    A    
C1    O1    A    
C76   H86   S    
C6    C8    A    
C2    O2    A    
C43   H3    S    
C28   N2    A    
O13   C47   S    
C31   C37   A    
C53   H37   S    
C75   C76   S    
C32   C34   A    
C61   H50   S    
C60   H48   S    
C6    C56   S    
C42   C43   S    
C65   C66   S    
C55   H32   S    
C23   O5    A    
C52   H28   S    
C81   C82   S    
C78   C79   S    
C51   H26   S    
C31   C33   A    
C17   C18   D    
C1    C16   S    
C81   H96   S    
C22   O21   S    
C2    C15   S    
C9    C11   A    
C73   H79   S    
C10   C12   A    
C59   C60   S    
C9    O15   S    
C79   H92   S    
C71   H73   S    
C52   H29   S    
C81   H97   S    
C78   H89   S    
C50   C51   S    
C47   H18   S    
C46   H12   S    
C66   C67   S    
C61   H51   S    
O5    Zn1   S    
C21   O22   S    
C60   H47   S    
C54   H35   S    
C59   H46   S    
C56   C57   S    
C67   H64   S    
C48   C49   S    
C41   H8    S    
C7    C9    A    
C58   H39   S    
C38   C44   S    
N3    Zn1   S    
C77   H88   S    
C75   H83   S    
N4    Zn2   S    
C36   C39   A    
C11   O17   S    
C10   O16   S    
C29   O11   S    
C45   C46   S    
C3    C5    A    
C63   C64   S    
C45   H13   S    
C37   C41   S    
C18   O19   S    
O16   C62   S    
C63   H55   S    
C68   C69   S    
C47   C48   S    
C55   H31   S    
C42   H7    S    
C27   C35   A    
C69   H68   S    
C26   N3    T    
C64   H57   S    
C61   H49   S    
C12   C14   A    
C60   C61   S    
C44   C45   S    
C29   C31   A    
C66   H61   S    
C30   C32   A    
C11   C13   A    
C76   H84   S    
C49   H23   S    
C16   C19   T    
C7    C23   S    
C30   O12   S    
C71   H74   S    
O14   C50   S    
C8    C24   S    
C33   C34   A    
C35   C40   A    
C34   C36   A    
C4    C14   A    
O21   C77   S    
C73   H78   S    
C77   H87   S    
C63   H54   S    
O1    Zn1   S    
C74   H80   S    
C27   N1    A    
C52   H30   S    
C56   H43   S    
C49   H21   S    
C28   C36   A    
C68   H67   S    
C47   H17   S    
C53   C54   S    
C82   H99   S    
C59   H45   S    
C67   H63   S    
C71   C72   S    
C74   H81   S    
C64   H56   S    
C1    O3    A    
C25   N4    T    
C13   N2    S    
C57   H42   S    
C69   H69   S    
C14   N1    S    
C4    O14   S    
