data_mof_unit_27342.cif
_audit_creation_date              2012-12-10T18:07:39-0500
_audit_creation_method            fapswitch 2.2
_symmetry_space_group_name_H-M    P1
_symmetry_Int_Tables_number       1
_space_group_crystal_system       triclinic
_cell_length_a                    11.496158
_cell_length_b                    12.836265
_cell_length_c                    12.879941
_cell_angle_alpha                 82.067764
_cell_angle_beta                  94.480707
_cell_angle_gamma                 101.630061
_cell_volume                      1841.34953431

loop_
_atom_site_label
_atom_site_type_symbol
_atom_type_description
_atom_site_fract_x
_atom_site_fract_y
_atom_site_fract_z
_atom_type_partial_charge
C1    C     C_R   0.490626 0.439650 0.691701 0.852811
C2    C     C_R   0.730017 0.589742 0.928669 0.038911
C3    C     C_R   0.676253 0.519689 0.855909 0.051766
C4    C     C_R   0.717300 0.501233 0.499654 0.871450
C5    C     C_R   0.505389 0.519700 0.129787 -0.248159
C6    C     C_R   0.652565 0.670116 0.178005 -0.210877
C7    C     C_R   0.488390 0.398579 0.802865 -0.117396
C8    C     C_R   0.309916 0.092067 0.357763 -0.304030
C9    C     C_R   0.631714 0.793456 0.641462 -0.029179
C10   C     C_R   0.627708 0.878712 0.696090 0.067009
C11   C     C_R   0.553730 0.949846 0.655391 -0.209048
C12   C     C_R   0.551330 0.591234 0.201024 -0.056190
C13   C     C_R   0.501879 0.948771 0.552875 -0.057583
C14   C     C_R   0.491468 0.851688 0.508750 0.206466
C15   C     C_R   0.452438 0.035956 0.496141 -0.005531
C16   C     C_R   0.515555 0.559657 0.308423 0.848881
C17   C     C_R   0.365013 0.012920 0.414609 0.132526
C18   C     C_R   0.338412 0.912250 0.383886 -0.329636
C19   C     C_R   0.405015 0.835086 0.422883 0.105789
C20   C     C_R   0.492527 0.146568 0.507949 0.176664
C21   C     C_R   0.349065 0.197098 0.374544 -0.017478
C22   C     C_R   0.282683 0.499100 0.499415 0.893406
C23   C     C_R   0.400144 0.309742 0.834934 -0.283677
C24   C     C_1   0.838582 0.503701 0.498382 -0.189157
C25   C     C_1   0.940856 0.502770 0.497567 -0.003598
C26   C     C_1   0.059199 0.499696 0.497454 -0.001873
C27   C     C_1   0.161402 0.497920 0.498067 -0.202380
C28   C     C_R   0.710806 0.672420 0.086162 -0.181793
C29   C     C_3   0.598361 0.184991 0.580888 -0.370199
C30   C     C_3   0.717268 0.174629 0.540849 -0.349453
C31   C     C_3   0.820902 0.217519 0.614802 -0.884561
C32   C     C_3   0.698069 0.891403 0.798828 -0.430123
C33   C     C_3   0.830975 0.929045 0.779974 -0.337066
C34   C     C_R   0.390504 0.270620 0.941083 0.128227
C35   C     C_3   0.903170 0.951235 0.881788 -0.884282
C36   C     C_3   0.480748 0.269932 0.125346 -0.415044
C37   C     C_3   0.571952 0.198363 0.120580 -0.329567
C38   C     C_3   0.592125 0.133340 0.226454 -0.873494
C39   C     C_R   0.459436 0.328849 0.016843 0.105030
C40   C     C_R   0.531947 0.429616 0.982331 -0.013760
C41   C     C_R   0.565859 0.450036 0.878260 -0.000562
C42   C     C_R   0.570437 0.512113 0.045519 0.053324
C43   C     C_R   0.670818 0.592958 0.019280 0.129066
H1    H     H_    0.690600 0.725298 0.233669 0.156210
H2    H     H_    0.826076 0.304156 0.618023 0.267372
H3    H     H_    0.809003 0.175118 0.695472 0.257208
H4    H     H_    0.905670 0.205904 0.586596 0.254723
H5    H     H_    0.718729 0.089674 0.534167 0.228753
H6    H     H_    0.729566 0.221021 0.461698 0.234247
H7    H     H_    0.603130 0.267064 0.592127 0.262739
H8    H     H_    0.588455 0.152312 0.663270 0.155528
H9    H     H_    0.873586 0.015700 0.916126 0.257084
H10   H     H_    0.892708 0.877672 0.939355 0.269133
H11   H     H_    0.998768 0.977612 0.865470 0.248268
H12   H     H_    0.272118 0.895793 0.320349 0.152099
H13   H     H_    0.865016 0.867711 0.744588 0.209908
H14   H     H_    0.844565 0.003401 0.723624 0.233337
H15   H     H_    0.667693 0.951252 0.839689 0.202824
H16   H     H_    0.682821 0.813840 0.850872 0.209898
H17   H     H_    0.403082 0.767545 0.291417 0.166062
H18   H     H_    0.290092 0.711688 0.368825 0.173338
H19   H     H_    0.841463 0.699614 0.836916 0.190894
H20   H     H_    0.906017 0.606070 0.911222 0.210114
H21   H     H_    0.615544 0.186521 0.289069 0.265178
H22   H     H_    0.510813 0.073070 0.245992 0.274513
H23   H     H_    0.240437 0.073359 0.297482 0.149430
H24   H     H_    0.666006 0.090330 0.222452 0.241956
H25   H     H_    0.541298 0.141962 0.061448 0.227086
H26   H     H_    0.658078 0.249538 0.096555 0.221963
H27   H     H_    0.516488 0.324846 0.184163 0.221327
H28   H     H_    0.395745 0.220799 0.154047 0.217203
H29   H     H_    0.225560 0.179084 0.942943 0.182136
H30   H     H_    0.336101 0.111621 0.936003 0.178847
H31   H     H_    0.735228 0.568767 0.709989 0.204478
H32   H     H_    0.715882 0.433572 0.744084 0.167596
H33   H     H_    0.682299 0.733473 0.674549 0.124534
H34   H     H_    0.528776 0.998229 0.708204 0.138397
H35   H     H_    0.789002 0.733783 0.069858 0.156704
H36   H     H_    0.422423 0.464004 0.145390 0.141812
H37   H     H_    0.341363 0.268259 0.777372 0.166635
H38   H     H_    0.307627 0.259613 0.331310 0.135944
N1    N     N_R   0.440320 0.222190 0.444690 -0.118347
N2    N     N_R   0.559060 0.776980 0.554780 -0.130195
N3    N     N_3   0.381544 0.743099 0.369706 -0.362999
N4    N     N_3   0.844710 0.656128 0.911377 -0.478715
N5    N     N_3   0.311388 0.171545 0.971929 -0.478802
N6    N     N_3   0.744506 0.508237 0.770836 -0.472245
O1    O     O_R   0.471500 0.366730 0.627160 -0.639097
O2    O     O_R   0.509620 0.544830 0.662520 -0.602280
O3    O     O_R   0.646490 0.410960 0.482310 -0.623197
O4    O     O_R   0.684610 0.589050 0.517670 -0.623216
O5    O     O_R   0.490380 0.455170 0.337480 -0.615729
O6    O     O_R   0.528500 0.633270 0.372840 -0.592243
O7    O     O_R   0.315390 0.410950 0.482330 -0.607200
O8    O     O_R   0.353510 0.589040 0.517690 -0.585152
Zn1   Zn    Zn3+2 0.474550 0.381080 0.476390 0.910409
Zn2   Zn    Zn3+2 0.525450 0.618920 0.523610 0.937901

loop_
_geom_bond_atom_site_label_1
_geom_bond_atom_site_label_2
_ccdc_geom_bond_type
C5    C42   A    
O1    Zn1   S    
C8    H23   S    
C20   N1    A    
C35   H10   S    
C11   C13   A    
C22   O8    A    
C32   H15   S    
C26   C27   T    
C29   C30   S    
C30   H5    S    
C36   C37   S    
C37   H26   S    
C6    C12   A    
C30   C31   S    
C4    C24   S    
C37   H25   S    
O5    Zn1   S    
C2    N4    S    
C18   C19   A    
C34   N5    S    
C11   H34   S    
C6    C28   A    
C12   C16   S    
C31   H3    S    
C33   H14   S    
C9    H33   S    
H31   N6    S    
C5    H36   S    
C28   H35   S    
C9    C10   A    
C38   H21   S    
C36   H28   S    
C20   C29   S    
C4    O4    A    
C33   H13   S    
C40   C42   A    
C31   H4    S    
C13   C14   A    
H20   N4    S    
C35   H11   S    
C22   O7    A    
C14   N2    A    
C36   H27   S    
C8    C21   A    
C4    O3    A    
C29   H7    S    
C15   C20   A    
H19   N4    S    
N1    Zn1   S    
C3    N6    S    
C34   C39   A    
C24   C25   T    
C5    C12   A    
C39   C40   A    
C25   C26   S    
O2    Zn2   S    
C37   C38   S    
C38   H22   S    
C2    C43   A    
C23   C34   A    
C17   C18   A    
C16   O6    A    
O4    Zn2   S    
O7    Zn1   S    
C18   H12   S    
C9    N2    A    
H32   N6    S    
C40   C41   A    
C30   H6    S    
C21   H38   S    
C16   O5    A    
C22   C27   S    
C13   C15   A    
N2    Zn2   S    
C23   H37   S    
C42   C43   A    
C19   N3    S    
C38   H24   S    
O6    Zn2   S    
C29   H8    S    
C15   C17   A    
C3    C41   A    
C1    O2    A    
C1    C7    S    
C14   C19   A    
C36   C39   S    
H18   N3    S    
H29   N5    S    
O8    Zn2   S    
O3    Zn1   S    
C28   C43   A    
C8    C17   A    
C32   C33   S    
C2    C3    A    
H17   N3    S    
C1    O1    A    
C7    C23   A    
C33   C35   S    
C7    C41   A    
H30   N5    S    
C10   C11   A    
C10   C32   S    
C21   N1    A    
C31   H2    S    
C35   H9    S    
C6    H1    S    
C32   H16   S    
