data_mof_unit_51158.cif
_audit_creation_date              2012-10-26T19:57:54-0400
_audit_creation_method            fapswitch 2.2
_symmetry_space_group_name_H-M    P1
_symmetry_Int_Tables_number       1
_space_group_crystal_system       triclinic
_cell_length_a                    7.496488
_cell_length_b                    8.679464
_cell_length_c                    12.961915
_cell_angle_alpha                 87.576625
_cell_angle_beta                  78.824684
_cell_angle_gamma                 103.081942
_cell_volume                      802.627311172

loop_
_atom_site_label
_atom_site_type_symbol
_atom_type_description
_atom_site_fract_x
_atom_site_fract_y
_atom_site_fract_z
_atom_type_partial_charge
C1    C     C_R   0.452545 0.199665 0.503278 0.537784
C2    C     C_R   0.730749 0.569711 0.118541 -0.106178
C3    C     C_R   0.604344 0.537586 0.857638 -0.107905
C4    C     C_R   0.395656 0.462413 0.142362 -0.107906
C5    C     C_R   0.589303 0.529710 0.966394 0.037313
C6    C     C_R   0.410697 0.470290 0.033606 0.037313
C7    C     C_2   0.426194 0.031497 0.504734 -0.140602
C8    C     C_2   0.573806 0.968503 0.495266 -0.140602
C9    C     C_R   0.547455 0.800334 0.496722 0.537784
C10   C     C_R   0.465832 0.495015 0.701375 0.540951
C11   C     C_R   0.534168 0.504985 0.298625 0.540950
C12   C     C_R   0.554329 0.511722 0.184746 -0.049138
C13   C     C_R   0.445671 0.488278 0.815254 -0.049138
C14   C     C_R   0.250153 0.419830 0.991168 0.233938
C15   C     C_R   0.749847 0.580169 0.008832 0.233939
C16   C     C_R   0.269251 0.430289 0.881459 -0.106178
Cu1   Cu    Cu3+1 0.686350 0.517570 0.488220 1.075190
Cu2   Cu    Cu3+1 0.313650 0.482430 0.511780 1.075190
H1    H     H_    0.260152 0.417179 0.194593 0.203516
H2    H     H_    0.019606 0.704833 0.362044 0.325398
H3    H     H_    0.739848 0.582820 0.805407 0.203516
H4    H     H_    0.853301 0.608780 0.152078 0.145460
H5    H     H_    0.146699 0.391220 0.847922 0.145460
H6    H     H_    0.284269 0.959241 0.513561 0.153399
H7    H     H_    0.715731 0.040759 0.486439 0.153399
H8    H     H_    0.981239 0.328819 0.014877 0.339052
H9    H     H_    0.018762 0.671180 0.985123 0.339052
H10   H     H_    0.980394 0.295167 0.637956 0.325398
N1    N     N_2   0.033570 0.455950 0.529530 0.092707
N2    N     N_2   0.966430 0.544050 0.470470 0.092707
O1    O     O_R   0.621060 0.286250 0.492350 -0.461333
O2    O     O_3   0.922488 0.639569 0.942258 -0.715341
O3    O     O_3   0.906177 0.350387 0.600566 -0.588261
O4    O     O_3   0.093823 0.649613 0.399434 -0.588261
O5    O     O_R   0.378940 0.713750 0.507650 -0.461333
O6    O     O_R   0.306310 0.256580 0.512240 -0.524429
O7    O     O_R   0.693690 0.743420 0.487760 -0.524429
O8    O     O_R   0.631800 0.512400 0.642670 -0.467835
O9    O     O_R   0.368200 0.487600 0.357330 -0.467835
O10   O     O_R   0.317060 0.482730 0.662570 -0.523687
O11   O     O_R   0.682940 0.517270 0.337430 -0.523687
O12   O     O_3   0.077512 0.360430 0.057742 -0.715341

loop_
_geom_bond_atom_site_label_1
_geom_bond_atom_site_label_2
_ccdc_geom_bond_type
C2    H4    S    
C11   C12   S    
N1    N2    D    
Cu1   N2    S    
C4    C12   A    
Cu2   O5    S    
C3    C13   A    
C14   O12   S    
C10   O8    A    
C2    C12   A    
C9    O7    A    
Cu1   Cu2   S    
H2    O4    S    
C7    C8    D    
C6    C14   A    
Cu2   N1    S    
Cu1   O7    S    
C11   O9    A    
C2    C15   A    
C10   O10   A    
H10   O3    S    
C11   O11   A    
C16   H5    S    
Cu1   O11   S    
Cu1   O8    S    
C5    C6    A    
Cu1   O1    S    
C14   C16   A    
C3    H3    S    
C5    C15   A    
N2    O4    S    
C8    H7    S    
C7    H6    S    
N1    O3    S    
C1    O1    A    
H8    O12   S    
C4    C6    A    
C13   C16   A    
C9    O5    A    
Cu2   O9    S    
Cu2   O10   S    
H9    O2    S    
C1    C7    S    
C4    H1    S    
Cu2   O6    S    
C1    O6    A    
C8    C9    S    
C3    C5    A    
C10   C13   S    
C15   O2    S    
