data_mof_unit_15060.cif
_audit_creation_date              2012-12-11T17:41:35-0500
_audit_creation_method            fapswitch 2.2
_symmetry_space_group_name_H-M    P1
_symmetry_Int_Tables_number       1
_space_group_crystal_system       triclinic
_cell_length_a                    15.640033
_cell_length_b                    15.112929
_cell_length_c                    15.081245
_cell_angle_alpha                 110.034728
_cell_angle_beta                  121.788759
_cell_angle_gamma                 58.052966
_cell_volume                      2560.96237032

loop_
_atom_site_label
_atom_site_type_symbol
_atom_type_description
_atom_site_fract_x
_atom_site_fract_y
_atom_site_fract_z
_atom_type_partial_charge
C1    C     C_R   0.751527 0.996022 0.791116 -0.114515
C2    C     C_R   0.244225 0.282461 0.094179 -0.294508
C3    C     C_R   0.678527 0.702004 0.851586 -0.264707
C4    C     C_R   0.327313 0.189983 0.073820 -0.283079
C5    C     C_R   0.689014 0.763835 0.947086 -0.023365
C6    C     C_R   0.302966 0.106763 0.007845 -0.021202
C7    C     C_R   0.797611 0.746146 0.027584 0.466298
C8    C     C_R   0.192570 0.117458 0.958096 0.509080
C9    C     C_R   0.891699 0.665504 0.011692 -0.377860
C10   C     C_R   0.108197 0.213573 0.976927 -0.493287
C11   C     C_R   0.881090 0.602515 0.916968 0.661715
C12   C     C_R   0.195363 0.064209 0.227089 -0.117451
C13   C     C_R   0.134475 0.293786 0.047890 0.650250
C14   C     C_R   0.578263 0.856830 0.051100 -0.189694
C15   C     C_R   0.397793 0.992302 0.898487 -0.192986
C16   C     C_R   0.209199 0.283055 0.455659 -0.072631
C17   C     C_R   0.772372 0.710761 0.524149 -0.050608
C18   C     C_R   0.487573 0.939894 0.069628 0.008493
C19   C     C_R   0.494827 0.920142 0.885196 0.019039
C20   C     C_R   0.395004 0.007688 0.991477 0.115880
C21   C     C_R   0.586249 0.847945 0.960425 0.068852
C22   C     C_2   0.045023 0.374667 0.497398 -0.273673
C23   C     C_R   0.153189 0.289019 0.505695 0.197903
C24   C     C_2   0.889617 0.597895 0.427080 -0.323576
C25   C     C_2   0.962086 0.408443 0.403647 0.382092
C26   C     C_2   0.869505 0.513809 0.400871 0.389008
C27   C     C_2   0.832013 0.128321 0.899484 -0.222313
C28   C     C_2   0.014389 0.049928 0.156528 -0.206523
C29   C     C_R   0.424245 0.704719 0.783092 -0.111742
C30   C     C_R   0.593523 0.236133 0.171567 -0.099987
C31   C     C_R   0.463028 0.635752 0.709112 -0.208389
C32   C     C_R   0.545597 0.301453 0.240458 -0.194699
C33   C     C_R   0.390822 0.639478 0.601960 -0.047959
C34   C     C_R   0.815253 0.699349 0.459177 0.231224
C35   C     C_R   0.611032 0.331240 0.342539 0.014722
C36   C     C_R   0.274540 0.706344 0.569888 0.573978
C37   C     C_R   0.727699 0.292346 0.375859 0.572694
C38   C     C_R   0.237714 0.777496 0.644871 -0.144193
C39   C     C_R   0.773806 0.228116 0.305017 -0.156073
C40   C     C_R   0.588797 0.214638 0.481092 0.483468
C41   C     C_R   0.407813 0.772251 0.482340 0.524707
C42   C     C_R   0.312508 0.777597 0.750741 -0.197647
C43   C     C_R   0.707142 0.200414 0.203447 -0.195274
C44   C     C_R   0.433496 0.472745 0.495199 -0.289544
C45   C     C_R   0.495043 0.295654 0.423986 0.015752
C46   C     C_R   0.558535 0.505369 0.440498 -0.269032
C47   C     C_R   0.489836 0.395372 0.436111 0.102355
C48   C     C_R   0.502617 0.581780 0.500020 0.089420
C49   C     C_R   0.553812 0.410192 0.408452 0.033537
C50   C     C_R   0.439214 0.566388 0.527950 0.019202
C51   C     C_2   0.856018 0.108142 0.991726 -0.123174
C52   C     C_2   0.952042 0.118872 0.084921 -0.083780
C53   C     C_R   0.407694 0.987529 0.714035 -0.139919
C54   C     C_R   0.590698 0.954794 0.266507 -0.121439
C55   C     C_R   0.405176 0.285953 0.406279 -0.272508
C56   C     C_R   0.501048 0.680934 0.519746 -0.106295
C57   C     C_R   0.593743 0.698207 0.562557 -0.181337
C58   C     C_R   0.592906 0.919130 0.793856 -0.140930
C59   C     C_R   0.405980 0.015531 0.196394 -0.094868
C60   C     C_R   0.207415 0.193728 0.546667 -0.145532
C61   C     C_R   0.778308 0.798927 0.436095 -0.174742
C62   C     C_R   0.750081 0.088891 0.701514 -0.189328
C63   C     C_R   0.194751 0.974096 0.316107 -0.066965
C64   C     C_R   0.777879 0.074581 0.801225 0.155086
C65   C     C_R   0.131455 0.027716 0.228094 0.122330
C66   C     C_3   0.965252 0.470824 0.809805 0.294991
C67   C     C_R   0.500126 0.938838 0.801078 0.070727
C68   C     C_3   0.078992 0.395771 0.809814 -0.863717
C69   C     C_3   0.074160 0.402871 0.172442 0.232954
C70   C     C_3   0.969678 0.486334 0.186654 -0.808877
C71   C     C_3   0.847356 0.876324 0.134097 0.241072
C72   C     C_3   0.868665 0.934682 0.242594 -0.836315
C73   C     C_3   0.082400 0.027772 0.886082 0.270257
C74   C     C_3   0.089387 0.918403 0.843844 -0.903481
C75   C     C_R   0.495898 0.961456 0.173616 0.061076
C76   C     C_R   0.772007 0.621545 0.836694 -0.358003
H1    H     H_    0.763932 0.963979 0.852873 0.080332
H2    H     H_    0.021798 0.226927 0.938285 0.148500
H3    H     H_    0.645250 0.802307 0.110087 0.171613
H4    H     H_    0.328275 0.049061 0.842516 0.136592
H5    H     H_    0.967416 0.589350 0.436554 0.109530
H6    H     H_    0.038156 0.418829 0.569210 0.101239
H7    H     H_    0.283723 0.832647 0.808197 0.192929
H8    H     H_    0.743737 0.150896 0.149417 0.138256
H9    H     H_    0.182515 0.339138 0.406605 0.097288
H10   H     H_    0.793061 0.650077 0.563834 0.104369
H11   H     H_    0.481246 0.702353 0.865538 0.143259
H12   H     H_    0.166339 0.121518 0.178235 0.080721
H13   H     H_    0.542136 0.214619 0.092664 0.125181
H14   H     H_    0.550167 0.579368 0.735296 0.150999
H15   H     H_    0.456507 0.331646 0.213254 0.128737
H16   H     H_    0.150095 0.831561 0.621044 0.142726
H17   H     H_    0.862187 0.199051 0.329120 0.159185
H18   H     H_    0.389754 0.458153 0.521489 0.149061
H19   H     H_    0.603723 0.521035 0.417072 0.180597
H20   H     H_    0.322486 0.001330 0.685939 0.111846
H21   H     H_    0.674497 0.923912 0.275642 0.122956
H22   H     H_    0.317809 0.334492 0.361353 0.116409
H23   H     H_    0.983173 0.999749 0.154967 0.116965
H24   H     H_    0.679702 0.644571 0.603706 0.122023
H25   H     H_    0.679712 0.875518 0.843806 0.098634
H26   H     H_    0.320234 0.031463 0.143975 0.102617
H27   H     H_    0.177952 0.168379 0.579824 0.116771
H28   H     H_    0.806187 0.817443 0.395813 0.122942
H29   H     H_    0.758747 0.145481 0.682477 0.132397
H30   H     H_    0.161483 0.953138 0.348783 0.165211
H31   H     H_    0.982261 0.169074 0.084911 0.133993
H32   H     H_    0.821470 0.064088 0.995512 0.117319
H33   H     H_    0.919192 0.526437 0.749658 0.067050
H34   H     H_    0.865940 0.173703 0.896876 0.118394
H35   H     H_    0.920542 0.423808 0.789538 0.110862
H36   H     H_    0.127781 0.338151 0.868253 0.263283
H37   H     H_    0.067899 0.352851 0.731137 0.211303
H38   H     H_    0.126142 0.439928 0.829320 0.249027
H39   H     H_    0.139551 0.431758 0.218567 0.086957
H40   H     H_    0.102127 0.330459 0.203982 0.092676
H41   H     H_    0.900537 0.462481 0.138255 0.248129
H42   H     H_    0.987547 0.497376 0.270241 0.207154
H43   H     H_    0.943490 0.561931 0.163300 0.260964
H44   H     H_    0.781462 0.934129 0.074512 0.079826
H45   H     H_    0.757044 0.575567 0.761979 0.122283
H46   H     H_    0.926632 0.837093 0.125707 0.094851
H47   H     H_    0.931215 0.878265 0.303455 0.277295
H48   H     H_    0.901556 0.989158 0.253914 0.199758
H49   H     H_    0.789674 0.980170 0.251728 0.251146
H50   H     H_    0.002035 0.083441 0.831229 0.110787
H51   H     H_    0.084574 0.044045 0.964960 0.093243
H52   H     H_    0.170313 0.859698 0.894772 0.253821
H53   H     H_    0.020272 0.913518 0.842419 0.225972
H54   H     H_    0.081550 0.900664 0.762854 0.249103
H55   H     H_    0.768939 0.455499 0.361922 0.324741
H56   H     H_    0.265247 0.345402 0.145437 0.140318
H57   H     H_    0.894555 0.383276 0.252995 0.315318
H58   H     H_    0.227807 0.641004 0.427116 0.306160
H59   H     H_    0.761727 0.344970 0.522347 0.331351
H60   H     H_    0.739494 0.109102 0.513846 0.309374
H61   H     H_    0.297648 0.720562 0.392222 0.322268
H62   H     H_    0.597273 0.718788 0.786610 0.181809
H63   H     H_    0.411803 0.181736 0.111267 0.168506
H64   H     H_    0.974552 0.650966 0.074580 0.172824
N1    N     N_R   0.705410 0.966550 0.689210 -0.045287
N2    N     N_R   0.556610 0.796750 0.548620 -0.062859
N3    N     N_R   0.556610 0.951620 0.703500 -0.041399
N4    N     N_R   0.443390 0.048380 0.296500 -0.043114
N5    N     N_R   0.294590 0.131500 0.522480 -0.051046
N6    N     N_R   0.705410 0.868500 0.477520 -0.049626
N7    N     N_R   0.705410 0.023370 0.632390 -0.050781
N8    N     N_R   0.294590 0.976630 0.367610 -0.044060
N9    N     N_R   0.294590 0.033450 0.310790 -0.051609
N10   N     N_R   0.294590 0.188320 0.465660 -0.052269
N11   N     N_R   0.705410 0.811680 0.534340 -0.057573
N12   N     N_R   0.556610 0.157790 0.497330 -0.099716
N13   N     N_R   0.443390 0.842210 0.502670 -0.071640
N14   N     N_R   0.443390 0.997080 0.657540 -0.044496
N15   N     N_R   0.556610 0.002920 0.342460 -0.045654
N16   N     N_R   0.443390 0.203250 0.451380 -0.057599
Ni1   Ni    Ni4+2 0.629830 0.882720 0.617850 0.206323
Ni2   Ni    Ni4+2 0.370170 0.117280 0.382150 0.206404
Ni3   Ni    Ni4+2 0.629830 0.013030 0.487540 0.213924
Ni4   Ni    Ni4+2 0.370170 0.986970 0.512460 0.246428
O1    O     O_3   0.980374 0.524687 0.910285 -0.612184
O2    O     O_3   0.298171 0.789313 0.425110 -0.779757
O3    O     O_3   0.049466 0.385264 0.065045 -0.602826
O4    O     O_3   0.812132 0.803176 0.124093 -0.634911
O5    O     O_3   0.172287 0.033231 0.891003 -0.640233
O6    O     O_3   0.766098 0.526109 0.378258 -0.751828
O7    O     O_3   0.965116 0.346354 0.312511 -0.759597
O8    O     O_3   0.194458 0.704320 0.468209 -0.765469
O9    O     O_3   0.799349 0.314295 0.475766 -0.773891
O10   O     O_3   0.694550 0.181690 0.493244 -0.781841

loop_
_geom_bond_atom_site_label_1
_geom_bond_atom_site_label_2
_ccdc_geom_bond_type
C66   C68   S    
C63   C65   A    
C69   H40   S    
C18   C75   S    
C59   C75   A    
C29   C42   A    
C1    H1    S    
C73   C74   S    
C14   C18   A    
C71   H46   S    
C36   O8    S    
C61   N6    A    
N7    Ni3   S    
C40   O10   S    
C10   H2    S    
C47   C49   A    
C62   H29   S    
C25   O7    S    
C15   C19   A    
C46   C49   A    
C71   H44   S    
C76   H45   S    
C22   H6    S    
C14   C21   A    
C35   C37   A    
C24   C26   D    
C38   C42   A    
C58   H25   S    
C11   C76   A    
H57   O7    S    
C37   O9    S    
H61   O2    S    
C9    H64   S    
C32   H15   S    
C70   H41   S    
C73   H50   S    
C38   H16   S    
C11   O1    S    
C33   C36   A    
C56   C57   A    
C40   N12   A    
C48   C56   S    
N8    Ni4   S    
C2    C13   A    
C39   H17   S    
C62   C64   A    
C58   N3    A    
C74   H52   S    
C46   H19   S    
N12   N16   A    
C27   H34   S    
C51   H32   S    
C22   C25   D    
C35   C49   S    
C2    H56   S    
C31   C33   A    
C54   H21   S    
C19   C67   S    
C66   H35   S    
C60   H27   S    
N9    Ni2   S    
N5    N10   A    
C44   C47   A    
C68   H37   S    
C48   C50   A    
N12   Ni3   S    
C53   N14   A    
C66   H33   S    
C41   O2    S    
C72   H48   S    
C53   H20   S    
C43   H8    S    
C17   N11   A    
C30   H13   S    
C27   C51   D    
C13   O3    S    
C41   N13   A    
C45   C47   S    
C23   C60   A    
C46   C48   A    
C71   O4    S    
C12   H12   S    
N15   Ni3   S    
C51   C52   S    
C32   C35   A    
N3    Ni1   S    
C44   H18   S    
N8    N9    A    
C52   H31   S    
C4    C6    A    
C8    O5    S    
C54   N15   A    
C5    C7    A    
N5    Ni4   S    
N3    N14   A    
C39   C43   A    
N6    Ni3   S    
C25   C26   S    
C73   H51   S    
C57   H24   S    
C34   C61   A    
C24   C34   S    
C17   H10   S    
C66   O1    S    
C15   C20   A    
C2    C4    A    
C24   H5    S    
C41   C56   A    
N14   Ni4   S    
C26   O6    S    
C15   H4    S    
C70   H43   S    
C31   H14   S    
C61   H28   S    
C3    H62   S    
C14   H3    S    
C63   H30   S    
C3    C76   A    
C9    C11   A    
C57   N2    A    
C28   H23   S    
N1    Ni1   S    
C73   O5    S    
H60   O10   S    
C59   N4    A    
C16   C23   A    
C62   N7    A    
C74   H54   S    
C72   H47   S    
C16   H9    S    
H58   O8    S    
C30   C43   A    
C17   C34   A    
N2    Ni1   S    
N4    Ni2   S    
H55   O6    S    
C1    C64   A    
N11   Ni1   S    
C63   N8    A    
C7    O4    S    
C44   C50   A    
C7    C9    A    
C69   H39   S    
C55   N16   A    
N10   Ni2   S    
C19   C21   A    
C59   H26   S    
C12   N9    A    
C8    C10   A    
C42   H7    S    
C69   O3    S    
C3    C5    A    
C10   C13   A    
C6    C8    A    
C6    C20   S    
C12   C65   A    
C72   H49   S    
N4    N15   A    
N16   Ni2   S    
C28   C65   S    
C33   C50   S    
C71   C72   S    
C29   C31   A    
C4    H63   S    
C30   C32   A    
C28   C52   D    
N13   Ni4   S    
C55   H22   S    
C36   C38   A    
C18   C20   A    
H59   O9    S    
N2    N13   A    
C69   C70   S    
C53   C67   A    
C29   H11   S    
C1    N1    A    
C27   C64   S    
N1    N7    A    
N6    N11   A    
C58   C67   A    
C70   H42   S    
C5    C21   S    
C40   C45   A    
C45   C55   A    
C37   C39   A    
C60   N5    A    
C74   H53   S    
C22   C23   S    
C16   N10   A    
C68   H36   S    
C68   H38   S    
C54   C75   A    
