data_mof_unit_41896.cif
_audit_creation_date              2013-03-05T15:40:55-0500
_audit_creation_method            fapswitch 2.2
_symmetry_space_group_name_H-M    P1
_symmetry_Int_Tables_number       1
_space_group_crystal_system       triclinic
_cell_length_a                    11.935817
_cell_length_b                    12.008919
_cell_length_c                    19.399851
_cell_angle_alpha                 90.612435
_cell_angle_beta                  89.753759
_cell_angle_gamma                 119.992855
_cell_volume                      2408.19266787

loop_
_atom_site_label
_atom_site_type_symbol
_atom_site_description
_atom_site_fract_x
_atom_site_fract_y
_atom_site_fract_z
_atom_type_partial_charge
O1    O     O_R   0.434830 0.101190 0.575190 -0.514401
O2    O     O_R   0.898810 0.333640 0.575190 -0.512464
O3    O     O_R   0.666360 0.565170 0.575190 -0.498331
O4    O     O_R   0.480130 0.360720 0.570290 -0.518058
O5    O     O_R   0.639280 0.119410 0.570290 -0.492128
O6    O     O_R   0.880590 0.519870 0.570290 -0.516987
C1    C     C_R   0.553400 0.475649 0.597476 0.524308
C2    C     C_R   0.524608 0.078548 0.597687 0.534366
C3    C     C_R   0.921665 0.446567 0.597594 0.506390
O7    O     O_R   0.439410 0.104260 0.424150 -0.483229
O8    O     O_R   0.895740 0.335150 0.424150 -0.502648
O9    O     O_R   0.664850 0.560590 0.424150 -0.431075
O10   O     O_R   0.484380 0.363570 0.430280 -0.504196
O11   O     O_R   0.636430 0.120810 0.430280 -0.496529
O12   O     O_R   0.879190 0.515620 0.430280 -0.445445
C4    C     C_R   0.547136 0.478306 0.406874 0.606176
C5    C     C_R   0.522683 0.072928 0.404298 0.584877
C6    C     C_R   0.929504 0.449759 0.406458 0.594828
Cr1   Cr    Cr6+3 0.468420 0.238090 0.499960 1.044660
Cr2   Cr    Cr6+3 0.761910 0.230330 0.499960 1.068773
Cr3   Cr    Cr6+3 0.769670 0.531580 0.499960 1.117407
O13   O     O_3   0.666667 0.333333 0.499980 -0.299867
C7    C     C_1   0.034543 0.513621 0.859018 0.011569
C8    C     C_1   0.485374 0.519675 0.858962 0.007749
C9    C     C_1   0.480230 0.964511 0.858839 0.011510
C10   C     C_1   0.992539 0.494485 0.726863 -0.027180
C11   C     C_1   0.505637 0.498822 0.726720 -0.027113
C12   C     C_1   0.501448 0.007450 0.726711 -0.027075
C13   C     C_1   0.012771 0.505482 0.798327 -0.029801
C14   C     C_1   0.493771 0.506710 0.798181 -0.030443
C15   C     C_1   0.493263 0.986483 0.798155 -0.028668
C16   C     C_1   0.968591 0.478399 0.666402 0.012370
C17   C     C_1   0.522195 0.491591 0.666268 0.015769
C18   C     C_1   0.508832 0.031781 0.666385 0.012887
C19   C     C_2   0.031543 0.510693 0.355760 0.261388
C20   C     C_2   0.477427 0.510186 0.355415 0.273479
C21   C     C_2   0.492908 0.988071 0.344234 0.215242
C22   C     C_2   0.016777 0.514136 0.186497 0.243997
C23   C     C_2   0.464836 0.554817 0.202624 0.206616
C24   C     C_2   0.485851 0.994883 0.183600 0.182395
C25   C     C_2   0.092272 0.517257 0.238240 -0.061588
C26   C     C_2   0.487278 0.636953 0.255515 -0.155803
C27   C     C_2   0.402242 0.920985 0.233103 -0.069696
C28   C     C_2   0.031931 0.445293 0.299295 0.205093
C29   C     C_2   0.535638 0.623915 0.322894 0.234404
C30   C     C_2   0.397982 0.968698 0.300458 0.229709
H1    H     H_    0.191669 0.540653 0.228988 0.063053
H2    H     H_    0.478864 0.721705 0.247272 0.083257
H3    H     H_    0.328519 0.821579 0.222658 0.100499
O14   O     O_R   0.548200 0.655360 0.951320 -0.494577
O15   O     O_R   0.344640 0.892840 0.951320 -0.499599
O16   O     O_R   0.107160 0.451800 0.951320 -0.502843
O17   O     O_R   0.505020 0.871000 0.955840 -0.496849
O18   O     O_R   0.129000 0.634020 0.955840 -0.494578
O19   O     O_R   0.365980 0.494980 0.955840 -0.488639
C31   C     C_R   0.451287 0.923110 0.928593 0.566224
C32   C     C_R   0.076673 0.527429 0.928690 0.565150
C33   C     C_R   0.472578 0.548634 0.928766 0.582249
O20   O     O_R   0.543640 0.655270 0.102360 -0.474068
O21   O     O_R   0.344730 0.888370 0.102360 -0.501003
O22   O     O_R   0.111630 0.456360 0.102360 -0.502988
O23   O     O_R   0.500790 0.870920 0.095850 -0.538442
O24   O     O_R   0.129080 0.629870 0.095850 -0.512201
O25   O     O_R   0.370130 0.499210 0.095850 -0.437775
C34   C     C_R   0.456528 0.937025 0.116034 0.582398
C35   C     C_R   0.068763 0.524753 0.118977 0.583914
C36   C     C_R   0.441447 0.590400 0.135045 0.515545
Cr4   Cr    Cr6+3 0.515700 0.760130 0.026360 1.064524
Cr5   Cr    Cr6+3 0.239870 0.755570 0.026360 1.079550
Cr6   Cr    Cr6+3 0.244430 0.484300 0.026360 1.101711
O26   O     O_3   0.333333 0.666667 0.026340 -0.283394
N1    N     N_R   0.956821 0.307505 0.291615 0.052105
O27   O     O_R   0.908115 0.258730 0.231492 -0.328748
O28   O     O_R   0.971608 0.234537 0.335176 -0.417999
N2    N     N_R   0.649857 0.732114 0.350567 0.073155
O29   O     O_R   0.761702 0.765159 0.323071 -0.277970
O30   O     O_R   0.645381 0.779010 0.410654 -0.336765
N3    N     N_R   0.302305 0.005711 0.313433 0.095072
O31   O     O_R   0.278843 0.067841 0.266411 -0.247827
O32   O     O_R   0.217263 0.948752 0.361837 -0.330838
N4    N     N_R   0.887735 0.493767 0.195416 0.117981
O33   O     O_R   0.814992 0.473903 0.141664 -0.232693
O34   O     O_R   0.849559 0.513582 0.254850 -0.238915
N5    N     N_R   0.487896 0.448141 0.207509 0.143605
O35   O     O_R   0.409920 0.339090 0.177381 -0.212063
O36   O     O_R   0.595773 0.465194 0.233313 -0.197226
N6    N     N_R   0.578391 0.130513 0.190789 0.071122
O37   O     O_R   0.660732 0.188920 0.141403 -0.265876
O38   O     O_R   0.573345 0.199125 0.241769 -0.244269
O39   O     O_3   0.109983 0.643331 0.358609 -0.538885
C37   C     C_3   0.212879 0.675522 0.405405 -0.006160
H4    H     H_    0.301687 0.755434 0.383152 0.180834
H5    H     H_    0.235610 0.597382 0.414161 0.072490
C38   C     C_3   0.187384 0.720426 0.474454 -0.327401
H6    H     H_    0.110631 0.637546 0.502727 0.137528
H7    H     H_    0.276875 0.764241 0.506181 0.105907
H8    H     H_    0.156884 0.792815 0.466739 0.217906
O40   O     O_3   0.357481 0.413310 0.332035 -0.552962
C39   C     C_3   0.264586 0.370492 0.385670 -0.002197
H9    H     H_    0.192980 0.399316 0.372954 0.160695
H10   H     H_    0.302786 0.412571 0.437738 0.086032
C40   C     C_3   0.195305 0.224168 0.389797 -0.221296
H11   H     H_    0.262074 0.191070 0.406852 0.204959
H12   H     H_    0.114669 0.189927 0.427429 0.115616
H13   H     H_    0.155978 0.180661 0.338476 0.250005
O41   O     O_3   0.565860 0.929311 0.329100 -0.618328
C41   C     C_3   0.696466 0.020175 0.314778 0.076464
H14   H     H_    0.756118 0.021277 0.358821 0.235356
H15   H     H_    0.714396 0.119630 0.307916 0.213663
C42   C     C_3   0.742056 0.981702 0.249489 -0.267881
H16   H     H_    0.724598 0.023694 0.203155 0.171991
H17   H     H_    0.847343 0.016675 0.252827 0.208276
H18   H     H_    0.691529 0.876862 0.241466 0.181185

loop_
_geom_bond_atom_site_label_1
_geom_bond_atom_site_label_2
_geom_bond_distance
_ccdc_geom_bond_type
O22   Cr6   2.063404 S    
C9    C15   1.201574 T    
O12   C6    1.290135 A    
N6    O37   1.301093 A    
O8    C6    1.276268 A    
C10   C16   1.198999 T    
O1    C2    1.307871 A    
C1    C17   1.420563 S    
C9    C31   1.427018 S    
O6    C3    1.318918 A    
N4    O33   1.301356 A    
O5    Cr2   1.962316 S    
C11   C17   1.197891 T    
C7    C13   1.199213 T    
C24   N6    1.445737 S    
N5    O36   1.300070 A    
C23   N5    1.442641 S    
O3    C1    1.310060 A    
O24   Cr5   1.969047 S    
N3    O32   1.300521 A    
O41   C41   1.414258 S    
O7    C5    1.282696 A    
C40   H13   1.110073 S    
O15   C31   1.217715 A    
Cr5   O26   1.890783 S    
O17   Cr4   1.967415 S    
C42   H16   1.105448 S    
C3    C16   1.422375 S    
O20   C36   1.245248 A    
O4    Cr1   1.950054 S    
O22   C35   1.205551 A    
C24   C27   1.352869 D    
O9    C4    1.292956 A    
C41   H14   1.110286 S    
Cr6   O26   1.897057 S    
O25   Cr6   1.960628 S    
C6    C19   1.449204 S    
O24   C35   1.189053 A    
C12   C18   1.201424 T    
Cr3   O13   2.062298 S    
C11   C14   1.399948 S    
C41   H15   1.112470 S    
O11   C5    1.283411 A    
C38   H6    1.107463 S    
O4    C1    1.315101 A    
N4    O34   1.300662 A    
C23   C26   1.346870 D    
C8    C14   1.198062 T    
O8    Cr2   2.075610 S    
O1    Cr1   2.093040 S    
O10   Cr1   1.971961 S    
O2    Cr2   2.072243 S    
O14   C33   1.218045 A    
O25   C36   1.248106 A    
O11   Cr2   1.951987 S    
Cr1   O13   2.049741 S    
N5    O35   1.300988 A    
C22   C25   1.339487 D    
N1    O28   1.298018 A    
C37   H4    1.104002 S    
C30   N3    1.437947 S    
N3    O31   1.301098 A    
C27   H3    1.089292 S    
C26   H2    1.085053 S    
C38   H8    1.109174 S    
O6    Cr3   1.959559 S    
O9    Cr3   2.076573 S    
C26   C29   1.472263 S    
C40   H12   1.110445 S    
N2    O29   1.301112 A    
O20   Cr4   2.081953 S    
C37   H5    1.114167 S    
C39   H9    1.100252 S    
O7    Cr1   2.064772 S    
C25   H1    1.088422 S    
C20   C29   1.346106 D    
C2    C18   1.426603 S    
C38   H7    1.110624 S    
C19   C28   1.342378 D    
N2    O30   1.301667 A    
C42   H18   1.100248 S    
C39   H10   1.116359 S    
Cr2   O13   2.056274 S    
O21   C34   1.188536 A    
C24   C34   1.436917 S    
N6    O38   1.300906 A    
C22   N4    1.443601 S    
C25   C28   1.435541 S    
O3    Cr3   2.069411 S    
C5    C21   1.462389 S    
O17   C31   1.222122 A    
C7    C32   1.423005 S    
C22   C35   1.426372 S    
O23   C34   1.213875 A    
C23   C36   1.453866 S    
C12   C15   1.405597 S    
N1    O27   1.300869 A    
O5    C2    1.313191 A    
O23   Cr4   1.953330 S    
C29   N2    1.433688 S    
O10   C4    1.282322 A    
C21   O41   1.396430 S    
C4    C20   1.472823 S    
C37   C38   1.524090 S    
O39   C37   1.417523 S    
O18   Cr5   1.948116 S    
O21   Cr5   2.062437 S    
Cr4   O26   1.885519 S    
C41   C42   1.531915 S    
C28   N1    1.441060 S    
C40   H11   1.106507 S    
C27   C30   1.432079 S    
C42   H17   1.110081 S    
O19   Cr6   1.947708 S    
O16   Cr6   2.079678 S    
O16   C32   1.220790 A    
C19   O39   1.387204 S    
O12   Cr3   1.950029 S    
C39   C40   1.525653 S    
C10   C13   1.401770 S    
C8    C33   1.421029 S    
O40   C39   1.417032 S    
O19   C33   1.221361 A    
C20   O40   1.392087 S    
O15   Cr5   2.091684 S    
C21   C30   1.341482 D    
O2    C3    1.311857 A    
O14   Cr4   2.072843 S    
O18   C32   1.222754 A    
