data_mof_unit_17620.cif
_audit_creation_date              2012-12-10T17:43:23-0500
_audit_creation_method            fapswitch 2.2
_symmetry_space_group_name_H-M    P1
_symmetry_Int_Tables_number       1
_space_group_crystal_system       triclinic
_cell_length_a                    15.113073
_cell_length_b                    13.703312
_cell_length_c                    10.743562
_cell_angle_alpha                 90.401363
_cell_angle_beta                  88.381549
_cell_angle_gamma                 89.867749
_cell_volume                      2224.03343936

loop_
_atom_site_label
_atom_site_type_symbol
_atom_type_description
_atom_site_fract_x
_atom_site_fract_y
_atom_site_fract_z
_atom_type_partial_charge
C1    C     C_R   0.328770 0.499650 0.503250 0.895507
C2    C     C_R   0.671215 0.499616 0.500491 0.874674
C3    C     C_R   0.953328 0.506817 0.501292 0.035321
C4    C     C_R   0.046856 0.506331 0.499381 0.041534
C5    C     C_R   0.908979 0.472262 0.396425 0.040320
C6    C     C_R   0.091383 0.517742 0.611639 0.044596
C7    C     C_R   0.952480 0.561536 0.716673 -0.201757
C8    C     C_R   0.048385 0.465449 0.279214 -0.207870
C9    C     C_R   0.043769 0.549002 0.718616 -0.138824
C10   C     C_R   0.957206 0.454957 0.284823 -0.147307
C11   C     C_R   0.443486 0.793801 0.579234 0.020254
C12   C     C_R   0.556574 0.205689 0.421628 0.022923
C13   C     C_R   0.556661 0.792749 0.421198 0.007573
C14   C     C_R   0.443307 0.207258 0.578981 0.013560
C15   C     C_R   0.558034 0.895736 0.419537 -0.009120
C16   C     C_R   0.441965 0.104137 0.581140 -0.009964
C17   C     C_R   0.442097 0.896865 0.581270 -0.010847
C18   C     C_R   0.557930 0.102763 0.419754 -0.012727
C19   C     C_R   0.500021 0.948064 0.500430 0.090373
C20   C     C_R   0.499952 0.051658 0.500446 0.090563
C21   C     C_R   0.615765 0.947435 0.339228 -0.192254
C22   C     C_R   0.384344 0.052426 0.661671 -0.192521
C23   C     C_R   0.384431 0.949760 0.661766 -0.187566
C24   C     C_R   0.615741 0.050013 0.339373 -0.181788
C25   C     C_R   0.506318 0.500132 0.258880 0.849165
C26   C     C_R   0.498487 0.500746 0.740751 0.849646
C27   C     C_3   0.479780 0.590391 0.045299 -0.189843
C28   C     C_3   0.531325 0.415824 0.952478 -0.220438
C29   C     C_3   0.558001 0.573269 0.951628 -0.216308
C30   C     C_3   0.451639 0.433174 0.045057 -0.243266
C31   C     C_3   0.422477 0.521656 0.968049 0.049825
C32   C     C_3   0.588609 0.485916 0.028744 0.051325
C33   C     C_3   0.500334 0.503465 0.876873 -0.064361
C34   C     C_3   0.510156 0.501906 0.121306 -0.053758
C35   C     C_R   0.817624 0.454471 0.405372 -0.111708
C36   C     C_R   0.181908 0.493822 0.614853 -0.157624
C37   C     C_R   0.767915 0.498377 0.504462 -0.170436
C38   C     C_R   0.232021 0.497568 0.501877 -0.146448
C39   C     C_R   0.811083 0.539327 0.608466 0.088512
C40   C     C_R   0.188999 0.491241 0.386807 0.051162
C41   C     C_R   0.904982 0.536419 0.609946 0.097588
C42   C     C_R   0.095283 0.487631 0.387201 0.089743
Cu1   Cu    Cu3+1 0.500000 0.597420 0.500000 0.967912
Cu2   Cu    Cu3+1 0.500000 0.402580 0.500000 0.978055
H1    H     H_    0.458767 0.662387 0.084116 0.158320
H2    H     H_    0.552562 0.343888 0.913758 0.176498
H3    H     H_    0.600770 0.631590 0.911933 0.157202
H4    H     H_    0.410246 0.373338 0.083000 0.162309
H5    H     H_    0.920393 0.587416 0.801651 0.158135
H6    H     H_    0.080945 0.451139 0.190186 0.185612
H7    H     H_    0.077385 0.565844 0.803843 0.173249
H8    H     H_    0.924466 0.434871 0.200056 0.171758
H9    H     H_    0.399421 0.753270 0.640851 0.162944
H10   H     H_    0.600776 0.245453 0.360624 0.147640
H11   H     H_    0.600816 0.751430 0.359575 0.144861
H12   H     H_    0.399130 0.248574 0.640453 0.154589
H13   H     H_    0.660924 0.908569 0.276309 0.150041
H14   H     H_    0.339216 0.091349 0.724576 0.147559
H15   H     H_    0.339360 0.911751 0.724747 0.151466
H16   H     H_    0.660908 0.088087 0.276577 0.160150
N1    N     N_R   0.500000 0.743810 0.500000 -0.194116
N2    N     N_R   0.500000 0.256190 0.500000 -0.191997
O1    O     O_R   0.370260 0.582280 0.500030 -0.591465
O2    O     O_R   0.629740 0.417720 0.499970 -0.561213
O3    O     O_R   0.629740 0.582280 0.499970 -0.586126
O4    O     O_R   0.370260 0.417720 0.500030 -0.554713
O5    O     O_R   0.499980 0.582260 0.316850 -0.594499
O6    O     O_R   0.500020 0.417740 0.683150 -0.579758
O7    O     O_R   0.500020 0.582260 0.683150 -0.576237
O8    O     O_R   0.499980 0.417740 0.316850 -0.579860
C43   C     C_2   0.331768 0.553441 0.934572 0.826896
O9    O     O_2   0.267206 0.510779 0.977186 -0.616551
O10   O     O_R   0.321525 0.633177 0.855890 -0.774246
H17   H     H_    0.257114 0.647817 0.839555 0.317675
C44   C     C_2   0.685932 0.476929 0.046431 0.833879
O11   O     O_2   0.726552 0.406875 0.002657 -0.603878
O12   O     O_R   0.730420 0.551109 0.108747 -0.761189
H18   H     H_    0.796377 0.538360 0.112469 0.321865
C45   C     C_2   0.778026 0.380462 0.320578 0.856115
O13   O     O_2   0.820429 0.307338 0.290839 -0.581339
O14   O     O_R   0.692662 0.391710 0.277513 -0.763169
H19   H     H_    0.674787 0.335930 0.221160 0.323943
C46   C     C_2   0.215958 0.440254 0.725214 0.872944
O15   O     O_2   0.164229 0.411460 0.806515 -0.560063
O16   O     O_R   0.304956 0.413719 0.731478 -0.778686
H20   H     H_    0.317463 0.370426 0.805150 0.323267
C47   C     C_3   0.757181 0.579847 0.719766 -0.388767
C48   C     C_3   0.758376 0.691295 0.721175 -0.788321
H21   H     H_    0.827133 0.719221 0.724558 0.247640
H22   H     H_    0.727028 0.719846 0.636484 0.266676
H23   H     H_    0.720798 0.719070 0.804332 0.235787
H24   H     H_    0.687323 0.555807 0.720070 0.189707
H25   H     H_    0.781605 0.550718 0.808475 0.211956
C49   C     C_3   0.242530 0.477742 0.266187 -0.375171
C50   C     C_3   0.249845 0.369332 0.231459 -0.766765
H26   H     H_    0.303843 0.334688 0.283613 0.250821
H27   H     H_    0.187419 0.329599 0.253100 0.255032
H28   H     H_    0.264058 0.360908 0.130279 0.263385
H29   H     H_    0.211087 0.519895 0.191893 0.238900
H30   H     H_    0.309967 0.509031 0.270871 0.185919

loop_
_geom_bond_atom_site_label_1
_geom_bond_atom_site_label_2
_ccdc_geom_bond_type
C14   H12   S    
C47   C48   S    
C27   C29   S    
O10   H17   S    
C47   H25   S    
Cu2   O4    S    
C19   C20   A    
C25   O5    A    
C39   C47   S    
Cu1   Cu2   S    
C2    O3    A    
C10   H8    S    
C32   C44   S    
O14   H19   S    
C50   H28   S    
Cu1   O1    S    
C39   C41   A    
O12   H18   S    
Cu2   O2    S    
C23   H15   S    
C28   H2    S    
C17   C23   A    
C29   H3    S    
C18   C24   A    
C30   H4    S    
C35   C37   A    
C8    C42   A    
C29   C32   S    
C30   C31   S    
C36   C46   S    
C14   N2    A    
C29   C33   S    
C3    C41   A    
C50   H26   S    
C28   C30   S    
C9    H7    S    
C31   C33   S    
Cu2   O8    S    
C11   H9    S    
C16   C20   A    
C25   C34   S    
C27   H1    S    
C40   C42   A    
Cu1   O7    S    
C47   H24   S    
C6    C9    A    
C1    O1    A    
C2    O2    A    
C27   C34   S    
C30   C34   S    
C27   C31   S    
C28   C32   S    
C7    H5    S    
C4    C6    A    
C43   O10   S    
Cu2   N2    S    
O16   H20   S    
C32   C34   S    
C15   C19   A    
C44   O11   D    
C21   H13   S    
C12   N2    A    
C26   C33   S    
C46   O15   D    
C48   H23   S    
C49   H30   S    
Cu1   O3    S    
C1    O4    A    
C44   O12   S    
C1    C38   S    
C8    C10   A    
C46   O16   S    
C48   H22   S    
C28   C33   S    
C13   C15   A    
C14   C16   A    
Cu2   O6    S    
C3    C4    A    
C8    H6    S    
Cu1   N1    S    
C45   O14   S    
C7    C9    A    
C11   C17   A    
C16   C22   A    
C40   C49   S    
C3    C5    A    
C22   H14   S    
C50   H27   S    
C25   O8    A    
C26   O6    A    
C36   C38   A    
C5    C10   A    
C37   C39   A    
C38   C40   A    
C2    C37   S    
C15   C21   A    
C4    C42   A    
C49   H29   S    
C5    C35   A    
C35   C45   S    
C17   C19   A    
C6    C36   A    
C18   C20   A    
C7    C41   A    
C11   N1    A    
C49   C50   S    
C45   O13   D    
C43   O9    D    
C13   N1    A    
C48   H21   S    
Cu1   O5    S    
C21   C24   A    
C12   C18   A    
C26   O7    A    
C22   C23   A    
C24   H16   S    
C12   H10   S    
C31   C43   S    
C13   H11   S    
