data_mof_unit_64647.cif
_audit_creation_date              2012-12-10T16:50:41-0500
_audit_creation_method            fapswitch 2.2
_symmetry_space_group_name_H-M    P1
_symmetry_Int_Tables_number       1
_space_group_crystal_system       triclinic
_cell_length_a                    19.100435
_cell_length_b                    18.612915
_cell_length_c                    18.934268
_cell_angle_alpha                 109.185831
_cell_angle_beta                  110.233721
_cell_angle_gamma                 109.581259
_cell_volume                      5143.62348026

loop_
_atom_site_label
_atom_site_type_symbol
_atom_type_description
_atom_site_fract_x
_atom_site_fract_y
_atom_site_fract_z
_atom_type_partial_charge
C1    C     C_R   0.385949 0.380047 0.503785 0.936813
C2    C     C_R   0.596694 0.337395 0.613508 -0.144839
C3    C     C_2   0.261876 0.252428 0.579305 -0.184168
C4    C     C_R   0.619337 0.500305 0.619549 0.867732
C5    C     C_2   0.180014 0.201826 0.510967 -0.176179
C6    C     C_2   0.327207 0.324862 0.582458 -0.095491
C7    C     C_2   0.331669 0.310435 0.510639 -0.289889
C8    C     C_2   0.173276 0.491733 0.249493 -0.155886
C9    C     C_2   0.184799 0.509291 0.190020 -0.338566
C10   C     C_2   0.245993 0.503388 0.322263 -0.136055
C11   C     C_2   0.305922 0.488070 0.310712 -0.339912
C12   C     C_R   0.759012 0.582219 0.755275 0.076467
C13   C     C_2   0.740543 0.748131 0.423116 -0.154448
C14   C     C_2   0.818060 0.806958 0.495062 -0.335950
C15   C     C_2   0.678861 0.675923 0.423090 -0.149902
C16   C     C_R   0.616969 0.620113 0.498813 0.926733
C17   C     C_2   0.676076 0.689472 0.495661 -0.337033
C18   C     C_R   0.994258 0.379899 0.876106 0.930493
C19   C     C_R   0.877830 0.500322 0.877572 0.875240
C20   C     C_R   0.999490 0.620136 0.117567 0.923487
C21   C     C_R   0.116741 0.502007 0.118623 0.937312
C22   C     C_R   0.001752 0.121121 0.618766 0.937252
C23   C     C_R   0.812637 0.500666 0.811752 -0.205511
C24   C     C_R   0.118584 0.122746 0.502550 0.838215
C25   C     C_R   0.998307 0.879008 0.381193 0.934175
C26   C     C_R   0.881439 0.878897 0.498456 0.931923
C27   C     C_2   0.990465 0.251781 0.673127 -0.146240
C28   C     C_R   0.378026 0.497256 0.379665 0.946078
C29   C     C_2   0.009739 0.193066 0.686758 -0.339276
C30   C     C_2   0.000436 0.324010 0.744742 -0.151747
C31   C     C_2   0.984206 0.310491 0.803878 -0.347814
C32   C     C_2   0.010347 0.748872 0.325099 -0.154384
C33   C     C_2   0.990193 0.807531 0.312672 -0.340118
C34   C     C_R   0.742471 0.419152 0.737947 0.073264
C35   C     C_2   0.998369 0.676479 0.251841 -0.148300
C36   C     C_2   0.010614 0.689450 0.190659 -0.334954
C37   C     C_R   0.774128 0.663991 0.759404 -0.146072
C38   C     C_R   0.842391 0.743632 0.833586 -0.145640
C39   C     C_R   0.896750 0.743663 0.904765 -0.145586
C40   C     C_R   0.885835 0.664049 0.900000 -0.146865
C41   C     C_R   0.819633 0.582237 0.823029 0.075589
C42   C     C_2   0.144186 0.228319 0.446521 0.427261
C43   C     C_R   0.674001 0.419157 0.678654 0.074478
C44   C     C_R   0.684894 0.500653 0.685678 -0.202769
C45   C     C_R   0.738447 0.337362 0.721993 -0.141982
C46   C     C_R   0.663820 0.257727 0.654589 -0.141644
C47   C     C_R   0.592103 0.257747 0.601947 -0.143820
H1    H     H_    0.533164 0.195921 0.551146 0.136772
H2    H     H_    0.634050 0.612844 0.362990 0.165783
H3    H     H_    0.734252 0.667795 0.705698 0.149361
H4    H     H_    0.713838 0.755047 0.552738 0.153605
H5    H     H_    0.971043 0.249082 0.610752 0.171590
H6    H     H_    0.038494 0.201619 0.751624 0.158162
H7    H     H_    0.018341 0.387104 0.747291 0.170369
H8    H     H_    0.956726 0.244879 0.795757 0.157536
H9    H     H_    0.031519 0.751493 0.387498 0.167615
H10   H     H_    0.959731 0.798926 0.247940 0.157190
H11   H     H_    0.982264 0.613689 0.249654 0.163776
H12   H     H_    0.370047 0.388538 0.642047 0.160964
H13   H     H_    0.036722 0.754820 0.198081 0.151948
H14   H     H_    0.852306 0.805463 0.836255 0.134581
H15   H     H_    0.948323 0.805520 0.963416 0.134221
H16   H     H_    0.929501 0.667912 0.957516 0.149172
H17   H     H_    0.792618 0.333651 0.760611 0.148912
H18   H     H_    0.661258 0.195883 0.644073 0.138188
H19   H     H_    0.538862 0.333720 0.571207 0.143883
H20   H     H_    0.282263 0.238334 0.631775 0.160084
H21   H     H_    0.092659 0.177976 0.380155 0.061596
H22   H     H_    0.294515 0.244022 0.454752 0.137086
H23   H     H_    0.111880 0.473070 0.247234 0.167362
H24   H     H_    0.248702 0.537627 0.197909 0.158579
H25   H     H_    0.248375 0.521119 0.384082 0.175289
H26   H     H_    0.298181 0.460555 0.246424 0.155938
H27   H     H_    0.723787 0.750764 0.363386 0.167168
H28   H     H_    0.838373 0.798476 0.551480 0.156890
O1    O     O_R   0.409870 0.358470 0.449260 -0.639517
O2    O     O_R   0.948030 0.090450 0.538510 -0.613173
O3    O     O_R   0.141850 0.090470 0.551380 -0.611092
O4    O     O_R   0.409230 0.460600 0.550770 -0.600707
O5    O     O_R   0.039050 0.090460 0.448590 -0.635073
O6    O     O_R   0.051970 0.909550 0.461490 -0.613522
O7    O     O_R   0.949170 0.909540 0.358700 -0.626378
O8    O     O_R   0.960950 0.909540 0.551410 -0.626061
O9    O     O_R   0.858150 0.909530 0.448620 -0.615191
O10   O     O_R   0.591360 0.448940 0.540280 -0.622875
O11   O     O_R   0.590720 0.551070 0.641790 -0.631254
O12   O     O_R   0.048480 0.460610 0.906920 -0.611359
O13   O     O_R   0.590770 0.539400 0.449230 -0.613036
O14   O     O_R   0.590130 0.641530 0.550740 -0.632149
O15   O     O_R   0.409280 0.448930 0.358210 -0.625386
O16   O     O_R   0.408640 0.551060 0.459720 -0.610964
O17   O     O_R   0.946350 0.358500 0.906960 -0.630969
O18   O     O_2   0.168508 0.305714 0.467964 -0.551643
O19   O     O_R   0.854760 0.448970 0.905840 -0.622619
O20   O     O_R   0.956890 0.551080 0.905790 -0.627275
O21   O     O_R   0.945260 0.539450 0.086770 -0.614612
O22   O     O_R   0.047380 0.641560 0.086730 -0.632170
O23   O     O_R   0.036850 0.448980 0.087900 -0.618307
O24   O     O_R   0.138970 0.551100 0.087860 -0.621182
O25   O     O_R   0.050830 0.090460 0.641300 -0.624205
Zn1   Zn    Zn3+2 0.500430 0.431810 0.432220 0.951336
Zn2   Zn    Zn3+2 0.499570 0.568190 0.567780 0.961769
Zn3   Zn    Zn3+2 0.928680 0.431850 0.996880 0.951248
Zn4   Zn    Zn3+2 0.065060 0.568210 0.996820 0.953021
Zn5   Zn    Zn3+2 0.068640 0.000010 0.568630 0.954630
Zn6   Zn    Zn3+2 0.931360 0.999990 0.431370 0.953623

loop_
_geom_bond_atom_site_label_1
_geom_bond_atom_site_label_2
_ccdc_geom_bond_type
C42   H21   S    
C5    C42   S    
C26   O8    A    
C21   O23   A    
C22   C29   S    
O14   Zn2   S    
C27   C29   D    
C42   O18   D    
C35   C36   D    
C3    C6    S    
C17   H4    S    
O13   Zn1   S    
O10   Zn1   S    
C45   C46   A    
C27   H5    S    
C30   H7    S    
O25   Zn5   S    
C37   C38   A    
C40   H16   S    
C35   H11   S    
O2    Zn6   S    
C30   C31   D    
C21   O24   A    
O3    Zn5   S    
C4    O11   A    
O23   Zn3   S    
O5    Zn6   S    
C12   C37   A    
O17   Zn3   S    
C24   O5    A    
C20   O22   A    
C8    C9    D    
O9    Zn6   S    
O4    Zn2   S    
C38   H14   S    
O7    Zn6   S    
O24   Zn4   S    
C20   O21   A    
C16   O14   A    
C13   C14   D    
C27   C30   S    
C25   O6    A    
O6    Zn5   S    
C22   O25   A    
C32   C35   S    
C46   H18   S    
C11   H26   S    
C39   C40   A    
C16   C17   S    
C4    O10   A    
C4    C44   S    
C2    H19   S    
O8    Zn5   S    
C19   C23   S    
C43   C44   A    
O15   Zn1   S    
C12   C41   A    
C47   H1    S    
C2    C43   A    
C23   C34   A    
C34   C45   A    
C14   C26   S    
C19   O19   A    
C24   O3    A    
C40   C41   A    
O19   Zn3   S    
C13   C15   S    
C25   O7    A    
C1    O4    A    
O16   Zn2   S    
O11   Zn2   S    
C19   O20   A    
O20   Zn4   S    
O1    Zn1   S    
C15   C17   D    
C39   H15   S    
C46   C47   A    
C26   O9    A    
C1    C7    S    
C1    O1    A    
C6    H12   S    
C3    H20   S    
C34   C43   A    
C9    H24   S    
C22   O2    A    
C3    C5    D    
C7    H22   S    
C6    C7    D    
C33   H10   S    
C2    C47   A    
C45   H17   S    
C8    H23   S    
C18   O12   A    
C23   C41   A    
C18   O17   A    
C32   C33   D    
C12   C44   A    
C14   H28   S    
C37   H3    S    
C9    C21   S    
C38   C39   A    
C5    C24   S    
C29   H6    S    
C11   C28   S    
C28   O16   A    
C15   H2    S    
O22   Zn4   S    
C10   C11   D    
O12   Zn4   S    
C20   C36   S    
C13   H27   S    
C8    C10   S    
O21   Zn3   S    
C16   O13   A    
C36   H13   S    
C28   O15   A    
C18   C31   S    
C31   H8    S    
C32   H9    S    
C25   C33   S    
C10   H25   S    
