data_mof_unit_58085.cif
_audit_creation_date              2012-10-26T19:59:37-0400
_audit_creation_method            fapswitch 2.2
_symmetry_space_group_name_H-M    P1
_symmetry_Int_Tables_number       1
_space_group_crystal_system       triclinic
_cell_length_a                    10.784515
_cell_length_b                    8.726304
_cell_length_c                    7.486477
_cell_angle_alpha                 102.554754
_cell_angle_beta                  96.247225
_cell_angle_gamma                 92.152501
_cell_volume                      682.25238738

loop_
_atom_site_label
_atom_site_type_symbol
_atom_type_description
_atom_site_fract_x
_atom_site_fract_y
_atom_site_fract_z
_atom_type_partial_charge
C1    C     C_R   0.498451 0.200259 0.454810 0.548184
C2    C     C_R   0.511082 0.799511 0.546547 0.559976
C3    C     C_R   0.737869 0.490897 0.501607 0.541154
C4    C     C_R   0.147309 0.701833 0.805819 -0.100373
C5    C     C_R   0.101786 0.741432 0.976237 -0.132386
C6    C     C_R   0.993950 0.661505 0.004477 -0.109664
C7    C     C_R   0.924831 0.554937 0.856495 0.038041
C8    C     C_R   0.954923 0.546481 0.675376 0.042132
C9    C     C_3   0.855996 0.417739 0.900322 -0.360211
C10   C     C_3   0.602376 0.053778 0.758270 -0.360115
C11   C     C_R   0.078008 0.592487 0.658202 0.006993
C12   C     C_R   0.129178 0.518386 0.498843 -0.007076
C13   C     C_R   0.051752 0.427764 0.347103 -0.162924
C14   C     C_R   0.924002 0.413647 0.352178 -0.179658
C15   C     C_R   0.873533 0.479784 0.511816 -0.015612
C16   C     C_2   0.494038 0.033097 0.434478 -0.138003
C17   C     C_2   0.532584 0.966289 0.574546 -0.048564
C18   C     C_R   0.263081 0.509736 0.500352 0.544883
Cu1   Cu    Cu3+1 0.513920 0.517380 0.684380 0.926163
Cu2   Cu    Cu3+1 0.486080 0.482620 0.315620 0.934153
H1    H     H_    0.596539 0.624147 0.052579 0.236106
H2    H     H_    0.863800 0.344421 0.236054 0.125767
H3    H     H_    0.646664 0.973233 0.838799 0.136715
H4    H     H_    0.679749 0.130003 0.733654 0.127528
H5    H     H_    0.537849 0.123273 0.844958 0.161011
H6    H     H_    0.402868 0.376590 0.947502 0.239991
H7    H     H_    0.452333 0.962652 0.301792 0.112297
H8    H     H_    0.090211 0.366183 0.225705 0.139008
H9    H     H_    0.236673 0.755363 0.790967 0.140065
H10   H     H_    0.156027 0.822723 0.090369 0.117107
H11   H     H_    0.969753 0.673526 0.143312 0.124896
H12   H     H_    0.781339 0.457660 0.987189 0.155090
H13   H     H_    0.816922 0.330737 0.774637 0.138314
H14   H     H_    0.924693 0.352941 0.970627 0.101246
N1    N     N_2   0.465100 0.456430 0.038520 -0.261833
N2    N     N_2   0.534900 0.543570 0.961480 -0.269650
O1    O     O_R   0.509050 0.286130 0.619770 -0.507034
O2    O     O_R   0.485540 0.256780 0.308360 -0.505793
O3    O     O_R   0.331410 0.514680 0.655740 -0.503526
O4    O     O_R   0.307900 0.485330 0.344330 -0.500603
O5    O     O_R   0.514460 0.743220 0.691640 -0.505335
O6    O     O_R   0.490950 0.713870 0.380230 -0.510086
O7    O     O_R   0.692100 0.514670 0.655670 -0.506196
O8    O     O_R   0.668590 0.485320 0.344260 -0.512177

loop_
_geom_bond_atom_site_label_1
_geom_bond_atom_site_label_2
_ccdc_geom_bond_type
Cu2   O6    S    
C11   C12   A    
C13   H8    S    
C2    O5    A    
C6    C7    A    
C10   H3    S    
Cu2   O2    S    
C4    H9    S    
C1    O1    A    
C18   O3    A    
C14   H2    S    
C16   H7    S    
C6    H11   S    
C7    C8    A    
C1    C16   S    
C13   C14   A    
C4    C11   A    
C9    H13   S    
C3    O7    A    
C9    H14   S    
Cu1   O3    S    
C1    O2    A    
C2    O6    A    
C8    C11   A    
C10   H5    S    
Cu2   O8    S    
Cu1   O7    S    
C8    C15   A    
Cu1   N2    S    
C5    C6    A    
Cu2   O4    S    
C3    O8    A    
C10   C17   S    
Cu1   O5    S    
H6    N1    S    
C3    C15   S    
C12   C13   A    
C7    C9    S    
C5    H10   S    
C12   C18   S    
H1    N2    S    
C18   O4    A    
C14   C15   A    
C16   C17   D    
Cu1   O1    S    
C9    H12   S    
C10   H4    S    
Cu2   N1    S    
Cu1   Cu2   S    
C4    C5    A    
C2    C17   S    
N1    N2    D    
