data_mof_unit_52027.cif
_audit_creation_date              2012-10-26T18:43:32-0400
_audit_creation_method            fapswitch 2.2
_symmetry_space_group_name_H-M    P1
_symmetry_Int_Tables_number       1
_space_group_crystal_system       triclinic
_cell_length_a                    10.875822
_cell_length_b                    10.877881
_cell_length_c                    9.647013
_cell_angle_alpha                 90.393952
_cell_angle_beta                  91.450708
_cell_angle_gamma                 93.841385
_cell_volume                      1138.32738901

loop_
_atom_site_label
_atom_site_type_symbol
_atom_type_description
_atom_site_fract_x
_atom_site_fract_y
_atom_site_fract_z
_atom_type_partial_charge
C1    C     C_R   0.486976 0.262973 0.499763 0.507574
C2    C     C_R   0.475716 0.938089 0.620757 -0.037321
C3    C     C_3   0.572457 0.945338 0.733773 -0.214358
C4    C     C_R   0.260185 0.497592 0.499290 0.537578
C5    C     C_3   0.565307 0.083636 0.736851 0.097700
C6    C     C_R   0.602439 0.537734 0.077224 0.116200
C7    C     C_R   0.401366 0.450928 0.068558 0.342401
C8    C     C_R   0.400421 0.455847 0.921510 0.064726
C9    C     C_R   0.607816 0.523850 0.931295 0.171464
C10   C     C_3   0.697819 0.635443 0.930035 0.475930
C11   C     C_3   0.664960 0.663832 0.077013 0.153990
C12   C     C_3   0.877018 0.486951 0.497503 -0.033470
C13   C     C_R   0.493126 0.738027 0.499025 0.542150
C14   C     C_R   0.738740 0.490024 0.500008 0.616589
C15   C     C_3   0.069734 0.394902 0.607481 0.353146
C16   C     C_3   0.925197 0.397085 0.609965 0.097439
C17   C     C_3   0.078460 0.629160 0.538253 0.210579
C18   C     C_3   0.066859 0.452294 0.353630 0.115472
C19   C     C_3   0.121919 0.495370 0.500776 0.056430
C20   C     C_3   0.418441 0.879421 0.229241 -0.239149
C21   C     C_3   0.298713 0.801877 0.199581 -0.376819
C22   C     C_3   0.116796 0.676833 0.689728 -0.193287
C23   C     C_3   0.935320 0.623001 0.511346 0.130672
C24   C     C_3   0.117360 0.817335 0.709432 -0.367832
C25   C     C_3   0.923669 0.431214 0.357885 0.042463
C26   C     C_R   0.471681 0.064580 0.622985 0.068365
C27   C     C_R   0.457127 0.129899 0.501589 -0.036423
C28   C     C_R   0.413790 0.063253 0.382717 0.216368
C29   C     C_R   0.429116 0.935300 0.373814 0.022341
C30   C     C_R   0.468750 0.871069 0.495868 -0.054926
Cu1   Cu    Cu3+1 0.499990 0.499980 0.640670 1.040242
Cu2   Cu    Cu3+1 0.500010 0.500020 0.359330 0.988195
H1    H     H_    0.919058 0.665109 0.408348 0.247986
H2    H     H_    0.099559 0.343266 0.798263 0.373959
H3    H     H_    0.880302 0.418952 0.162597 0.337471
H4    H     H_    0.220347 0.728302 0.468108 0.322418
H5    H     H_    0.303561 0.179496 0.315756 0.321742
H6    H     H_    0.299540 0.712476 0.253005 0.231079
H7    H     H_    0.218443 0.852342 0.231376 0.209472
H8    H     H_    0.289162 0.781936 0.086588 0.137951
H9    H     H_    0.426441 0.951429 0.148203 0.210650
H10   H     H_    0.498547 0.827371 0.212829 0.139371
H11   H     H_    0.580192 0.134140 0.928447 0.330176
H12   H     H_    0.538750 0.900481 0.830132 0.191934
H13   H     H_    0.331624 0.353953 0.211935 0.369883
H14   H     H_    0.188470 0.269386 0.578919 0.341676
H15   H     H_    0.835521 0.535448 0.978847 0.352647
H16   H     H_    0.731797 0.792392 0.849963 0.333457
H17   H     H_    0.735460 0.717819 0.253742 0.338967
H18   H     H_    0.931698 0.479454 0.788792 0.371393
H19   H     H_    0.194367 0.864753 0.653004 0.161303
H20   H     H_    0.029885 0.854300 0.673221 0.231121
H21   H     H_    0.131425 0.840639 0.821250 0.139749
H22   H     H_    0.057647 0.634104 0.769239 0.176936
H23   H     H_    0.662425 0.919382 0.694662 0.143975
H24   H     H_    0.211336 0.653882 0.718156 0.179017
H25   H     H_    0.863938 0.652530 0.689483 0.394492
H26   H     H_    0.056136 0.604107 0.243329 0.396425
H27   H     H_    0.650973 0.137914 0.706921 0.135068
H28   H     H_    0.320593 0.418234 0.863951 0.201474
H29   H     H_    0.602495 0.739087 0.077674 0.063025
H30   H     H_    0.885969 0.302852 0.581195 0.178033
H31   H     H_    0.102630 0.361635 0.327892 0.185300
H32   H     H_    0.899331 0.329649 0.356949 0.102048
N1    N     N_R   0.500800 0.500930 0.147930 -0.281374
N2    N     N_R   0.500800 0.500890 0.852020 -0.278228
O1    O     O_R   0.500000 0.319640 0.618810 -0.483703
O2    O     O_3   0.868683 0.478643 0.238741 -0.641658
O3    O     O_3   0.131017 0.715679 0.444983 -0.727259
O4    O     O_3   0.358267 0.121051 0.273770 -0.680852
O5    O     O_3   0.512241 0.125475 0.857776 -0.661984
O6    O     O_3   0.300783 0.392132 0.127244 -0.644924
O7    O     O_3   0.098654 0.276248 0.562985 -0.755407
O8    O     O_3   0.821650 0.608129 0.920653 -0.682948
O9    O     O_3   0.667056 0.724449 0.835513 -0.681285
O10   O     O_3   0.766607 0.680383 0.168565 -0.631413
O11   O     O_3   0.878153 0.415594 0.741760 -0.697886
O12   O     O_R   0.500010 0.319680 0.381230 -0.506944
O13   O     O_3   0.873152 0.697293 0.602084 -0.714758
O14   O     O_3   0.106548 0.531713 0.245948 -0.621972
O15   O     O_R   0.317690 0.499960 0.618790 -0.515554
O16   O     O_R   0.317700 0.500000 0.381210 -0.486767
O17   O     O_R   0.499990 0.680320 0.618770 -0.444468
O18   O     O_R   0.500000 0.680360 0.381190 -0.539253
O19   O     O_R   0.682300 0.500000 0.618790 -0.418480
O20   O     O_R   0.682310 0.500040 0.381210 -0.443384
O21   O     O_3   0.121820 0.416811 0.741294 -0.724123

loop_
_geom_bond_atom_site_label_1
_geom_bond_atom_site_label_2
_ccdc_geom_bond_type
C24   H20   S    
Cu1   N2    S    
C17   O3    S    
Cu1   O19   S    
H25   O13   S    
C6    C9    A    
C20   H9    S    
C7    C8    A    
C22   H22   S    
C15   C19   S    
C25   O2    S    
C12   C23   S    
C26   C27   A    
C17   C23   S    
C28   C29   A    
C18   C19   S    
C11   O10   S    
C18   H31   S    
C15   C16   S    
Cu1   O17   S    
C16   O11   S    
C9    N2    A    
C1    O1    A    
C4    C19   S    
C3    H23   S    
C6    N1    A    
C4    O15   A    
C12   C16   S    
C23   H1    S    
C21   H7    S    
C8    N2    A    
C9    C10   S    
H26   O14   S    
C24   H19   S    
H5    O4    S    
H13   O6    S    
C1    O12   A    
H16   O9    S    
C18   C25   S    
C16   H30   S    
C20   C29   S    
Cu2   O18   S    
C3    H12   S    
C5    H27   S    
C13   C30   S    
C14   O20   A    
C6    C11   S    
C21   H6    S    
C22   H24   S    
C3    C5    S    
C24   H21   S    
C25   H32   S    
Cu1   O1    S    
C29   C30   A    
C7    N1    A    
C10   O9    S    
Cu1   Cu2   S    
C13   O18   A    
Cu2   O20   S    
H15   O8    S    
H17   O10   S    
C2    C26   A    
C15   O7    S    
C12   C14   S    
C22   C24   S    
H18   O11   S    
C7    O6    S    
H4    O3    S    
C15   O21   S    
H11   O5    S    
C28   O4    S    
C14   O19   A    
C11   H29   S    
C20   H10   S    
Cu2   O16   S    
C13   O17   A    
C17   C22   S    
Cu1   O15   S    
C12   C25   S    
C2    C30   A    
C2    C3    S    
C5    O5    S    
C8    H28   S    
C10   O8    S    
C21   H8    S    
H3    O2    S    
C17   C19   S    
H2    O21   S    
C10   C11   S    
Cu2   O12   S    
C5    C26   S    
C4    O16   A    
C20   C21   S    
C18   O14   S    
C27   C28   A    
C1    C27   S    
C23   O13   S    
H14   O7    S    
Cu2   N1    S    
