data_mof_unit_47195.cif
_audit_creation_date              2012-12-10T19:00:11-0500
_audit_creation_method            fapswitch 2.2
_symmetry_space_group_name_H-M    P1
_symmetry_Int_Tables_number       1
_space_group_crystal_system       triclinic
_cell_length_a                    9.558066
_cell_length_b                    10.854592
_cell_length_c                    13.477201
_cell_angle_alpha                 90.564066
_cell_angle_beta                  72.59207
_cell_angle_gamma                 90.934619
_cell_volume                      1334.00819439

loop_
_atom_site_label
_atom_site_type_symbol
_atom_type_description
_atom_site_fract_x
_atom_site_fract_y
_atom_site_fract_z
_atom_type_partial_charge
C1    C     C_R   0.500446 0.737359 0.501863 0.807245
C2    C     C_R   0.438307 0.503046 0.977993 0.079728
C3    C     C_R   0.471049 0.466081 0.872222 0.082962
C4    C     C_R   0.545275 0.484684 0.030699 0.082826
C5    C     C_R   0.679990 0.427404 0.977939 0.168947
C6    C     C_R   0.704108 0.383214 0.877291 -0.262566
C7    C     C_R   0.599035 0.397952 0.826768 -0.217642
C8    C     C_R   0.521955 0.518949 0.134933 -0.270640
C9    C     C_R   0.759071 0.441214 0.132229 -0.202289
C10   C     C_R   0.374359 0.497635 0.814686 -0.104902
C11   C     C_R   0.370798 0.933483 0.550831 0.083873
C12   C     C_R   0.421437 0.495510 0.700042 0.783461
C13   C     C_R   0.501188 0.870093 0.510271 -0.084415
C14   C     C_R   0.633609 0.937036 0.479143 -0.216859
C15   C     C_R   0.631645 0.065116 0.475543 -0.219332
C16   C     C_R   0.497898 0.128245 0.504984 -0.111691
C17   C     C_R   0.368344 0.060728 0.548712 0.075701
C18   C     C_3   0.226105 0.057284 0.522903 -0.121173
C19   C     C_3   0.228633 0.917494 0.528271 -0.464775
C20   C     C_R   0.960980 0.460437 0.414744 0.231072
C21   C     C_R   0.893153 0.550835 0.579797 -0.088064
C22   C     C_R   0.041752 0.550736 0.579848 -0.093197
C23   C     C_R   0.499093 0.262075 0.500087 0.790766
C24   C     C_R   0.108858 0.459728 0.414296 0.218861
C25   C     C_3   0.126031 0.331866 0.368630 -0.177553
C26   C     C_3   0.967787 0.336180 0.367628 -0.515899
C27   C     C_R   0.578582 0.500618 0.300243 0.790448
C28   C     C_R   0.787412 0.410080 0.027926 -0.209400
C29   C     C_R   0.623697 0.490986 0.186921 -0.052078
C30   C     C_R   0.236677 0.546446 0.866572 -0.194782
C31   C     C_R   0.199002 0.572988 0.972011 -0.155256
C32   C     C_R   0.299460 0.555536 0.026687 -0.199161
Cu1   Cu    Cu3+1 0.359330 0.500020 0.500010 0.923647
Cu2   Cu    Cu3+1 0.640670 0.499980 0.499990 0.931407
H1    H     H_    0.839930 0.420896 0.171013 0.144410
H2    H     H_    0.734588 0.113791 0.445162 0.153194
H3    H     H_    0.239557 0.089725 0.442806 0.148730
H4    H     H_    0.143994 0.875386 0.595187 0.189449
H5    H     H_    0.240049 0.872146 0.451946 0.189136
H6    H     H_    0.811251 0.590645 0.645265 0.153956
H7    H     H_    0.070396 0.590300 0.645235 0.137655
H8    H     H_    0.952403 0.339545 0.289303 0.184218
H9    H     H_    0.896135 0.269258 0.421326 0.199705
H10   H     H_    0.890998 0.367759 0.987471 0.138749
H11   H     H_    0.159798 0.569011 0.824775 0.147397
H12   H     H_    0.263661 0.583477 0.107030 0.117801
H13   H     H_    0.618693 0.352877 0.752291 0.179505
H14   H     H_    0.737813 0.890785 0.451345 0.158812
N1    N     N_R   0.852320 0.499070 0.499340 -0.183659
N2    N     N_R   0.148230 0.499110 0.499340 -0.195483
O1    O     O_R   0.381190 0.680360 0.500000 -0.577936
O2    O     O_R   0.618780 0.680320 0.499990 -0.581718
O3    O     O_R   0.323230 0.500000 0.650990 -0.587581
O4    O     O_R   0.560820 0.499960 0.650980 -0.588366
O5    O     O_R   0.381220 0.319680 0.500010 -0.591203
O6    O     O_R   0.618810 0.319640 0.500000 -0.584048
O7    O     O_R   0.439180 0.500040 0.349020 -0.595841
O8    O     O_R   0.676770 0.500000 0.349010 -0.578944
C33   C     C_3   0.099454 0.116344 0.607523 -0.361453
C34   C     C_3   0.951492 0.085768 0.589651 -0.353384
C35   C     C_3   0.829482 0.162711 0.660456 -0.855777
H15   H     H_    0.723290 0.138024 0.647431 0.256921
H16   H     H_    0.820187 0.144456 0.743100 0.248751
H17   H     H_    0.852436 0.262236 0.643545 0.258229
H18   H     H_    0.957820 0.103351 0.507496 0.207445
H19   H     H_    0.923624 0.986694 0.605560 0.223892
H20   H     H_    0.097718 0.083757 0.685940 0.198451
H21   H     H_    0.117582 0.217809 0.605467 0.217013
C36   C     C_3   0.236908 0.321556 0.259652 -0.343581
C37   C     C_3   0.227188 0.195495 0.209473 -0.374688
C38   C     C_3   0.338523 0.187072 0.101552 -0.825496
H22   H     H_    0.332147 0.094003 0.068132 0.238999
H23   H     H_    0.314511 0.256522 0.049127 0.261103
H24   H     H_    0.451547 0.202907 0.106203 0.258773
H25   H     H_    0.249266 0.121556 0.259018 0.210263
H26   H     H_    0.115676 0.179772 0.201944 0.224800
H27   H     H_    0.218673 0.395698 0.208870 0.198865
H28   H     H_    0.348798 0.331616 0.266742 0.228095
H29   H     H_    0.143436 0.264665 0.424318 0.178996
H30   H     H_    0.803987 0.335058 0.838122 0.147404
H31   H     H_    0.422916 0.563261 0.179410 0.143307
H32   H     H_    0.092994 0.612023 0.010929 0.145865

loop_
_geom_bond_atom_site_label_1
_geom_bond_atom_site_label_2
_ccdc_geom_bond_type
Cu1   O5    S    
Cu2   O6    S    
C27   C29   S    
C30   H11   S    
C36   H27   S    
C4    C8    A    
C21   N1    A    
C23   O6    A    
C11   C19   S    
C31   H32   S    
C8    C29   A    
C19   H5    S    
C18   H3    S    
C3    C7    A    
C5    C6    A    
C22   H7    S    
C15   C16   A    
C2    C32   A    
C18   C19   S    
C35   H16   S    
C33   H20   S    
C20   C24   A    
C16   C17   A    
C37   C38   S    
C12   O3    A    
C9    C29   A    
C22   N2    A    
C34   H19   S    
C33   C34   S    
C13   C14   A    
C24   N2    A    
C36   H28   S    
C36   C37   S    
C26   H9    S    
C17   C18   S    
Cu1   O3    S    
C8    H31   S    
C24   C25   S    
C27   O7    A    
C38   H23   S    
C14   H14   S    
C25   C26   S    
C28   H10   S    
C34   C35   S    
C7    H13   S    
C35   H17   S    
C2    C4    A    
C20   N1    A    
C19   H4    S    
C33   H21   S    
C5    C28   A    
C10   C30   A    
C6    H30   S    
C31   C32   A    
Cu1   Cu2   S    
C1    O1    A    
C10   C12   S    
C34   H18   S    
Cu2   O4    S    
C16   C23   S    
C37   H26   S    
C1    C13   S    
C15   H2    S    
C26   H8    S    
Cu2   O8    S    
C11   C17   A    
Cu2   N1    S    
Cu1   O7    S    
C25   H29   S    
C32   H12   S    
C4    C5    A    
C27   O8    A    
C38   H24   S    
C23   O5    A    
C6    C7    A    
Cu1   O1    S    
Cu2   O2    S    
C2    C3    A    
Cu1   N2    S    
C38   H22   S    
C3    C10   A    
C11   C13   A    
C30   C31   A    
C21   H6    S    
C20   C26   S    
C35   H15   S    
C1    O2    A    
C18   C33   S    
C25   C36   S    
C37   H25   S    
C9    H1    S    
C14   C15   A    
C21   C22   A    
C12   O4    A    
C9    C28   A    
