data_mof_unit_67642.cif
_audit_creation_date              2012-10-26T19:15:04-0400
_audit_creation_method            fapswitch 2.2
_symmetry_space_group_name_H-M    P1
_symmetry_Int_Tables_number       1
_space_group_crystal_system       triclinic
_cell_length_a                    11.096027
_cell_length_b                    10.952523
_cell_length_c                    9.650622
_cell_angle_alpha                 89.267392
_cell_angle_beta                  91.174787
_cell_angle_gamma                 92.531514
_cell_volume                      1171.36142559

loop_
_atom_site_label
_atom_site_type_symbol
_atom_type_description
_atom_site_fract_x
_atom_site_fract_y
_atom_site_fract_z
_atom_type_partial_charge
C1    C     C_R   0.499100 0.262642 0.501613 0.520177
C2    C     C_R   0.488646 0.932048 0.618550 -0.076255
C3    C     C_3   0.439828 0.904471 0.756593 0.696226
C4    C     C_R   0.262530 0.502945 0.497986 0.589712
C5    C     C_3   0.441044 0.044980 0.775198 0.572860
C6    C     C_R   0.560538 0.589957 0.073857 0.117366
C7    C     C_R   0.435574 0.413659 0.073620 -0.030065
C8    C     C_R   0.438813 0.411735 0.925484 0.457635
C9    C     C_R   0.556416 0.593790 0.927262 0.154743
C10   C     C_3   0.686274 0.639383 0.922796 0.240689
C11   C     C_3   0.693043 0.622766 0.079937 0.190736
C12   C     C_R   0.933579 0.405155 0.544169 -0.091695
C13   C     C_R   0.500738 0.736851 0.498934 0.603229
C14   C     C_R   0.737529 0.503229 0.500471 0.603548
C15   C     C_R   0.058364 0.403386 0.540216 -0.156592
C16   C     C_R   0.128655 0.502778 0.490279 -0.032793
C17   C     C_R   0.066384 0.597328 0.422990 0.369140
C18   C     C_R   0.938448 0.598567 0.426306 0.385035
C19   C     C_R   0.870969 0.505837 0.497931 0.025309
C20   C     C_3   0.278858 0.050325 0.925452 0.118312
C21   C     C_3   0.148960 0.997803 0.912436 -0.273090
C22   C     C_3   0.108967 0.934911 0.046859 -0.485275
C23   C     C_3   0.930650 0.336125 0.677848 0.631708
C24   C     C_3   0.642462 0.065710 0.876193 0.019825
C25   C     C_3   0.678414 0.003552 0.012662 -0.241505
C26   C     C_3   0.813194 0.983738 0.019004 -0.510960
C27   C     C_3   0.755596 0.412673 0.074029 0.097061
C28   C     C_3   0.782430 0.311786 0.179079 -0.263993
C29   C     C_3   0.915763 0.309190 0.217451 -0.445946
C30   C     C_3   0.888589 0.135543 0.591477 -0.026624
C31   C     C_3   0.785965 0.071432 0.511795 -0.308694
C32   C     C_3   0.832004 0.967979 0.425125 -0.437142
C33   C     C_3   0.115906 0.362687 0.908297 0.086133
C34   C     C_3   0.071712 0.328654 0.670319 0.538050
C35   C     C_3   0.100269 0.475378 0.999458 -0.254438
C36   C     C_3   0.171640 0.590505 0.952077 -0.287968
C37   C     C_3   0.188306 0.187675 0.538820 0.044554
C38   C     C_3   0.138549 0.074340 0.459496 -0.303674
C39   C     C_3   0.233098 0.004914 0.387846 -0.425020
C40   C     C_R   0.485057 0.056371 0.625333 -0.066216
C41   C     C_R   0.500917 0.129322 0.504583 -0.088366
C42   C     C_R   0.519077 0.067621 0.379050 -0.170799
C43   C     C_R   0.519508 0.939439 0.374845 0.312638
C44   C     C_R   0.504088 0.869395 0.497218 0.009909
Cu1   Cu    Cu3+1 0.499990 0.499980 0.640670 1.189290
Cu2   Cu    Cu3+1 0.500010 0.500020 0.359330 1.012413
F1    F     F_    0.129020 0.690761 0.359831 -0.624135
F2    F     F_    0.515694 0.840605 0.841098 -0.690653
F3    F     F_    0.383690 0.318260 0.856234 -0.585800
F4    F     F_    0.759759 0.567125 0.851043 -0.583167
F5    F     F_    0.881291 0.691853 0.363543 -0.624646
F6    F     F_    0.897650 0.413883 0.778459 -0.606324
F7    F     F_    0.531268 0.884933 0.250923 -0.658551
F8    F     F_    0.326481 0.847139 0.744761 -0.636908
H1    H     H_    0.385142 0.341951 0.128195 0.117628
H2    H     H_    0.028835 0.873491 0.026304 0.177412
H3    H     H_    0.086309 0.004475 0.123698 0.138019
H4    H     H_    0.698206 0.151590 0.863235 0.203924
H5    H     H_    0.663887 0.004058 0.791792 0.135504
H6    H     H_    0.651793 0.057970 0.101594 0.186636
H7    H     H_    0.630601 0.913583 0.023871 0.261537
H8    H     H_    0.838829 0.928563 0.929308 0.154042
H9    H     H_    0.835746 0.933388 0.115801 0.177065
H10   H     H_    0.865641 0.072403 0.016907 0.152045
H11   H     H_    0.820606 0.404863 0.991537 0.251499
H12   H     H_    0.697413 0.736306 0.889346 0.139962
H13   H     H_    0.666060 0.391269 0.027431 0.127561
H14   H     H_    0.727663 0.317791 0.272631 0.200815
H15   H     H_    0.756585 0.223875 0.131325 0.104459
H16   H     H_    0.966694 0.274413 0.130395 0.111446
H17   H     H_    0.927937 0.245129 0.304405 0.119752
H18   H     H_    0.952489 0.401019 0.246644 0.180896
H19   H     H_    0.933856 0.067838 0.659056 0.171719
H20   H     H_    0.946053 0.172527 0.509947 0.145858
H21   H     H_    0.720175 0.031882 0.584408 0.167070
H22   H     H_    0.743247 0.139134 0.442325 0.169573
H23   H     H_    0.711341 0.710979 0.133660 0.159191
H24   H     H_    0.891210 0.005448 0.342375 0.143753
H25   H     H_    0.755842 0.915923 0.374800 0.217074
H26   H     H_    0.882672 0.903759 0.491834 0.206318
H27   H     H_    0.193279 0.313585 0.950030 0.168885
H28   H     H_    0.037007 0.297492 0.919015 0.115034
H29   H     H_    0.004127 0.497865 0.000317 0.225239
H30   H     H_    0.128485 0.453195 0.107718 0.108958
H31   H     H_    0.268643 0.573611 0.944267 0.175868
H32   H     H_    0.161497 0.663652 0.028804 0.163319
H33   H     H_    0.136722 0.623077 0.850052 0.217916
H34   H     H_    0.530361 0.118310 0.282906 0.154262
H35   H     H_    0.279814 0.172567 0.576601 0.228751
H36   H     H_    0.199797 0.263592 0.463292 0.087797
H37   H     H_    0.091919 0.009035 0.531470 0.203044
H38   H     H_    0.075698 0.103674 0.376246 0.115161
H39   H     H_    0.284028 0.065843 0.314939 0.137600
H40   H     H_    0.189043 0.928250 0.329539 0.220776
H41   H     H_    0.291369 0.964205 0.467497 0.200750
H42   H     H_    0.281123 0.132180 0.991950 0.145057
H43   H     H_    0.334662 0.981954 0.980919 0.182456
H44   H     H_    0.087081 0.071895 0.885739 0.171995
H45   H     H_    0.141621 0.930064 0.827832 0.235815
H46   H     H_    0.180530 0.877172 0.090449 0.193322
N1    N     N_R   0.500790 0.500930 0.147930 -0.281869
N2    N     N_R   0.500790 0.500890 0.852020 -0.219999
O1    O     O_R   0.500000 0.319640 0.618810 -0.415093
O2    O     O_3   0.520245 0.097174 0.879897 -0.541268
O3    O     O_3   0.769671 0.530512 0.134518 -0.498122
O4    O     O_3   0.850088 0.230196 0.675056 -0.569168
O5    O     O_3   0.138583 0.399220 0.769887 -0.482873
O6    O     O_3   0.116111 0.208509 0.656808 -0.581570
O7    O     O_R   0.500010 0.319680 0.381230 -0.567509
O8    O     O_R   0.319650 0.499970 0.618810 -0.430681
O9    O     O_R   0.319660 0.500010 0.381230 -0.512312
O10   O     O_R   0.499990 0.680320 0.618770 -0.464831
O11   O     O_R   0.500000 0.680360 0.381190 -0.435082
O12   O     O_R   0.680340 0.499990 0.618770 -0.403793
O13   O     O_R   0.680350 0.500030 0.381190 -0.478163
O14   O     O_3   0.322163 0.083689 0.791792 -0.489437

loop_
_geom_bond_atom_site_label_1
_geom_bond_atom_site_label_2
_ccdc_geom_bond_type
C41   C42   A    
C28   H15   S    
C33   O5    S    
C7    H1    S    
C43   C44   A    
C22   H3    S    
C23   F6    S    
Cu1   O10   S    
C7    C8    A    
Cu1   Cu2   S    
C12   C23   S    
Cu2   O13   S    
C34   O5    S    
C28   C29   S    
C28   H14   S    
C13   O10   A    
C38   C39   S    
C30   H20   S    
C3    F8    S    
C27   O3    S    
C15   C16   A    
C38   H38   S    
C3    F2    S    
C18   C19   A    
C6    N1    A    
C26   H10   S    
C39   H39   S    
Cu1   O1    S    
C1    O7    A    
Cu1   O12   S    
C43   F7    S    
C20   H43   S    
C35   C36   S    
C2    C44   A    
C9    N2    A    
C11   O3    S    
C25   H6    S    
C11   H23   S    
C9    C10   S    
C1    O1    A    
C15   C34   S    
C29   H18   S    
C20   H42   S    
C5    O2    S    
C21   C22   S    
C30   O4    S    
C6    C9    A    
C18   F5    S    
C10   H12   S    
C36   H33   S    
Cu2   N1    S    
C22   H46   S    
C24   C25   S    
C37   O6    S    
C10   C11   S    
C6    C11   S    
C20   O14   S    
C30   H19   S    
C35   H29   S    
Cu1   O8    S    
C16   C17   A    
C22   H2    S    
C36   H32   S    
C25   C26   S    
C14   O12   A    
C23   O4    S    
C38   H37   S    
C24   O2    S    
C4    C16   S    
C26   H9    S    
C39   H40   S    
C37   C38   S    
C27   H11   S    
C32   H26   S    
C31   H21   S    
C31   C32   S    
C12   C15   A    
C23   C34   S    
C17   C18   A    
C25   H7    S    
C39   H41   S    
C37   H36   S    
C1    C41   S    
C40   C41   A    
C4    O9    A    
C5    O14   S    
Cu2   O7    S    
C42   H34   S    
C42   C43   A    
C10   F4    S    
C29   H16   S    
C33   H28   S    
C4    O8    A    
Cu2   O11   S    
C14   C19   S    
C17   F1    S    
C3    C5    S    
C35   H30   S    
C36   H31   S    
C37   H35   S    
C34   O6    S    
C2    C3    S    
C26   H8    S    
C32   H25   S    
C21   H44   S    
C31   H22   S    
C30   C31   S    
C8    N2    A    
C24   H5    S    
C21   H45   S    
C12   C19   A    
C33   C35   S    
C27   H13   S    
Cu1   N2    S    
C32   H24   S    
C2    C40   A    
C20   C21   S    
C24   H4    S    
C7    N1    A    
C5    C40   S    
C27   C28   S    
Cu2   O9    S    
C33   H27   S    
C8    F3    S    
C13   C44   S    
C13   O11   A    
C14   O13   A    
C29   H17   S    
