data_mof_unit_50153.cif
_audit_creation_date              2012-12-10T18:50:00-0500
_audit_creation_method            fapswitch 2.2
_symmetry_space_group_name_H-M    P1
_symmetry_Int_Tables_number       1
_space_group_crystal_system       triclinic
_cell_length_a                    10.839545
_cell_length_b                    9.899086
_cell_length_c                    10.894187
_cell_angle_alpha                 90.62583
_cell_angle_beta                  93.920351
_cell_angle_gamma                 91.041557
_cell_volume                      1165.94884612

loop_
_atom_site_label
_atom_site_type_symbol
_atom_type_description
_atom_site_fract_x
_atom_site_fract_y
_atom_site_fract_z
_atom_type_partial_charge
C1    C     C_R   0.261298 0.498920 0.510517 0.892110
C2    C     C_R   0.578475 0.930248 0.579185 0.180527
C3    C     C_R   0.414631 0.926379 0.427028 -0.020353
C4    C     C_R   0.416885 0.070162 0.425037 -0.010316
C5    C     C_R   0.501225 0.500207 0.257450 0.826130
C6    C     C_R   0.740383 0.500332 0.500411 0.899668
C7    C     C_R   0.500259 0.500809 0.741912 0.846685
C8    C     C_3   0.493140 0.656367 0.070657 0.027422
C9    C     C_3   0.381072 0.414353 0.061812 0.073811
C10   C     C_3   0.518508 0.654586 0.929853 0.096490
C11   C     C_3   0.368935 0.434147 0.915860 0.042445
C12   C     C_3   0.603070 0.414677 0.935743 -0.488196
C13   C     C_3   0.617309 0.439288 0.076322 -0.496009
C14   C     C_3   0.496430 0.503277 0.119621 -0.017099
C15   C     C_3   0.495156 0.502866 0.877576 0.006456
C16   C     C_1   0.588247 0.746346 0.138299 0.238936
C17   C     C_1   0.404940 0.268778 0.090207 0.197671
C18   C     C_1   0.310663 0.856082 0.364411 0.199729
C19   C     C_1   0.323706 0.140377 0.351620 0.279396
C20   C     C_1   0.650798 0.691284 0.910485 0.172750
C21   C     C_1   0.343216 0.301119 0.850327 0.151833
C22   C     C_R   0.062995 0.373673 0.509886 0.107970
C23   C     C_R   0.069469 0.614163 0.561776 0.027003
C24   C     C_R   0.936418 0.377408 0.486370 0.008363
C25   C     C_R   0.941539 0.614062 0.554364 0.102140
C26   C     C_R   0.874190 0.498628 0.509908 -0.147587
C27   C     C_R   0.130419 0.495736 0.528797 -0.149491
C28   C     C_R   0.576271 0.073470 0.582084 0.087304
H1    H     H_    0.698556 0.506959 0.100345 0.191902
H2    H     H_    0.351822 0.736924 0.849586 0.204019
H3    H     H_    0.259506 0.527844 0.781716 0.155505
H4    H     H_    0.179853 0.471464 0.895523 0.199591
H5    H     H_    0.092199 0.181981 0.449532 0.215273
H6    H     H_    0.090334 0.200248 0.602720 0.186428
H7    H     H_    0.205388 0.708180 0.674552 0.197221
H8    H     H_    0.167027 0.789553 0.540357 0.224569
H9    H     H_    0.826462 0.208242 0.500036 0.213193
H10   H     H_    0.819308 0.281584 0.356202 0.212352
H11   H     H_    0.907116 0.813654 0.539828 0.197742
H12   H     H_    0.638515 0.342328 0.123204 0.206309
H13   H     H_    0.909213 0.752554 0.685187 0.207636
H14   H     H_    0.688922 0.227103 0.653935 0.231219
H15   H     H_    0.580425 0.167944 0.746381 0.213137
H16   H     H_    0.622344 0.888497 0.753982 0.195245
H17   H     H_    0.742897 0.904580 0.668919 0.179365
H18   H     H_    0.692524 0.436358 0.894937 0.189752
H19   H     H_    0.583878 0.305598 0.917584 0.200614
H20   H     H_    0.345955 0.692329 0.176346 0.230721
H21   H     H_    0.301892 0.685814 0.030728 0.232770
H22   H     H_    0.194638 0.382374 0.086513 0.194206
H23   H     H_    0.273497 0.444236 0.211956 0.195601
H24   H     H_    0.456983 0.852522 0.908602 0.197290
N1    N     N_R   0.499970 0.857200 0.499970 -0.114433
N2    N     N_3   0.263559 0.518902 0.877280 -0.486057
N3    N     N_1   0.753348 0.718300 0.896996 -0.230122
N4    N     N_1   0.322632 0.198726 0.799974 -0.200412
N5    N     N_3   0.121356 0.245018 0.523687 -0.409690
N6    N     N_3   0.133394 0.733379 0.611252 -0.470211
N7    N     N_3   0.875821 0.257481 0.434250 -0.465248
N8    N     N_3   0.880378 0.732298 0.593125 -0.416209
N9    N     N_3   0.643592 0.141336 0.682841 -0.499003
N10   N     N_3   0.654298 0.861714 0.669112 -0.367396
N11   N     N_R   0.499970 0.142800 0.499970 -0.122820
N12   N     N_1   0.661463 0.816126 0.190565 -0.194801
N13   N     N_1   0.425857 0.156099 0.107977 -0.207348
N14   N     N_1   0.223420 0.804494 0.316103 -0.227986
N15   N     N_1   0.247492 0.194378 0.292214 -0.234338
N16   N     N_3   0.373943 0.719531 0.091185 -0.455468
N17   N     N_3   0.265079 0.451317 0.116208 -0.480089
N18   N     N_3   0.445717 0.759050 0.862892 -0.441743
O1    O     O_R   0.316750 0.614620 0.499990 -0.635825
O2    O     O_R   0.316750 0.385380 0.499990 -0.587769
O3    O     O_R   0.499970 0.614670 0.314790 -0.622755
O4    O     O_R   0.499970 0.385330 0.314790 -0.615639
O5    O     O_R   0.683220 0.614710 0.500010 -0.566685
O6    O     O_R   0.683220 0.385290 0.500010 -0.663142
O7    O     O_R   0.500010 0.614660 0.685200 -0.590723
O8    O     O_R   0.500010 0.385340 0.685200 -0.640165
Zn1   Zn    Zn3+2 0.499980 0.653120 0.500000 0.985848
Zn2   Zn    Zn3+2 0.499980 0.346880 0.500000 0.952779

loop_
_geom_bond_atom_site_label_1
_geom_bond_atom_site_label_2
_ccdc_geom_bond_type
C23   N6    S    
H21   N16   S    
C22   N5    S    
O1    Zn1   S    
C6    O5    A    
C4    N11   A    
C1    O1    A    
H7    N6    S    
C13   H1    S    
N1    Zn1   S    
H22   N17   S    
C24   C26   A    
H8    N6    S    
C10   C15   S    
C20   N3    T    
O8    Zn2   S    
H17   N10   S    
C3    C18   S    
C5    O4    A    
C13   H12   S    
C4    C19   S    
C11   C15   S    
C10   C20   S    
H6    N5    S    
C8    C14   S    
C19   N15   T    
C25   N8    S    
C23   C27   A    
C7    O7    A    
C28   N9    S    
C7    C15   S    
C8    C16   S    
O4    Zn2   S    
C13   C14   S    
C12   H19   S    
H4    N2    S    
H2    N18   S    
N11   Zn2   S    
O7    Zn1   S    
C1    O2    A    
C12   H18   S    
H16   N10   S    
C25   C26   A    
C11   C21   S    
C9    C14   S    
C12   C15   S    
O3    Zn1   S    
H20   N16   S    
C9    C11   S    
H14   N9    S    
C5    C14   S    
H9    N7    S    
C11   N2    S    
C7    O8    A    
C10   N18   S    
C9    C17   S    
C8    N16   S    
C22   C27   A    
C22   C24   A    
C3    C4    A    
H15   N9    S    
H5    N5    S    
O6    Zn2   S    
H13   N8    S    
C9    N17   S    
C2    N1    A    
C21   N4    T    
C6    O6    A    
C18   N14   T    
H23   N17   S    
C17   N13   T    
O2    Zn2   S    
C3    N1    A    
C6    C26   S    
C24   N7    S    
H11   N8    S    
C23   C25   A    
H3    N2    S    
C5    O3    A    
H24   N18   S    
H10   N7    S    
C28   N11   A    
C12   C13   S    
C8    C10   S    
C1    C27   S    
C2    C28   A    
C16   N12   T    
O5    Zn1   S    
C2    N10   S    
