data_mof_unit_39476.cif
_audit_creation_date              2012-12-10T18:11:02-0500
_audit_creation_method            fapswitch 2.2
_symmetry_space_group_name_H-M    P1
_symmetry_Int_Tables_number       1
_space_group_crystal_system       triclinic
_cell_length_a                    11.197612
_cell_length_b                    9.71613
_cell_length_c                    10.777075
_cell_angle_alpha                 89.36626
_cell_angle_beta                  87.513807
_cell_angle_gamma                 89.893403
_cell_volume                      1171.34185855

loop_
_atom_site_label
_atom_site_type_symbol
_atom_type_description
_atom_site_fract_x
_atom_site_fract_y
_atom_site_fract_z
_atom_type_partial_charge
C1    C     C_R   0.259922 0.500655 0.495077 0.780575
C2    C     C_3   0.479937 0.500672 0.124394 -0.074044
C3    C     C_3   0.065870 0.642508 0.541620 -0.164831
C4    C     C_3   0.066048 0.387230 0.580071 -0.186425
C5    C     C_3   0.925499 0.657460 0.532161 0.009659
C6    C     C_3   0.925302 0.399885 0.602233 -0.002477
C7    C     C_3   0.073436 0.485195 0.358394 -0.370486
C8    C     C_3   0.119859 0.502913 0.491429 -0.168491
C9    C     C_3   0.876155 0.505305 0.498244 -0.199206
C10   C     C_3   0.931773 0.469935 0.358148 -0.049071
C11   C     C_3   0.607858 0.081711 0.559290 -0.286203
C12   C     C_3   0.604875 0.917642 0.564951 -0.210333
C13   C     C_3   0.394435 0.081918 0.573749 -0.123201
C14   C     C_3   0.393504 0.916379 0.570413 -0.134695
C15   C     C_3   0.503434 0.085137 0.375144 0.077548
C16   C     C_3   0.510174 0.920186 0.375076 0.056315
C17   C     C_R   0.489075 0.500489 0.261313 0.883511
C18   C     C_R   0.738694 0.500791 0.500805 0.939689
C19   C     C_R   0.501382 0.499183 0.739345 0.881636
C20   C     C_3   0.434275 0.613261 0.036597 0.165695
C21   C     C_3   0.423498 0.393040 0.041195 0.164194
C22   C     C_3   0.377401 0.505683 0.953384 -0.374773
C23   C     C_3   0.496966 0.497236 0.875731 -0.026756
C24   C     C_3   0.551447 0.605862 0.958846 0.219843
C25   C     C_3   0.540271 0.383171 0.963129 0.191218
C26   C     C_3   0.598926 0.491389 0.044875 -0.307089
Cu1   Cu    Cu3+1 0.499860 0.642410 0.500060 1.019518
Cu2   Cu    Cu3+1 0.499860 0.357590 0.500060 1.006149
H1    H     H_    0.286203 0.510722 0.917025 0.172031
H2    H     H_    0.620316 0.123337 0.652902 0.214304
H3    H     H_    0.608629 0.882846 0.662419 0.260271
H4    H     H_    0.689094 0.112584 0.503586 0.150982
H5    H     H_    0.688997 0.880317 0.520589 0.149196
H6    H     H_    0.587006 0.121875 0.326107 0.141274
H7    H     H_    0.600458 0.893006 0.334019 0.129990
H8    H     H_    0.313921 0.115149 0.527645 0.146667
H9    H     H_    0.320541 0.887441 0.514337 0.134998
H10   H     H_    0.691727 0.480652 0.074805 0.212069
H11   H     H_    0.089030 0.640034 0.640620 0.194664
H12   H     H_    0.111930 0.400253 0.668163 0.176990
H13   H     H_    0.104197 0.574603 0.302673 0.238282
H14   H     H_    0.122605 0.404838 0.305900 0.232811
N1    N     N_3   0.500250 0.143650 0.502780 -0.174030
N2    N     N_3   0.500250 0.856350 0.502780 -0.185093
O1    O     O_R   0.317570 0.620260 0.500070 -0.575824
O2    O     O_R   0.317570 0.379740 0.500070 -0.548745
O3    O     O_R   0.499850 0.620240 0.316900 -0.533830
O4    O     O_R   0.499850 0.379760 0.316900 -0.533540
O5    O     O_R   0.682190 0.620260 0.500030 -0.564419
O6    O     O_R   0.682190 0.379740 0.500030 -0.578540
O7    O     O_R   0.499910 0.620280 0.683200 -0.548564
O8    O     O_R   0.499910 0.379720 0.683200 -0.581980
C27   C     C_2   0.883611 0.565251 0.256511 0.835123
O9    O     O_2   0.776316 0.587599 0.253155 -0.630365
O10   O     O_R   0.959460 0.620241 0.161830 -0.763997
H15   H     H_    0.915281 0.678618 0.100081 0.329637
C28   C     C_2   0.895995 0.329062 0.307966 0.777179
O11   O     O_2   0.971073 0.246135 0.270975 -0.587834
O12   O     O_R   0.775870 0.300093 0.289396 -0.754115
H16   H     H_    0.764965 0.209272 0.245966 0.311827
C29   C     C_2   0.375676 0.142775 0.702809 0.936694
O13   O     O_2   0.445277 0.118718 0.784201 -0.567173
O14   O     O_R   0.279229 0.230464 0.728089 -0.756789
H17   H     H_    0.277123 0.268561 0.815056 0.320403
C30   C     C_2   0.364895 0.848260 0.696843 0.931263
O15   O     O_2   0.432556 0.858920 0.781950 -0.574934
O16   O     O_R   0.260371 0.772088 0.716671 -0.743816
H18   H     H_    0.250920 0.731789 0.803567 0.321883
N3    N     N_3   0.406861 0.140897 0.302696 -0.494760
H19   H     H_    0.323723 0.101968 0.330626 0.231911
H20   H     H_    0.424503 0.111420 0.211217 0.225737
N4    N     N_3   0.426608 0.859562 0.291923 -0.501293
H21   H     H_    0.338983 0.889267 0.311259 0.251651
H22   H     H_    0.452389 0.893829 0.202780 0.225126
N5    N     N_3   0.367266 0.735262 0.072275 -0.576902
H23   H     H_    0.341920 0.785828 0.991790 0.262412
H24   H     H_    0.288639 0.702651 0.119484 0.249510
N6    N     N_3   0.346363 0.280712 0.083234 -0.576178
H25   H     H_    0.263040 0.322121 0.109812 0.241273
H26   H     H_    0.334099 0.215845 0.008423 0.251332
N7    N     N_3   0.621426 0.725273 0.917720 -0.472117
H27   H     H_    0.613997 0.798315 0.988098 0.228003
H28   H     H_    0.710983 0.694849 0.913356 0.241230
N8    N     N_3   0.597319 0.253718 0.928195 -0.498606
H29   H     H_    0.603813 0.194568 0.009228 0.221410
H30   H     H_    0.684683 0.274879 0.896481 0.250389
C31   C     C_2   0.122259 0.771257 0.489934 0.934271
O17   O     O_2   0.160175 0.780350 0.382197 -0.636249
O18   O     O_R   0.111998 0.887208 0.562685 -0.676864
H31   H     H_    0.150195 0.966323 0.517518 0.310143
C32   C     C_2   0.099774 0.242940 0.543578 0.954820
O19   O     O_2   0.082542 0.151387 0.620713 -0.523441
O20   O     O_R   0.143551 0.212961 0.423949 -0.777338
H32   H     H_    0.120517 0.119515 0.393191 0.329201
C33   C     C_2   0.875521 0.720826 0.655764 0.819323
O21   O     O_2   0.769664 0.714404 0.685567 -0.592531
O22   O     O_R   0.950359 0.791416 0.734158 -0.689396
H33   H     H_    0.906350 0.828507 0.810957 0.337792
C34   C     C_2   0.894695 0.448069 0.735939 0.841992
O23   O     O_2   0.789843 0.456297 0.771784 -0.637902
O24   O     O_R   0.983048 0.481509 0.818602 -0.775377
H34   H     H_    0.948573 0.511284 0.902638 0.347849
N9    N     N_3   0.900179 0.760275 0.432892 -0.559913
H35   H     H_    0.912927 0.861028 0.463118 0.228159
H36   H     H_    0.813058 0.761077 0.405100 0.246574
N10   N     N_3   0.870609 0.261367 0.597977 -0.555760
H37   H     H_    0.866243 0.221659 0.509494 0.233675
H38   H     H_    0.788207 0.252752 0.646238 0.248428

loop_
_geom_bond_atom_site_label_1
_geom_bond_atom_site_label_2
_ccdc_geom_bond_type
C7    C10   S    
C31   O17   D    
C5    N9    S    
O20   H32   S    
C22   H1    S    
C1    C8    S    
C33   O21   D    
C16   N4    S    
C17   O4    A    
C4    C8    S    
C6    C9    S    
N7    H27   S    
C7    C8    S    
C27   O9    D    
Cu2   O2    S    
O24   H34   S    
N8    H30   S    
C16   H7    S    
N6    H26   S    
C1    O2    A    
C28   O12   S    
N10   H37   S    
C15   C16   S    
C29   O14   S    
C7    H14   S    
N3    H20   S    
C10   C27   S    
N7    H28   S    
Cu2   O6    S    
C19   O8    A    
C20   C24   S    
C11   H2    S    
C30   O16   S    
C21   N6    S    
C25   N8    S    
C23   C24   S    
C11   N1    S    
C9    C10   S    
C16   N2    S    
C15   H6    S    
C4    C32   S    
Cu1   O1    S    
C23   C25   S    
C3    H11   S    
O12   H16   S    
C21   C22   S    
C2    C17   S    
C29   O13   D    
Cu1   N2    S    
C5    C33   S    
Cu1   O7    S    
O22   H33   S    
C27   O10   S    
C15   N3    S    
C3    C31   S    
O16   H18   S    
C4    H12   S    
C10   C28   S    
N8    H29   S    
C13   H8    S    
C4    C6    S    
C3    C8    S    
C32   O19   D    
N6    H25   S    
C26   H10   S    
C25   C26   S    
C2    C20   S    
C20   N5    S    
C19   C23   S    
N5    H23   S    
C5    C9    S    
C32   O20   S    
C34   O23   D    
C24   N7    S    
C2    C21   S    
C6    N10   S    
N9    H36   S    
N5    H24   S    
N4    H22   S    
C34   O24   S    
C20   C22   S    
C11   H4    S    
C31   O18   S    
C12   H3    S    
C13   N1    S    
C18   O6    A    
C14   N2    S    
Cu1   O3    S    
C21   C25   S    
Cu2   O4    S    
C17   O3    A    
C24   C26   S    
N4    H21   S    
C3    C5    S    
C2    C26   S    
C11   C12   S    
C33   O22   S    
Cu2   N1    S    
C6    C34   S    
O18   H31   S    
C15   N1    S    
C12   N2    S    
C14   H9    S    
Cu2   O8    S    
C1    O1    A    
C28   O11   D    
N10   H38   S    
C14   C30   S    
C7    H13   S    
N3    H19   S    
O10   H15   S    
O14   H17   S    
C19   O7    A    
C9    C18   S    
C13   C29   S    
C30   O15   D    
N9    H35   S    
C22   C23   S    
C12   H5    S    
C13   C14   S    
Cu1   O5    S    
C18   O5    A    
Cu1   Cu2   S    
