data_mof_unit_13568.cif
_audit_creation_date              2013-03-05T16:03:25-0500
_audit_creation_method            fapswitch 2.2
_symmetry_space_group_name_H-M    P1
_symmetry_Int_Tables_number       1
_space_group_crystal_system       triclinic
_cell_length_a                    6.943524
_cell_length_b                    18.170564
_cell_length_c                    20.276378
_cell_angle_alpha                 68.52237
_cell_angle_beta                  90.776701
_cell_angle_gamma                 90.777365
_cell_volume                      2380.26280665

loop_
_atom_site_label
_atom_site_type_symbol
_atom_site_description
_atom_site_fract_x
_atom_site_fract_y
_atom_site_fract_z
_atom_type_partial_charge
O1    O     O_R   0.488960 0.443750 0.941980 -0.603181
O2    O     O_R   0.823890 0.406510 0.087590 -0.603603
O3    O     O_R   0.999680 0.556250 0.058020 -0.571970
C1    C     C_R   0.655459 0.383204 0.114748 0.926119
O4    O     O_R   0.818360 0.434410 0.944340 -0.596094
O5    O     O_R   0.994110 0.584350 0.913750 -0.564784
C2    C     C_R   0.648602 0.420119 0.923991 0.969285
O6    O     O_R   0.494530 0.415650 0.086250 -0.596474
O7    O     O_3   0.662590 0.549160 0.990130 -0.250880
V1    V     V_3+5 0.935320 0.490880 0.001830 1.192886
O8    O     O_R   0.324180 0.593490 0.912410 -0.600179
C3    C     C_R   0.155006 0.617116 0.885294 1.070860
O9    O     O_R   0.329720 0.565590 0.055660 -0.593811
C4    C     C_R   0.162356 0.579342 0.076468 1.074341
V2    V     V_3+5 0.435990 0.509120 0.998170 1.187036
O10   O     O_3   0.158850 0.450840 0.009870 -0.292218
C5    C     C_3   0.999909 0.717642 0.298589 0.389525
C6    C     C_3   0.177132 0.672815 0.289014 -0.224441
H1    H     H_    0.211693 0.610253 0.320866 0.163089
H2    H     H_    0.445933 0.744769 0.309114 0.190280
C7    C     C_1   0.156198 0.624935 0.122083 -0.266565
C8    C     C_1   0.109984 0.874086 0.378535 -0.269228
C9    C     C_3   0.959638 0.751182 0.218338 -0.249026
C10   C     C_3   0.140391 0.708004 0.208214 0.169077
C11   C     C_3   0.087370 0.824352 0.212467 -0.208931
C12   C     C_3   0.123895 0.789754 0.293356 0.054019
C13   C     C_3   0.267814 0.780619 0.201456 -0.111365
C14   C     C_3   0.303947 0.746325 0.282850 -0.166164
C15   C     C_1   0.149649 0.662549 0.160721 0.024349
C16   C     C_1   0.116108 0.835972 0.340307 0.081244
H3    H     H_    0.379861 0.806650 0.160742 0.125009
H4    H     H_    0.051166 0.886827 0.180961 0.138948
H5    H     H_    0.816674 0.752453 0.192752 0.144994
H6    H     H_    0.406039 0.540791 0.695516 0.123886
C17   C     C_R   0.008112 0.772758 0.875312 0.704930
C18   C     C_R   0.931840 0.845129 0.870530 -0.217691
C19   C     C_R   0.915880 0.906650 0.805468 -0.188550
C20   C     C_R   0.977324 0.896753 0.744328 -0.169800
C21   C     C_R   0.053755 0.823943 0.746728 0.065962
C22   C     C_R   0.068103 0.759848 0.813540 -0.079811
C23   C     C_R   0.119360 0.815377 0.683947 -0.262379
C24   C     C_R   0.197998 0.742390 0.687614 0.122407
C25   C     C_R   0.210266 0.677831 0.753828 0.110536
C26   C     C_R   0.145058 0.686150 0.816876 -0.305971
C27   C     C_R   0.261687 0.731672 0.625714 -0.158393
C28   C     C_R   0.336870 0.659753 0.628923 -0.078259
C29   C     C_R   0.348659 0.596749 0.693358 -0.109006
C30   C     C_R   0.285465 0.605194 0.755093 -0.189279
H7    H     H_    0.886510 0.853836 0.918019 0.161413
H8    H     H_    0.857687 0.962805 0.802431 0.164219
H9    H     H_    0.965292 0.947295 0.695334 0.131940
H10   H     H_    0.252790 0.778366 0.574050 0.112818
H11   H     H_    0.385016 0.652734 0.581022 0.141751
H12   H     H_    0.295510 0.553846 0.803536 0.113550
H13   H     H_    0.965898 0.352669 0.409361 0.176375
C31   C     C_R   0.444592 0.109839 0.258396 -0.181169
C32   C     C_R   0.362478 0.102753 0.197943 -0.113026
C33   C     C_R   0.371829 0.165517 0.133410 -0.106620
C34   C     C_R   0.464380 0.235641 0.128791 -0.163614
C35   C     C_R   0.547349 0.245076 0.189484 0.123804
C36   C     C_R   0.536084 0.181106 0.255999 0.117291
C37   C     C_R   0.646925 0.315600 0.183940 -0.285420
C38   C     C_R   0.736644 0.322240 0.244804 0.105839
C39   C     C_R   0.714920 0.260770 0.312895 -0.043392
C40   C     C_R   0.618573 0.188443 0.318051 -0.295735
C41   C     C_R   0.844472 0.391108 0.239106 -0.171952
C42   C     C_R   0.934121 0.399065 0.297491 -0.172432
C43   C     C_R   0.906516 0.342088 0.363921 -0.133103
C44   C     C_R   0.790352 0.275451 0.373122 0.338898
H14   H     H_    0.436392 0.058198 0.306560 0.119178
H15   H     H_    0.292659 0.047911 0.201138 0.114689
H16   H     H_    0.309346 0.159502 0.086412 0.120873
H17   H     H_    0.472451 0.281646 0.076786 0.113108
H18   H     H_    0.861589 0.440393 0.189708 0.137184
H19   H     H_    0.018032 0.451758 0.291596 0.150557
O11   O     O_R   0.770540 0.084530 0.414050 -0.596494
O12   O     O_R   0.445710 0.065660 0.555720 -0.573550
O13   O     O_R   0.270420 0.915650 0.586190 -0.601068
C45   C     C_R   0.614598 0.076729 0.578858 1.066225
O14   O     O_R   0.441140 0.093540 0.412470 -0.576007
O15   O     O_R   0.265820 0.943740 0.441930 -0.605356
C46   C     C_R   0.610218 0.118583 0.386270 1.017422
O16   O     O_R   0.775150 0.056440 0.558310 -0.576354
O17   O     O_3   0.602370 0.950960 0.510050 -0.289849
V3    V     V_3+5 0.329450 0.009140 0.498150 1.216691
O18   O     O_R   0.935790 0.934280 0.444060 -0.585558
C47   C     C_R   0.103444 0.920121 0.423768 0.957709
O19   O     O_R   0.940370 0.906390 0.587310 -0.599828
C48   C     C_R   0.109402 0.883385 0.614843 0.923457
V4    V     V_3+5 0.828810 0.990710 0.501460 1.204891
O20   O     O_3   0.105780 0.049100 0.489960 -0.245680
C49   C     C_3   0.767028 0.304099 0.731196 -0.089358
C50   C     C_3   0.593368 0.295342 0.685459 -0.183158
H20   H     H_    0.563112 0.334867 0.629958 0.169231
H21   H     H_    0.879256 0.351207 0.713860 0.126999
H22   H     H_    0.313279 0.307411 0.747188 0.145825
C51   C     C_1   0.623954 0.121448 0.625251 -0.182422
C52   C     C_1   0.638055 0.373817 0.878994 -0.307022
C53   C     C_3   0.804461 0.213912 0.755732 -0.218952
C54   C     C_3   0.631076 0.205762 0.710484 0.022313
C55   C     C_3   0.668784 0.199025 0.819760 -0.279734
C56   C     C_3   0.631007 0.288642 0.794459 0.131517
C57   C     C_3   0.497289 0.191340 0.773494 0.802185
C58   C     C_3   0.457155 0.280660 0.749300 -0.306830
C59   C     C_1   0.628381 0.159244 0.663793 0.091193
C60   C     C_1   0.633307 0.335331 0.841024 0.023893
H23   H     H_    0.697869 0.159158 0.875242 0.152449
H24   H     H_    0.947661 0.186592 0.758003 0.196548
N1    N     N_R   0.851522 0.681495 0.351009 0.225344
O21   O     O_R   0.755868 0.620219 0.349223 -0.414137
O22   O     O_R   0.812849 0.710206 0.399352 -0.417957
N2    N     N_R   0.729941 0.231170 0.443746 0.202701
O23   O     O_R   0.853791 0.218166 0.495447 -0.419446
O24   O     O_R   0.547054 0.228414 0.457737 -0.433815
F1    F     F_    0.357596 0.132652 0.795147 -0.717800
F2    F     F_    0.026461 0.717194 0.941301 -0.733965

loop_
_geom_bond_atom_site_label_1
_geom_bond_atom_site_label_2
_geom_bond_distance
_ccdc_geom_bond_type
C55   H23   1.110018 S    
C23   C48   1.492290 S    
C55   C56   1.542677 S    
C2    C52   1.450616 S    
C23   C24   1.417350 A    
C57   F1    1.382526 S    
C17   C18   1.394020 A    
C10   C13   1.543299 S    
C1    O6    1.296535 A    
N2    O24   1.301234 A    
H13   C43   1.083121 S    
V3    O20   1.703553 S    
C21   C23   1.419478 A    
C27   C28   1.392784 A    
C30   H12   1.081213 S    
C53   H24   1.110233 S    
C54   C59   1.481957 S    
C50   H20   1.110059 S    
C6    C10   1.544043 S    
C5    C12   1.529513 S    
C4    C7    1.451455 S    
C18   C19   1.386262 A    
C19   C20   1.389574 A    
N1    O22   1.300202 A    
O5    C3    1.297444 A    
C20   C21   1.416173 A    
C44   N2    1.427375 S    
V2    O10   2.157285 S    
C41   H18   1.078358 S    
C1    C37   1.489643 S    
C31   C32   1.392407 A    
C35   C37   1.416118 A    
C6    H1    1.110211 S    
C10   C15   1.482969 S    
O8    V2    2.005076 S    
C29   C30   1.392959 A    
C43   C44   1.401302 A    
C9    H5    1.110389 S    
C9    C10   1.544197 S    
O1    V2    1.964292 S    
C25   C30   1.417344 A    
C34   H17   1.081068 S    
C49   C56   1.542135 S    
C51   C59   1.214535 T    
C11   H4    1.110103 S    
C9    C11   1.556733 S    
C41   C42   1.383034 A    
C38   C41   1.418053 A    
O12   V3    1.974550 S    
C34   C35   1.417159 A    
C55   C57   1.542292 S    
O9    C4    1.299731 A    
O17   V4    1.705466 S    
C50   C58   1.553961 S    
N2    O23   1.301531 A    
C40   C46   1.497490 S    
O12   C45   1.297510 A    
O13   C48   1.296782 A    
C13   H3    1.109964 S    
C42   C43   1.379620 A    
C6    C14   1.556899 S    
O17   V3    2.149910 S    
O14   C46   1.301133 A    
O18   V4    1.968686 S    
O11   C46   1.298391 A    
C21   C22   1.430274 A    
O4    C2    1.297696 A    
O18   C47   1.299720 A    
C20   H9    1.081206 S    
H2    C14   1.109897 S    
C27   H10   1.081610 S    
C11   C12   1.545178 S    
C8    C47   1.451493 S    
C7    C15   1.215258 T    
C54   C57   1.531116 S    
C35   C36   1.424303 A    
C24   C27   1.416026 A    
O2    C1    1.297529 A    
C25   C26   1.421684 A    
O14   V3    2.006180 S    
C53   C54   1.542000 S    
C37   C38   1.418384 A    
C5    C6    1.537809 S    
C17   F2    1.354802 S    
C5    C9    1.537359 S    
C39   C44   1.433242 A    
C32   H15   1.082927 S    
C56   C58   1.542465 S    
C50   C54   1.542299 S    
O15   C47   1.297047 A    
O3    C4    1.297109 A    
O13   V3    2.005194 S    
C53   C55   1.554101 S    
O19   V4    2.005061 S    
C12   C16   1.484109 S    
O6    V2    2.004310 S    
C31   H14   1.080033 S    
H22   C58   1.110352 S    
C42   H19   1.083246 S    
C24   C25   1.425546 A    
V4    O20   2.157353 S    
O2    V1    2.006200 S    
C13   C14   1.554001 S    
O7    V1    2.149911 S    
O16   V4    1.981393 S    
C28   C29   1.388756 A    
C8    C16   1.215346 T    
O1    C2    1.297956 A    
C45   C51   1.451203 S    
C5    N1    1.457000 S    
O5    V1    2.005138 S    
O8    C3    1.299905 A    
C11   C13   1.554242 S    
C12   C14   1.545374 S    
C52   C60   1.214829 T    
C39   C40   1.436349 A    
O9    V2    1.968735 S    
C17   C22   1.424537 A    
C33   C34   1.391878 A    
O4    V1    1.974546 S    
C3    C26   1.492734 S    
O3    V1    1.967601 S    
V1    O10   1.703469 S    
N1    O21   1.300371 A    
C45   O16   1.299426 A    
C19   H8    1.082920 S    
C33   H16   1.082618 S    
C32   C33   1.387278 A    
C28   H11   1.082609 S    
C49   C50   1.553012 S    
C56   C60   1.482293 S    
C49   H21   1.110180 S    
O7    V2    1.708959 S    
C38   C39   1.431191 A    
C36   C40   1.424802 A    
C22   C26   1.426706 A    
O19   C48   1.299454 A    
C57   C58   1.542080 S    
C31   C36   1.419611 A    
H6    C29   1.082809 S    
O15   V3    1.967465 S    
C18   H7    1.082776 S    
C49   C53   1.552939 S    
O11   V4    1.999476 S    
