data_mof_unit_53101.cif
_audit_creation_date              2012-12-10T17:59:19-0500
_audit_creation_method            fapswitch 2.2
_symmetry_space_group_name_H-M    P1
_symmetry_Int_Tables_number       1
_space_group_crystal_system       triclinic
_cell_length_a                    10.9046
_cell_length_b                    9.627758
_cell_length_c                    10.988538
_cell_angle_alpha                 91.446666
_cell_angle_beta                  94.827253
_cell_angle_gamma                 89.964777
_cell_volume                      1149.19219012

loop_
_atom_site_label
_atom_site_type_symbol
_atom_type_description
_atom_site_fract_x
_atom_site_fract_y
_atom_site_fract_z
_atom_type_partial_charge
C1    C     C_R   0.262525 0.500918 0.499400 0.833313
C2    C     C_3   0.634441 0.556220 0.941047 0.269322
C3    C     C_R   0.057335 0.399589 0.439886 0.339557
C4    C     C_R   0.072514 0.610548 0.567248 0.356218
C5    C     C_R   0.935172 0.383089 0.462538 0.100024
C6    C     C_R   0.943856 0.607603 0.574961 0.063628
C7    C     C_R   0.873703 0.496035 0.516829 -0.173800
C8    C     C_R   0.128571 0.504701 0.501173 -0.237576
C9    C     C_R   0.415077 0.071250 0.426939 0.285675
C10   C     C_R   0.411318 0.923711 0.430735 0.299831
C11   C     C_R   0.585966 0.928199 0.571278 -0.080870
C12   C     C_R   0.584873 0.076158 0.572672 -0.054386
C13   C     C_R   0.494778 0.498818 0.259243 0.817817
C14   C     C_R   0.738156 0.499325 0.507171 0.807681
C15   C     C_R   0.500866 0.501797 0.739551 0.871390
C16   C     C_3   0.401711 0.616750 0.062053 0.435943
C17   C     C_3   0.450769 0.350018 0.059760 0.378403
C18   C     C_3   0.389388 0.600469 0.917834 0.674427
C19   C     C_3   0.472796 0.349174 0.918670 0.655938
C20   C     C_3   0.636017 0.530189 0.086227 0.291053
C21   C     C_3   0.494942 0.498691 0.119667 -0.152474
C22   C     C_3   0.501345 0.504887 0.877189 -0.250818
Cu1   Cu    Cu3+1 0.500020 0.640660 0.500000 0.938167
Cu2   Cu    Cu3+1 0.500020 0.359340 0.500000 0.978851
H1    H     H_    0.654791 0.875217 0.629163 0.128698
H2    H     H_    0.652913 0.132842 0.631658 0.145490
N1    N     N_R   0.500030 0.852070 0.500030 -0.168730
N2    N     N_R   0.500030 0.147930 0.500030 -0.173376
O1    O     O_R   0.319660 0.618740 0.499990 -0.545412
O2    O     O_R   0.319660 0.381260 0.499990 -0.574653
O3    O     O_R   0.499990 0.618790 0.317690 -0.614667
O4    O     O_R   0.499990 0.381210 0.317690 -0.544769
O5    O     O_R   0.680370 0.618830 0.500010 -0.583472
O6    O     O_R   0.680370 0.381170 0.500010 -0.591217
O7    O     O_R   0.500030 0.618780 0.682310 -0.611881
O8    O     O_R   0.500030 0.381220 0.682310 -0.502033
O9    O     O_3   0.453361 0.749436 0.088617 -0.749447
H3    H     H_    0.437684 0.782653 0.171592 0.353426
O10   O     O_3   0.519992 0.243110 0.118791 -0.707182
H4    H     H_    0.493468 0.151486 0.082286 0.328907
C23   C     C_3   0.270371 0.621015 0.112546 -0.790902
H5    H     H_    0.196303 0.562041 0.060145 0.257165
H6    H     H_    0.271953 0.583504 0.206673 0.150979
H7    H     H_    0.234469 0.728982 0.111843 0.247287
C24   C     C_3   0.313629 0.315504 0.078391 -0.841240
H8    H     H_    0.289515 0.352039 0.168190 0.207649
H9    H     H_    0.245564 0.357168 0.009693 0.284749
H10   H     H_    0.295694 0.202241 0.070090 0.220901
O11   O     O_3   0.277946 0.534348 0.876632 -0.721068
H11   H     H_    0.266736 0.540874 0.786365 0.376507
O12   O     O_3   0.367774 0.296751 0.846534 -0.708529
H12   H     H_    0.354615 0.198050 0.866072 0.323183
O13   O     O_3   0.377766 0.735610 0.869086 -0.653821
H13   H     H_    0.451426 0.766816 0.833086 0.342741
O14   O     O_3   0.573180 0.262719 0.895273 -0.761811
H14   H     H_    0.547723 0.163743 0.891144 0.321296
C25   C     C_3   0.700099 0.653438 0.165315 -0.743242
H15   H     H_    0.653854 0.754813 0.161039 0.264293
H16   H     H_    0.713929 0.628232 0.263383 0.232639
H17   H     H_    0.794457 0.671742 0.138043 0.205708
C26   C     C_3   0.723993 0.407682 0.126724 -0.723003
H18   H     H_    0.712673 0.382972 0.222578 0.236437
H19   H     H_    0.711548 0.310800 0.072146 0.285848
H20   H     H_    0.822550 0.435281 0.122405 0.208330
C27   C     C_3   0.662283 0.712502 0.914911 -0.862897
H21   H     H_    0.652546 0.733756 0.816430 0.221219
H22   H     H_    0.607076 0.789175 0.961742 0.275648
H23   H     H_    0.759040 0.741332 0.944378 0.232540
C28   C     C_3   0.744607 0.482174 0.880953 -0.725934
H24   H     H_    0.738794 0.497300 0.781142 0.200655
H25   H     H_    0.834442 0.526017 0.919143 0.216393
H26   H     H_    0.755054 0.369760 0.892208 0.262024
O15   O     O_3   0.102334 0.317759 0.349793 -0.748745
H27   H     H_    0.157011 0.377157 0.306002 0.296791
O16   O     O_3   0.146426 0.712770 0.626040 -0.693187
H28   H     H_    0.099252 0.800131 0.631804 0.337435
C29   C     C_3   0.876207 0.242280 0.431183 -0.698171
H29   H     H_    0.942515 0.164267 0.400032 0.250876
H30   H     H_    0.841073 0.199144 0.514306 0.209318
H31   H     H_    0.800887 0.248754 0.358109 0.231686
C30   C     C_3   0.887357 0.715407 0.655998 -0.851929
H32   H     H_    0.944161 0.727588 0.744442 0.248613
H33   H     H_    0.880796 0.816632 0.609629 0.222646
H34   H     H_    0.795727 0.685919 0.681237 0.233479
C31   C     C_3   0.325692 0.138539 0.337152 -0.741919
H35   H     H_    0.335413 0.248907 0.335449 0.285928
H36   H     H_    0.342253 0.098983 0.244700 0.204745
H37   H     H_    0.230565 0.114020 0.358003 0.254965
C32   C     C_3   0.302014 0.849144 0.365225 -0.833499
H38   H     H_    0.326767 0.746469 0.335195 0.268124
H39   H     H_    0.225551 0.845365 0.425561 0.257174
H40   H     H_    0.266612 0.895431 0.278327 0.186930

loop_
_geom_bond_atom_site_label_1
_geom_bond_atom_site_label_2
_ccdc_geom_bond_type
C10   N1    A    
O14   H14   S    
C16   C21   S    
C26   H20   S    
C1    C8    S    
C23   H5    S    
C13   O4    A    
C4    C8    A    
C2    C27   S    
C14   O5    A    
C30   H32   S    
C29   H29   S    
Cu2   O8    S    
C12   N2    A    
Cu1   O1    S    
C15   C22   S    
C17   C24   S    
C31   H35   S    
C31   H37   S    
C11   H1    S    
C26   H19   S    
C17   O10   S    
C20   C26   S    
C28   H25   S    
C4    O16   S    
C18   O13   S    
C9    C31   S    
C7    C14   S    
C10   C32   S    
Cu1   O5    S    
C2    C22   S    
Cu1   Cu2   S    
Cu1   N1    S    
C32   H39   S    
C2    C28   S    
C9    C10   A    
C16   O9    S    
C24   H9    S    
C6    C30   S    
C23   H6    S    
C26   H18   S    
C15   O7    A    
C30   H33   S    
Cu2   O2    S    
C29   H30   S    
O15   H27   S    
C31   H36   S    
C2    C20   S    
O12   H12   S    
C19   C22   S    
C4    C6    A    
C3    C8    A    
O10   H4    S    
C5    C7    A    
C25   H17   S    
C24   H10   S    
C27   H22   S    
C24   H8    S    
C17   C21   S    
C12   H2    S    
Cu1   O3    S    
C28   H26   S    
O16   H28   S    
Cu2   O4    S    
O9    H3    S    
C11   N1    A    
C27   H23   S    
C1    O1    A    
C13   C21   S    
C32   H40   S    
C27   H21   S    
Cu1   O7    S    
C23   H7    S    
C5    C29   S    
C15   O8    A    
C30   H34   S    
C29   H31   S    
C19   O14   S    
C18   C22   S    
C13   O3    A    
Cu2   N2    S    
C3    C5    A    
C14   O6    A    
C11   C12   A    
O13   H13   S    
C6    C7    A    
C32   H38   S    
C25   H15   S    
C1    O2    A    
C17   C19   S    
C28   H24   S    
C3    O15   S    
Cu2   O6    S    
C25   H16   S    
C19   O12   S    
C20   C21   S    
C18   O11   S    
C16   C18   S    
O11   H11   S    
C20   C25   S    
C16   C23   S    
C9    N2    A    
