data_mof_unit_55333.cif
_audit_creation_date              2012-10-26T20:30:31-0400
_audit_creation_method            fapswitch 2.2
_symmetry_space_group_name_H-M    P1
_symmetry_Int_Tables_number       1
_space_group_crystal_system       triclinic
_cell_length_a                    19.573919
_cell_length_b                    18.086262
_cell_length_c                    10.819325
_cell_angle_alpha                 90.074924
_cell_angle_beta                  90.42628
_cell_angle_gamma                 90.321635
_cell_volume                      3830.07706961

loop_
_atom_site_label
_atom_site_type_symbol
_atom_type_description
_atom_site_fract_x
_atom_site_fract_y
_atom_site_fract_z
_atom_type_partial_charge
C1    C     C_R   0.367669 0.499780 0.498830 0.519070
C2    C     C_R   0.965875 0.517538 0.597917 -0.051626
C3    C     C_R   0.037989 0.497086 0.378472 -0.101002
C4    C     C_R   0.036910 0.517703 0.600246 -0.099823
C5    C     C_R   0.073603 0.507227 0.490586 0.025844
C6    C     C_R   0.930726 0.505856 0.486373 0.085193
C7    C     C_R   0.183266 0.451515 0.425353 -0.103612
C8    C     C_R   0.185694 0.554380 0.567901 -0.104169
C9    C     C_R   0.499607 0.500027 0.259910 0.540073
C10   C     C_R   0.254824 0.447862 0.426142 -0.020712
C11   C     C_R   0.257122 0.551162 0.576287 -0.024446
C12   C     C_3   0.558058 0.452661 0.931931 -0.229891
C13   C     C_R   0.292222 0.499366 0.500662 0.007343
C14   C     C_R   0.148860 0.504868 0.493804 -0.001384
C15   C     C_R   0.452035 0.720938 0.433132 0.033818
C16   C     C_R   0.463804 0.279024 0.411424 0.040212
C17   C     C_R   0.452648 0.798552 0.428891 -0.139218
C18   C     C_R   0.463293 0.201466 0.408603 -0.118107
C19   C     C_R   0.503189 0.838711 0.493699 0.037129
C20   C     C_R   0.501076 0.161744 0.496718 0.052358
C21   C     C_R   0.551440 0.798721 0.562991 -0.130245
C22   C     C_R   0.536938 0.201396 0.588271 -0.124194
C23   C     C_R   0.749247 0.439533 0.540334 -0.044848
C24   C     C_R   0.549510 0.721289 0.563235 0.017054
C25   C     C_R   0.535181 0.278897 0.588776 0.028590
C26   C     C_R   0.566309 0.962190 0.466957 0.057591
C27   C     C_R   0.566017 0.041139 0.469285 0.052721
C28   C     C_R   0.504116 0.079236 0.491677 -0.011300
C29   C     C_R   0.505134 0.921796 0.489909 -0.009503
C30   C     C_R   0.633273 0.500308 0.499233 0.541797
C31   C     C_R   0.444072 0.038407 0.510767 -0.148339
C32   C     C_R   0.444630 0.961141 0.510658 -0.142186
C33   C     C_R   0.499463 0.500169 0.740942 0.538462
C34   C     C_R   0.746429 0.564225 0.444781 -0.045767
C35   C     C_3   0.504974 0.580318 0.074931 -0.220961
C36   C     C_3   0.431255 0.466235 0.074584 -0.226504
C37   C     C_3   0.503757 0.582492 0.933004 -0.096161
C38   C     C_3   0.429189 0.466675 0.930418 -0.112963
C39   C     C_3   0.559506 0.454840 0.073990 -0.231601
C40   C     C_3   0.498746 0.500292 0.123103 0.024125
C41   C     C_3   0.498625 0.500527 0.879552 0.066164
C42   C     C_3   0.291822 0.389654 0.349224 -0.247334
C43   C     C_3   0.247488 0.343415 0.259809 -0.318065
C44   C     C_3   0.291043 0.289388 0.186460 -0.456652
C45   C     C_R   0.821646 0.443076 0.539928 0.049949
C46   C     C_3   0.296097 0.601911 0.665896 -0.242254
C47   C     C_3   0.253789 0.634036 0.772418 -0.318442
C48   C     C_3   0.299493 0.671268 0.869360 -0.453282
C49   C     C_2   0.628345 0.921936 0.428306 0.579132
C50   C     C_2   0.628758 0.084326 0.440338 0.582312
C51   C     C_3   0.558647 0.638845 0.885919 -0.247424
C52   C     C_3   0.632373 0.610949 0.878276 -0.299133
C53   C     C_3   0.682854 0.674452 0.858535 -0.441285
C54   C     C_3   0.407697 0.388732 0.878838 -0.254365
C55   C     C_3   0.346880 0.393682 0.789064 -0.288282
C56   C     C_R   0.818553 0.562198 0.434517 0.048149
C57   C     C_3   0.333867 0.320618 0.722010 -0.429369
C58   C     C_3   0.716063 0.370177 0.595358 -0.213439
C59   C     C_3   0.690602 0.384845 0.727015 -0.294992
C60   C     C_3   0.690086 0.314644 0.805513 -0.435989
C61   C     C_3   0.710878 0.636206 0.407649 -0.211511
C62   C     C_3   0.676735 0.631099 0.279780 -0.288624
C63   C     C_3   0.645217 0.705150 0.243668 -0.411345
C64   C     C_2   0.863793 0.383881 0.597621 0.554579
C65   C     C_2   0.857000 0.622897 0.372532 0.551404
C66   C     C_R   0.855401 0.503262 0.485471 -0.046955
C67   C     C_R   0.710332 0.501323 0.494816 -0.021768
C68   C     C_R   0.966884 0.495919 0.376566 -0.049425
Cu1   Cu    Cu3+1 0.500000 0.573360 0.499960 0.893884
Cu2   Cu    Cu3+1 0.500000 0.426640 0.499960 0.899765
H1    H     H_    0.553155 0.604443 0.111815 0.132664
H2    H     H_    0.434823 0.172736 0.336831 0.097495
H3    H     H_    0.590523 0.827057 0.616513 0.128086
H4    H     H_    0.565967 0.172574 0.658674 0.107211
H5    H     H_    0.588189 0.691199 0.613110 0.109371
H6    H     H_    0.561753 0.309222 0.660278 0.116043
H7    H     H_    0.396443 0.066714 0.528021 0.116015
H8    H     H_    0.397361 0.931760 0.528525 0.116990
H9    H     H_    0.462443 0.614768 0.110872 0.114173
H10   H     H_    0.387148 0.498105 0.110737 0.093528
H11   H     H_    0.454737 0.609516 0.906977 0.107409
H12   H     H_    0.426562 0.409582 0.113304 0.116730
H13   H     H_    0.387960 0.505992 0.904328 0.107415
H14   H     H_    0.608592 0.479559 0.106867 0.103664
H15   H     H_    0.557255 0.397261 0.110047 0.140003
H16   H     H_    0.608145 0.470242 0.896691 0.096111
H17   H     H_    0.552525 0.394320 0.901579 0.111697
H18   H     H_    0.939947 0.487116 0.289923 0.126851
H19   H     H_    0.938126 0.525368 0.683166 0.125424
H20   H     H_    0.330034 0.319781 0.132555 0.138540
H21   H     H_    0.317004 0.250048 0.249799 0.142914
H22   H     H_    0.258051 0.257523 0.121392 0.152798
H23   H     H_    0.065138 0.490014 0.292452 0.101632
H24   H     H_    0.209422 0.310576 0.312525 0.164443
H25   H     H_    0.220494 0.380501 0.193957 0.162706
H26   H     H_    0.331604 0.418087 0.293583 0.149525
H27   H     H_    0.317124 0.350543 0.413801 0.163881
H28   H     H_    0.332290 0.629666 0.915678 0.133859
H29   H     H_    0.332216 0.714204 0.825893 0.156677
H30   H     H_    0.267303 0.697965 0.940534 0.149498
H31   H     H_    0.217924 0.676253 0.735869 0.161178
H32   H     H_    0.224145 0.589206 0.817947 0.162189
H33   H     H_    0.338328 0.569913 0.708856 0.148801
H34   H     H_    0.063088 0.524529 0.688082 0.101152
H35   H     H_    0.318891 0.648366 0.612848 0.167360
H36   H     H_    0.724865 0.891406 0.468449 0.341811
H37   H     H_    0.671375 0.167372 0.342654 0.341111
H38   H     H_    0.670452 0.705002 0.772481 0.144864
H39   H     H_    0.681790 0.713345 0.937989 0.166168
H40   H     H_    0.735326 0.652003 0.850589 0.162534
H41   H     H_    0.646859 0.582605 0.965475 0.160892
H42   H     H_    0.636921 0.572489 0.798680 0.166351
H43   H     H_    0.542943 0.661899 0.795997 0.168677
H44   H     H_    0.557839 0.687995 0.947912 0.130993
H45   H     H_    0.153058 0.412490 0.372449 0.111848
H46   H     H_    0.379055 0.305175 0.666321 0.174220
H47   H     H_    0.322850 0.276034 0.789613 0.142673
H48   H     H_    0.289247 0.326464 0.658853 0.146272
H49   H     H_    0.300262 0.409329 0.840824 0.148123
H50   H     H_    0.356854 0.437206 0.720200 0.184946
H51   H     H_    0.450658 0.359993 0.834138 0.173005
H52   H     H_    0.391631 0.350639 0.953444 0.126310
H53   H     H_    0.666289 0.326284 0.896240 0.137092
H54   H     H_    0.660962 0.269719 0.758791 0.144182
H55   H     H_    0.743198 0.295574 0.822106 0.207172
H56   H     H_    0.157781 0.595727 0.618562 0.111773
H57   H     H_    0.723782 0.426398 0.774360 0.183941
H58   H     H_    0.638326 0.407573 0.721688 0.164990
H59   H     H_    0.675627 0.346740 0.535021 0.168637
H60   H     H_    0.752022 0.323095 0.597149 0.176603
H61   H     H_    0.602321 0.718658 0.306145 0.193347
H62   H     H_    0.684196 0.749938 0.248603 0.200223
H63   H     H_    0.625614 0.702648 0.147459 0.127833
H64   H     H_    0.715310 0.615892 0.209542 0.193939
H65   H     H_    0.636612 0.587644 0.278737 0.177946
H66   H     H_    0.675645 0.655253 0.479843 0.156865
H67   H     H_    0.413542 0.690526 0.381580 0.121436
H68   H     H_    0.747192 0.683441 0.406266 0.163290
H69   H     H_    0.936545 0.306583 0.575509 0.343813
H70   H     H_    0.929434 0.702295 0.386200 0.343568
H71   H     H_    0.435450 0.309376 0.342178 0.112604
H72   H     H_    0.414508 0.826930 0.373969 0.097142
N1    N     N_R   0.500020 0.683620 0.499990 -0.224520
N2    N     N_R   0.500020 0.316380 0.499990 -0.222145
O1    O     O_R   0.400180 0.561980 0.499950 -0.511601
O2    O     O_R   0.686417 0.921868 0.504197 -0.656318
O3    O     O_2   0.682437 0.071324 0.494226 -0.465151
O4    O     O_R   0.625850 0.141187 0.353030 -0.695291
O5    O     O_2   0.858576 0.370751 0.708010 -0.536956
O6    O     O_R   0.910300 0.344610 0.525746 -0.693754
O7    O     O_2   0.845501 0.637215 0.263975 -0.536942
O8    O     O_R   0.906523 0.662987 0.438470 -0.698533
O9    O     O_R   0.400180 0.438020 0.499950 -0.517138
O10   O     O_R   0.499990 0.561950 0.317660 -0.511861
O11   O     O_R   0.499990 0.438050 0.317660 -0.507337
O12   O     O_R   0.599810 0.561930 0.499990 -0.512139
O13   O     O_R   0.599810 0.438070 0.499990 -0.501214
O14   O     O_R   0.500010 0.561950 0.682280 -0.511349
O15   O     O_R   0.500010 0.438050 0.682280 -0.521882
O16   O     O_2   0.627704 0.887012 0.331486 -0.535316

loop_
_geom_bond_atom_site_label_1
_geom_bond_atom_site_label_2
_ccdc_geom_bond_type
C50   O3    D    
C53   H40   S    
C23   C58   S    
C34   C56   A    
C23   C45   A    
C38   H13   S    
C10   C42   S    
Cu2   O9    S    
Cu1   O1    S    
C1    O1    A    
C3    C68   A    
C55   H49   S    
C52   C53   S    
C26   C27   A    
C62   C63   S    
C47   H31   S    
C63   H63   S    
C60   H55   S    
C16   N2    A    
C39   H14   S    
C29   C32   A    
Cu1   Cu2   S    
C37   C51   S    
C61   H68   S    
C52   H42   S    
C58   H59   S    
C53   H39   S    
C56   C65   S    
C46   H35   S    
C21   H3    S    
C43   H24   S    
Cu2   O15   S    
C7    C10   A    
C23   C67   A    
C60   H54   S    
C65   O8    S    
C2    H19   S    
C46   C47   S    
C7    C14   A    
C47   C48   S    
C36   H12   S    
C22   C25   A    
C43   H25   S    
C49   O16   D    
C63   H61   S    
H70   O8    S    
C30   C67   S    
C44   H22   S    
C27   C50   S    
C6    C68   A    
C54   H52   S    
C35   H1    S    
C59   C60   S    
C47   H32   S    
C37   H11   S    
C2    C6    A    
C31   H7    S    
C57   H46   S    
C55   H50   S    
C18   H2    S    
C48   H30   S    
C51   H44   S    
C51   C52   S    
Cu1   O12   S    
C36   C40   S    
C38   C41   S    
C36   H10   S    
C26   C49   S    
C39   C40   S    
C20   C28   S    
C52   H41   S    
C59   H58   S    
C34   C61   S    
Cu2   O11   S    
C64   O6    S    
C17   H72   S    
C62   H65   S    
C65   O7    D    
C60   H53   S    
C2    C4    A    
C43   C44   S    
C12   C41   S    
C31   C32   A    
C38   C54   S    
Cu1   O14   S    
C3    H23   S    
C51   H43   S    
C63   H62   S    
C1    O9    A    
C5    C14   S    
C44   H21   S    
C15   N1    A    
C8    H56   S    
C54   H51   S    
C20   C22   A    
C9    O10   A    
C55   C57   S    
C68   H18   S    
C42   H26   S    
C42   H27   S    
C25   N2    A    
C1    C13   S    
C42   C43   S    
C22   H4    S    
C19   C29   S    
C45   C66   A    
C44   H20   S    
C33   O14   A    
C35   C37   S    
C57   H47   S    
C50   O4    S    
C15   C17   A    
C48   H29   S    
C54   C55   S    
C8    C14   A    
H69   O6    S    
C12   H17   S    
C19   C21   A    
C7    H45   S    
C28   C31   A    
C4    C5    A    
C3    C5    A    
C10   C13   A    
C34   C67   A    
C24   H5    S    
Cu1   N1    S    
C48   H28   S    
C46   H33   S    
C45   C64   S    
Cu2   N2    S    
Cu1   O10   S    
H36   O2    S    
C12   H16   S    
C64   O5    D    
Cu2   O13   S    
C33   C41   S    
C25   H6    S    
C12   C39   S    
C36   C38   S    
C35   C40   S    
C58   C59   S    
C30   O13   A    
H37   O4    S    
C11   C13   A    
C53   H38   S    
C62   H64   S    
C58   H60   S    
C8    C11   A    
C56   C66   A    
C4    H34   S    
C30   O12   A    
C17   C19   A    
C49   O2    S    
C16   H71   S    
C18   C20   A    
C9    C40   S    
C37   C41   S    
C61   C62   S    
C32   H8    S    
C6    C66   S    
C9    O11   A    
C26   C29   A    
C16   C18   A    
C21   C24   A    
C27   C28   A    
C39   H15   S    
C11   C46   S    
C35   H9    S    
C24   N1    A    
C59   H57   S    
C33   O15   A    
C61   H66   S    
C57   H48   S    
C15   H67   S    
