data_mof_unit_26827.cif
_audit_creation_date              2012-10-26T20:19:13-0400
_audit_creation_method            fapswitch 2.2
_symmetry_space_group_name_H-M    P1
_symmetry_Int_Tables_number       1
_space_group_crystal_system       triclinic
_cell_length_a                    15.074397
_cell_length_b                    12.964191
_cell_length_c                    11.803136
_cell_angle_alpha                 98.752715
_cell_angle_beta                  92.8536
_cell_angle_gamma                 93.298916
_cell_volume                      2272.00605729

loop_
_atom_site_label
_atom_site_type_symbol
_atom_type_description
_atom_site_fract_x
_atom_site_fract_y
_atom_site_fract_z
_atom_type_partial_charge
C1    C     C_R   0.496410 0.300214 0.479668 0.544785
C2    C     C_R   0.596522 0.863997 0.566164 -0.033187
C3    C     C_R   0.557830 0.133183 0.509841 -0.020914
C4    C     C_R   0.442169 0.866817 0.490159 -0.020915
C5    C     C_R   0.542348 0.026048 0.517897 0.032852
C6    C     C_R   0.457651 0.973952 0.482104 0.032852
C7    C     C_R   0.412833 0.401825 0.029075 -0.177667
C8    C     C_R   0.587166 0.598175 0.970925 -0.177667
C9    C     C_R   0.421636 0.411378 0.148598 0.034149
C10   C     C_R   0.578364 0.588621 0.851402 0.034149
C11   C     C_R   0.538751 0.543810 0.153772 0.156731
C12   C     C_R   0.503590 0.699786 0.520332 0.544785
C13   C     C_R   0.461249 0.456190 0.846228 0.156731
C14   C     C_R   0.531895 0.535943 0.031592 0.015444
C15   C     C_R   0.468105 0.464057 0.968408 0.015444
C16   C     C_R   0.328883 0.499836 0.500780 0.529268
C17   C     C_R   0.671117 0.500164 0.499220 0.529269
C18   C     C_R   0.818173 0.498664 0.601051 -0.143945
C19   C     C_R   0.181827 0.501337 0.398950 -0.143946
C20   C     C_R   0.767973 0.499939 0.498361 -0.022576
C21   C     C_R   0.232027 0.500063 0.501640 -0.022577
C22   C     C_R   0.810342 0.501160 0.395709 -0.142360
C23   C     C_R   0.040316 0.502984 0.294606 -0.114571
C24   C     C_R   0.189659 0.498846 0.604291 -0.142359
C25   C     C_R   0.903301 0.501405 0.394291 0.028862
C26   C     C_R   0.096699 0.498603 0.605710 0.028865
C27   C     C_R   0.953442 0.499993 0.499037 0.040459
C28   C     C_R   0.046558 0.500013 0.500964 0.040460
C29   C     C_R   0.910398 0.498569 0.602137 -0.005144
C30   C     C_R   0.089602 0.501436 0.397864 -0.005146
C31   C     C_R   0.947441 0.503062 0.291312 0.003513
C32   C     C_R   0.052560 0.496951 0.708687 0.003510
C33   C     C_3   0.897517 0.505050 0.177614 -0.412374
C34   C     C_R   0.959684 0.497025 0.705394 -0.114571
C35   C     C_3   0.102486 0.494973 0.822384 -0.412381
C36   C     C_3   0.350447 0.811509 0.458283 -0.391912
C37   C     C_3   0.649553 0.188491 0.541713 -0.391911
C38   C     C_3   0.673246 0.805945 0.606550 -0.389628
C39   C     C_3   0.326754 0.194055 0.393446 -0.389628
C40   C     C_3   0.391811 0.376150 0.782449 -0.334055
C41   C     C_3   0.608188 0.623851 0.217551 -0.334055
C42   C     C_R   0.512999 0.812471 0.529390 0.044645
C43   C     C_R   0.487000 0.187529 0.470610 0.044645
C44   C     C_R   0.390108 0.029872 0.438472 -0.116469
C45   C     C_R   0.609891 0.970128 0.561528 -0.116468
C46   C     C_R   0.403477 0.136002 0.433835 -0.033188
Cu1   Cu    Cu3+1 0.506660 0.507730 0.615930 0.912592
Cu2   Cu    Cu3+1 0.493340 0.492270 0.384070 0.912591
H1    H     H_    0.074586 0.504168 0.216105 0.102738
H2    H     H_    0.637895 0.654917 0.013967 0.092586
H3    H     H_    0.770249 0.502148 0.317390 0.131180
H4    H     H_    0.229751 0.497858 0.682611 0.131180
H5    H     H_    0.859308 0.576169 0.182709 0.123722
H6    H     H_    0.943135 0.506287 0.106669 0.120239
H7    H     H_    0.851218 0.434245 0.155555 0.132878
H8    H     H_    0.140693 0.423856 0.817298 0.123721
H9    H     H_    0.148785 0.565776 0.844431 0.132880
H10   H     H_    0.056868 0.493745 0.893327 0.120244
H11   H     H_    0.344424 0.730342 0.476998 0.152794
H12   H     H_    0.925414 0.495843 0.783896 0.102737
H13   H     H_    0.299875 0.854005 0.508731 0.119170
H14   H     H_    0.333762 0.808606 0.365114 0.130652
H15   H     H_    0.655577 0.269655 0.522993 0.152792
H16   H     H_    0.666238 0.191398 0.634883 0.130653
H17   H     H_    0.700124 0.145991 0.491267 0.119168
H18   H     H_    0.734896 0.857791 0.628469 0.116340
H19   H     H_    0.656038 0.772819 0.684520 0.142603
H20   H     H_    0.688029 0.741716 0.537911 0.127765
H21   H     H_    0.265104 0.142209 0.371527 0.116340
H22   H     H_    0.311970 0.258285 0.462084 0.127766
H23   H     H_    0.325521 0.992128 0.408952 0.113915
H24   H     H_    0.343964 0.227179 0.315477 0.142603
H25   H     H_    0.386682 0.368748 0.689705 0.196837
H26   H     H_    0.406109 0.297123 0.801068 0.099129
H27   H     H_    0.324784 0.395451 0.810866 0.077546
H28   H     H_    0.613318 0.631252 0.310295 0.196837
H29   H     H_    0.675215 0.604549 0.189134 0.077546
H30   H     H_    0.593891 0.702877 0.198932 0.099129
H31   H     H_    0.674478 0.007872 0.591047 0.113915
H32   H     H_    0.621423 0.636795 0.807257 0.117606
H33   H     H_    0.378576 0.363205 0.192743 0.117606
H34   H     H_    0.785524 0.497453 0.680713 0.127965
H35   H     H_    0.214476 0.502547 0.319288 0.127966
H36   H     H_    0.362105 0.345083 0.986034 0.092586
N1    N     N_R   0.516670 0.519360 0.790130 -0.218669
N2    N     N_R   0.483330 0.480640 0.209870 -0.218669
O1    O     O_R   0.504720 0.354460 0.582000 -0.515512
O2    O     O_R   0.495280 0.645540 0.418000 -0.515513
O3    O     O_R   0.493480 0.341410 0.386200 -0.498822
O4    O     O_R   0.506520 0.658590 0.613800 -0.498822
O5    O     O_R   0.375880 0.506510 0.597910 -0.519803
O6    O     O_R   0.624120 0.493490 0.402090 -0.519802
O7    O     O_R   0.364640 0.493450 0.402110 -0.511357
O8    O     O_R   0.635360 0.506550 0.597890 -0.511355

loop_
_geom_bond_atom_site_label_1
_geom_bond_atom_site_label_2
_ccdc_geom_bond_type
C24   H4    S    
C4    C36   S    
C10   N1    A    
C26   C32   A    
C16   C21   S    
C27   C29   A    
C36   H11   S    
C3    C43   A    
C16   O7    A    
C35   H10   S    
Cu1   N1    S    
C12   O4    A    
C19   C21   A    
C24   C26   A    
C41   H29   S    
C5    C6    A    
C11   C14   A    
C19   H35   S    
C23   H1    S    
C11   N2    A    
C17   C20   S    
C40   H25   S    
C44   H23   S    
C1    O1    A    
C13   C40   S    
C12   C42   S    
C9    H33   S    
C1    C43   S    
C38   H18   S    
C22   C25   A    
C37   H17   S    
C8    C14   A    
C39   H24   S    
C31   C33   S    
C7    C15   A    
C7    H36   S    
C6    C44   A    
C34   H12   S    
C17   O6    A    
C36   H14   S    
C37   H15   S    
C44   C46   A    
C2    C45   A    
C33   H5    S    
Cu2   O7    S    
C12   O2    A    
C23   C30   A    
C4    C6    A    
C41   H30   S    
C10   H32   S    
C32   C34   A    
C5    C45   A    
C29   C34   A    
C23   C31   A    
C32   C35   S    
C9    N2    A    
C2    C38   S    
Cu1   Cu2   S    
Cu2   O2    S    
C39   H21   S    
C33   H7    S    
C45   H31   S    
C18   C29   A    
C39   C46   S    
C20   C22   A    
Cu2   O3    S    
C13   C15   A    
Cu1   O4    S    
Cu2   N2    S    
C36   H13   S    
C8    H2    S    
C37   H16   S    
C33   H6    S    
C7    C9    A    
C1    O3    A    
C35   H8    S    
Cu1   O5    S    
C25   C31   A    
C38   H20   S    
C3    C5    A    
C25   C27   A    
C26   C28   A    
C40   H27   S    
C35   H9    S    
C28   C30   A    
C41   H28   S    
C4    C42   A    
C2    C42   A    
C18   H34   S    
C39   H22   S    
C40   H26   S    
C11   C41   S    
C18   C20   A    
C43   C46   A    
C38   H19   S    
C3    C37   S    
C16   O5    A    
C8    C10   A    
Cu2   O6    S    
C21   C24   A    
C13   N1    A    
C27   C28   A    
C14   C15   A    
C17   O8    A    
C19   C30   A    
Cu1   O8    S    
Cu1   O1    S    
C22   H3    S    
