data_mof_unit_10950.cif
_audit_creation_date              2012-12-10T17:58:28-0500
_audit_creation_method            fapswitch 2.2
_symmetry_space_group_name_H-M    P1
_symmetry_Int_Tables_number       1
_space_group_crystal_system       triclinic
_cell_length_a                    18.326099
_cell_length_b                    25.975967
_cell_length_c                    18.334836
_cell_angle_alpha                 89.935115
_cell_angle_beta                  90.112968
_cell_angle_gamma                 89.946776
_cell_volume                      8728.05493348

loop_
_atom_site_label
_atom_site_type_symbol
_atom_type_description
_atom_site_fract_x
_atom_site_fract_y
_atom_site_fract_z
_atom_type_partial_charge
C1    C     C_R   0.640238 0.749848 0.360346 0.518030
C2    C     C_R   0.859549 0.750282 0.139454 0.520307
C3    C     C_R   0.675510 0.753200 0.230600 -0.029788
C4    C     C_R   0.764184 0.726929 0.680253 0.032820
C5    C     C_R   0.233876 0.265715 0.321280 0.042003
C6    C     C_R   0.318029 0.771164 0.236344 -0.029099
C7    C     C_R   0.675285 0.244748 0.768415 0.055613
C8    C     C_R   0.232163 0.795673 0.787722 0.052937
C9    C     C_R   0.770706 0.203455 0.215728 -0.019681
C10   C     C_R   0.824091 0.745946 0.269018 -0.016823
C11   C     C_R   0.231482 0.204107 0.786706 -0.009806
C12   C     C_R   0.266991 0.233442 0.177313 0.036086
C13   C     C_R   0.860640 0.250697 0.140657 0.501281
C14   C     C_R   0.736131 0.772161 0.818740 0.044535
C15   C     C_R   0.823764 0.256238 0.731189 -0.015171
C16   C     C_R   0.180486 0.725505 0.264897 0.038274
C17   C     C_3   0.721908 0.556697 0.658406 -0.269313
C18   C     C_3   0.795549 0.560122 0.619798 -0.410395
C19   C     C_3   0.273065 0.440258 0.351767 -0.281547
C20   C     C_3   0.208650 0.441154 0.404421 -0.402839
C21   C     C_3   0.299235 0.553039 0.314091 -0.281269
C22   C     C_3   0.328974 0.543184 0.237564 -0.418239
C23   C     C_3   0.725833 0.438642 0.649329 -0.284911
C24   C     C_R   0.139305 0.749181 0.859395 0.528079
C25   C     C_3   0.776115 0.412456 0.594233 -0.434407
C26   C     C_3   0.238424 0.058546 0.129982 -0.266927
C27   C     C_3   0.303766 0.067946 0.080172 -0.396529
C28   C     C_3   0.764602 0.943650 0.862407 -0.279046
C29   C     C_3   0.698038 0.938233 0.912016 -0.410768
C30   C     C_3   0.763333 0.061145 0.868752 -0.290107
C31   C     C_3   0.791040 0.095162 0.806579 -0.428120
C32   C     C_3   0.248859 0.941646 0.108525 -0.288489
C33   C     C_3   0.291403 0.924362 0.041278 -0.434784
C34   C     C_3   0.332284 0.845651 0.722173 -0.259931
C35   C     C_R   0.139543 0.749314 0.140287 0.549760
C36   C     C_3   0.406390 0.841932 0.759924 -0.440870
C37   C     C_3   0.668669 0.153931 0.279622 -0.258419
C38   C     C_3   0.593272 0.158204 0.244449 -0.449145
C39   C     C_3   0.794803 0.741514 0.404091 -0.235043
C40   C     C_3   0.816395 0.793913 0.435303 -0.381028
C41   C     C_3   0.331643 0.154296 0.720793 -0.278673
C42   C     C_3   0.407248 0.157977 0.755460 -0.412404
C43   C     C_3   0.398658 0.213248 0.213059 -0.247211
C44   C     C_3   0.450020 0.255791 0.186504 -0.378300
C45   C     C_3   0.613612 0.807334 0.772692 -0.267951
C46   C     C_R   0.859044 0.249466 0.860907 0.504795
C47   C     C_3   0.623122 0.860012 0.736802 -0.456710
C48   C     C_3   0.793023 0.267498 0.596780 -0.257081
C49   C     C_3   0.818455 0.218345 0.558779 -0.373910
C50   C     C_3   0.212492 0.715058 0.400477 -0.255701
C51   C     C_3   0.216636 0.657143 0.413815 -0.413447
C52   C     C_3   0.826579 0.347231 0.216753 -0.256847
C53   C     C_3   0.902482 0.346919 0.251135 -0.436039
C54   C     C_3   0.170511 0.653240 0.780899 -0.260118
C55   C     C_3   0.094593 0.655226 0.746684 -0.445971
C56   C     C_3   0.172002 0.347249 0.783445 -0.284285
C57   C     C_R   0.860763 0.749409 0.859357 0.547509
C58   C     C_3   0.093788 0.346553 0.754449 -0.378286
C59   C     C_3   0.704509 0.754351 0.095551 -0.234308
C60   C     C_3   0.685381 0.700404 0.068121 -0.376926
C61   C     C_3   0.894628 0.704161 0.718809 -0.246711
C62   C     C_3   0.946740 0.743431 0.684781 -0.380790
C63   C     C_3   0.106760 0.295114 0.281714 -0.267575
C64   C     C_3   0.107083 0.349639 0.250260 -0.455394
C65   C     C_3   0.279168 0.795630 0.107132 -0.259136
C66   C     C_3   0.310297 0.757625 0.051555 -0.370710
C67   C     C_3   0.702356 0.243599 0.903628 -0.258833
C68   C     C_R   0.139374 0.250542 0.140427 0.541706
C69   C     C_3   0.706919 0.188709 0.931978 -0.437059
C70   C     C_2   0.714063 0.342751 0.330181 0.575907
C71   C     C_2   0.286362 0.657047 0.669909 0.601065
C72   C     C_2   0.284754 0.343761 0.670775 0.581599
C73   C     C_2   0.597579 0.760629 0.211345 0.618681
C74   C     C_2   0.775458 0.701483 0.607729 0.546372
C75   C     C_2   0.218095 0.281213 0.397686 0.572636
C76   C     C_2   0.389944 0.796274 0.223357 0.615841
C77   C     C_2   0.598152 0.232658 0.785904 0.566914
C78   C     C_2   0.214273 0.842577 0.830345 0.576194
C79   C     C_R   0.695716 0.249225 0.303507 0.011626
C80   C     C_2   0.795154 0.154768 0.180273 0.602987
C81   C     C_2   0.901222 0.734463 0.287153 0.605787
C82   C     C_2   0.212341 0.156527 0.827827 0.589545
C83   C     C_2   0.281819 0.214849 0.101667 0.563885
C84   C     C_2   0.722433 0.793523 0.892971 0.551739
C85   C     C_2   0.901512 0.266107 0.712908 0.587742
C86   C     C_2   0.113758 0.692820 0.273490 0.601523
C87   C     C_R   0.304231 0.750723 0.696692 -0.007781
C88   C     C_R   0.304276 0.249692 0.696761 0.012057
C89   C     C_R   0.360212 0.249780 0.640170 0.511754
C90   C     C_R   0.696733 0.749778 0.304436 -0.002467
C91   C     C_R   0.696132 0.750061 0.696079 0.010368
C92   C     C_R   0.304984 0.249597 0.302567 0.001896
C93   C     C_R   0.301967 0.750421 0.305632 -0.015156
C94   C     C_R   0.696670 0.250582 0.695174 0.003396
C95   C     C_R   0.195817 0.749050 0.803430 0.010948
C96   C     C_R   0.804401 0.250650 0.197028 -0.010254
C97   C     C_R   0.802924 0.750115 0.195306 0.002369
C98   C     C_R   0.195495 0.250750 0.803240 0.007997
C99   C     C_R   0.196061 0.250221 0.196178 0.008351
C100  C     C_R   0.360636 0.750715 0.640576 0.506552
C101  C     C_R   0.804634 0.749844 0.802863 0.003711
C102  C     C_R   0.802459 0.250479 0.804806 -0.011446
C103  C     C_R   0.196010 0.748105 0.196306 0.011937
C104  C     C_R   0.433758 0.973344 0.501285 -0.133592
C105  C     C_R   0.566257 0.026654 0.499408 -0.133428
C106  C     C_R   0.566233 0.973249 0.499481 -0.132003
C107  C     C_R   0.433782 0.026749 0.501252 -0.134763
C108  C     C_R   0.933774 0.473338 0.001217 -0.136156
C109  C     C_R   0.066263 0.526650 0.998711 -0.131067
C110  C     C_R   0.066239 0.473243 0.998749 -0.136707
C111  C     C_R   0.639420 0.249363 0.359567 0.526439
C112  C     C_R   0.933798 0.526742 0.001160 -0.133295
C113  C     C_R   0.500030 0.053697 0.500229 0.038625
C114  C     C_R   0.499981 0.946301 0.500312 0.040824
C115  C     C_R   0.000040 0.553693 0.999931 0.042268
C116  C     C_R   0.999991 0.446296 0.000006 0.038029
C117  C     C_R   0.499980 0.890194 0.500114 0.514040
C118  C     C_R   0.500022 0.109805 0.500047 0.501484
C119  C     C_R   0.999983 0.390192 0.000021 0.499011
C120  C     C_R   0.000025 0.609804 0.999959 0.517902
C121  C     C_R   0.499724 0.609999 0.499809 0.494110
C122  C     C_R   0.640364 0.250374 0.639322 0.512320
C123  C     C_R   0.500013 0.389767 0.500033 0.492531
C124  C     C_R   0.000220 0.110171 0.000123 0.501554
C125  C     C_R   0.999772 0.889912 0.999785 0.484583
C126  C     C_R   0.394977 0.551850 0.412604 -0.087874
C127  C     C_R   0.613982 0.445892 0.572113 -0.079201
C128  C     C_R   0.612215 0.552494 0.576345 -0.098233
C129  C     C_R   0.386305 0.445924 0.427843 -0.073964
C130  C     C_R   0.880779 0.054172 0.937623 -0.066664
C131  C     C_R   0.122985 0.946589 0.055669 -0.083969
C132  C     C_R   0.119284 0.053286 0.063498 -0.073883
C133  C     C_R   0.359258 0.749580 0.360872 0.515748
C134  C     C_R   0.881912 0.947450 0.933017 -0.097684
C135  C     C_R   0.343551 0.524481 0.371129 0.038311
C136  C     C_R   0.668523 0.471440 0.611390 0.049344
C137  C     C_R   0.666967 0.525774 0.614706 0.037908
C138  C     C_R   0.336140 0.471090 0.382554 0.042396
C139  C     C_R   0.823948 0.028649 0.901523 0.050038
C140  C     C_R   0.182593 0.972874 0.086248 0.045214
C141  C     C_R   0.179514 0.027054 0.092627 0.038945
C142  C     C_R   0.824442 0.974320 0.899218 0.039095
C143  C     C_R   0.444828 0.472442 0.461524 -0.001228
C144  C     C_R   0.361016 0.249212 0.359126 0.540370
C145  C     C_R   0.555727 0.526651 0.538141 -0.008143
C146  C     C_R   0.556199 0.472498 0.537193 -0.002872
C147  C     C_R   0.446981 0.526516 0.457626 0.002340
C148  C     C_R   0.941316 0.973282 0.966318 -0.008531
C149  C     C_R   0.059557 0.027049 0.031643 -0.002579
C150  C     C_R   0.060442 0.972878 0.029586 -0.003790
C151  C     C_R   0.941008 0.027453 0.967753 0.003652
C152  C     C_R   0.499976 0.445801 0.500181 0.021311
C153  C     C_R   0.500592 0.553652 0.498832 0.020288
C154  C     C_R   0.000341 0.946160 0.998848 0.017065
C155  C     C_R   0.639483 0.750449 0.640302 0.550521
C156  C     C_R   0.999950 0.054027 0.000483 0.027972
C157  C     C_R   0.287349 0.796792 0.734409 -0.027395
C158  C     C_R   0.713681 0.202834 0.267171 -0.036793
C159  C     C_R   0.771240 0.746227 0.324404 -0.052999
C160  C     C_R   0.287222 0.203361 0.733919 -0.028185
C161  C     C_R   0.322622 0.233883 0.230733 -0.047119
C162  C     C_R   0.682360 0.774504 0.763601 -0.035122
C163  C     C_R   0.770694 0.257259 0.675751 -0.061257
C164  C     C_R   0.232098 0.730200 0.322118 -0.039276
C165  C     C_R   0.785486 0.297219 0.232696 -0.028391
C166  C     C_R   0.139528 0.250499 0.859669 0.517008
C167  C     C_R   0.213237 0.702815 0.766290 -0.041203
C168  C     C_R   0.212645 0.297120 0.766332 -0.036343
C169  C     C_R   0.728372 0.752802 0.175319 -0.057195
C170  C     C_R   0.819959 0.728052 0.733741 -0.052017
C171  C     C_R   0.179448 0.268143 0.267031 -0.036470
C172  C     C_R   0.264582 0.770403 0.181049 -0.052651
C173  C     C_R   0.727617 0.246991 0.824310 -0.037325
C174  C     C_R   0.731505 0.295898 0.287204 0.051926
C175  C     C_R   0.268129 0.704046 0.712619 -0.018014
C176  C     C_R   0.267564 0.296212 0.712732 -0.009477
H1    H     H_    0.393955 0.593110 0.407380 0.141312
H2    H     H_    0.618066 0.046681 0.498637 0.140491
H3    H     H_    0.830572 0.354475 0.157402 0.177913
H4    H     H_    0.797603 0.381590 0.237526 0.181299
H5    H     H_    0.066149 0.618085 0.756074 0.139380
H6    H     H_    0.061403 0.686324 0.771355 0.145722
H7    H     H_    0.098987 0.661756 0.686971 0.162433
H8    H     H_    0.198160 0.618647 0.759193 0.186268
H9    H     H_    0.166261 0.645446 0.840117 0.175287
H10   H     H_    0.060516 0.317212 0.782999 0.195396
H11   H     H_    0.068078 0.384730 0.763559 0.146410
H12   H     H_    0.093301 0.338289 0.695075 0.190835
H13   H     H_    0.618036 0.953148 0.498784 0.140020
H14   H     H_    0.172007 0.354990 0.842827 0.177255
H15   H     H_    0.199327 0.381491 0.760011 0.179246
H16   H     H_    0.675716 0.701233 0.008430 0.195071
H17   H     H_    0.730381 0.672903 0.079461 0.173166
H18   H     H_    0.635144 0.686121 0.094831 0.155955
H19   H     H_    0.657004 0.780281 0.087550 0.193494
H20   H     H_    0.747221 0.771166 0.060407 0.172231
H21   H     H_    0.919832 0.765515 0.640408 0.196270
H22   H     H_    0.966294 0.771072 0.726454 0.178016
H23   H     H_    0.994745 0.723276 0.661579 0.135873
H24   H     H_    0.381980 0.046850 0.502012 0.144782
H25   H     H_    0.919754 0.688433 0.769262 0.114132
H26   H     H_    0.889753 0.670008 0.682965 0.169838
H27   H     H_    0.157437 0.370296 0.266911 0.159086
H28   H     H_    0.104051 0.348773 0.189856 0.164398
H29   H     H_    0.059355 0.371388 0.271021 0.134563
H30   H     H_    0.060536 0.272912 0.258601 0.161863
H31   H     H_    0.094275 0.298307 0.340490 0.190435
H32   H     H_    0.360309 0.738707 0.072605 0.200319
H33   H     H_    0.270263 0.727267 0.037835 0.185148
H34   H     H_    0.324209 0.778547 0.000595 0.162824
H35   H     H_    0.881970 0.453312 0.002251 0.139718
H36   H     H_    0.317586 0.828203 0.113126 0.161262
H37   H     H_    0.228862 0.813353 0.084426 0.135845
H38   H     H_    0.676768 0.162511 0.894887 0.184851
H39   H     H_    0.764784 0.176358 0.936315 0.149605
H40   H     H_    0.681005 0.186493 0.986501 0.138404
H41   H     H_    0.732277 0.269953 0.940153 0.183193
H42   H     H_    0.645178 0.256913 0.909627 0.175617
H43   H     H_    0.665216 0.412280 0.332937 0.339246
H44   H     H_    0.241623 0.685064 0.577618 0.280824
H45   H     H_    0.194527 0.338055 0.608395 0.299318
H46   H     H_    0.118067 0.546677 0.997690 0.141793
H47   H     H_    0.575725 0.684543 0.213202 0.293045
H48   H     H_    0.733353 0.657054 0.527622 0.313485
H49   H     H_    0.245248 0.325938 0.483112 0.354553
H50   H     H_    0.376067 0.849024 0.303067 0.294675
H51   H     H_    0.498852 0.259305 0.814319 0.334767
H52   H     H_    0.170294 0.913731 0.831095 0.346343
H53   H     H_    0.764423 0.177961 0.080234 0.278108
H54   H     H_    0.929709 0.809218 0.294036 0.297695
H55   H     H_    0.257913 0.182054 0.921003 0.303887
H56   H     H_    0.345656 0.217967 0.012207 0.329993
H57   H     H_    0.118034 0.453139 0.997748 0.140668
H58   H     H_    0.759578 0.836884 0.976505 0.312828
H59   H     H_    0.890445 0.342892 0.723939 0.285645
H60   H     H_    0.038271 0.663469 0.341560 0.371403
H61   H     H_    0.881998 0.546840 0.002141 0.139907
H62   H     H_    0.823161 0.522213 0.618415 0.146971
H63   H     H_    0.788350 0.574188 0.563044 0.174470
H64   H     H_    0.831416 0.587357 0.649575 0.144672
H65   H     H_    0.617929 0.404455 0.569442 0.134903
H66   H     H_    0.701518 0.596486 0.667187 0.186173
H67   H     H_    0.728528 0.540459 0.714026 0.134682
H68   H     H_    0.225182 0.425570 0.458433 0.205684
H69   H     H_    0.188399 0.481143 0.411517 0.152630
H70   H     H_    0.163555 0.417154 0.382660 0.149091
H71   H     H_    0.254931 0.454778 0.297923 0.138111
H72   H     H_    0.290093 0.399700 0.342628 0.182392
H73   H     H_    0.385586 0.558149 0.233291 0.169166
H74   H     H_    0.329413 0.501556 0.224267 0.151900
H75   H     H_    0.294419 0.563495 0.196852 0.155869
H76   H     H_    0.615364 0.593960 0.576233 0.163485
H77   H     H_    0.240659 0.542482 0.317361 0.150375
H78   H     H_    0.302413 0.595151 0.322853 0.141073
H79   H     H_    0.745381 0.384271 0.560686 0.166443
H80   H     H_    0.801430 0.441396 0.557592 0.170235
H81   H     H_    0.820112 0.391607 0.623665 0.140072
H82   H     H_    0.759970 0.460817 0.687857 0.145805
H83   H     H_    0.698187 0.408598 0.682502 0.155251
H84   H     H_    0.334244 0.031825 0.070201 0.142968
H85   H     H_    0.285492 0.084322 0.027194 0.218949
H86   H     H_    0.341534 0.095709 0.106534 0.145337
H87   H     H_    0.378431 0.405127 0.436690 0.159309
H88   H     H_    0.216226 0.096634 0.146419 0.178652
H89   H     H_    0.255947 0.040222 0.181821 0.133536
H90   H     H_    0.671518 0.975988 0.921594 0.146438
H91   H     H_    0.657565 0.912088 0.886431 0.156812
H92   H     H_    0.714313 0.921970 0.965625 0.172706
H93   H     H_    0.749052 0.961157 0.809366 0.132461
H94   H     H_    0.784757 0.904636 0.848243 0.187395
H95   H     H_    0.832247 0.123132 0.826488 0.172540
H96   H     H_    0.815624 0.070995 0.763131 0.170656
H97   H     H_    0.744790 0.117220 0.782798 0.160173
H98   H     H_    0.876810 0.095588 0.941933 0.130580
H99   H     H_    0.717419 0.038205 0.847197 0.151847
H100  H     H_    0.740097 0.085369 0.912603 0.147471
H101  H     H_    0.260400 0.894372 0.011566 0.197183
H102  H     H_    0.301327 0.957215 0.003814 0.171321
H103  H     H_    0.344982 0.908216 0.057989 0.153155
H104  H     H_    0.286371 0.963154 0.144612 0.156187
H105  H     H_    0.231196 0.907358 0.140203 0.137694
H106  H     H_    0.438889 0.809780 0.737123 0.150583
H107  H     H_    0.437015 0.878304 0.751538 0.132639
H108  H     H_    0.399057 0.835752 0.819425 0.173713
H109  H     H_    0.127034 0.905137 0.051298 0.128846
H110  H     H_    0.339733 0.853621 0.663333 0.175491
H111  H     H_    0.304823 0.880609 0.742926 0.185913
H112  H     H_    0.563175 0.121496 0.251902 0.141906
H113  H     H_    0.560906 0.189442 0.269800 0.148326
H114  H     H_    0.598689 0.165896 0.185092 0.156619
H115  H     H_    0.694614 0.119083 0.256725 0.184550
H116  H     H_    0.663305 0.145320 0.338539 0.177904
H117  H     H_    0.772248 0.822592 0.426930 0.176599
H118  H     H_    0.827003 0.790480 0.494681 0.184215
H119  H     H_    0.866708 0.808300 0.408852 0.155073
H120  H     H_    0.120530 0.094850 0.065424 0.161868
H121  H     H_    0.751269 0.724455 0.438177 0.170148
H122  H     H_    0.841142 0.714309 0.410277 0.188675
H123  H     H_    0.436818 0.121040 0.747887 0.162116
H124  H     H_    0.439700 0.189010 0.729679 0.184623
H125  H     H_    0.402383 0.165740 0.814831 0.164090
H126  H     H_    0.305146 0.119510 0.743346 0.181716
H127  H     H_    0.336557 0.145912 0.661814 0.181739
H128  H     H_    0.422223 0.282216 0.147852 0.209405
H129  H     H_    0.470873 0.278886 0.232743 0.183722
H130  H     H_    0.497613 0.238259 0.158548 0.132325
H131  H     H_    0.879239 0.905902 0.932874 0.159794
H132  H     H_    0.423361 0.193786 0.261068 0.116681
H133  H     H_    0.395596 0.182483 0.171208 0.160757
H134  H     H_    0.672752 0.879264 0.758248 0.154471
H135  H     H_    0.627997 0.856348 0.676786 0.174726
H136  H     H_    0.575097 0.884603 0.748896 0.130624
H137  H     H_    0.565513 0.787578 0.749032 0.146596
H138  H     H_    0.598558 0.814029 0.830096 0.198513
H139  H     H_    0.868836 0.203223 0.584622 0.192396
H140  H     H_    0.775777 0.188144 0.561226 0.182732
H141  H     H_    0.830322 0.226831 0.500624 0.155906
H142  H     H_    0.381950 0.953317 0.502053 0.142126
H143  H     H_    0.837223 0.296614 0.594239 0.160861
H144  H     H_    0.747785 0.284856 0.564816 0.159525
H145  H     H_    0.191874 0.635009 0.368452 0.164641
H146  H     H_    0.274509 0.645592 0.420882 0.148729
H147  H     H_    0.186905 0.647376 0.464639 0.174866
H148  H     H_    0.247655 0.733648 0.441667 0.160050
H149  H     H_    0.158117 0.730418 0.415065 0.205856
H150  H     H_    0.937044 0.316275 0.227131 0.149665
H151  H     H_    0.929198 0.384602 0.241103 0.135564
H152  H     H_    0.898416 0.340764 0.310956 0.175010
O1    O     O_3   0.500000 0.750040 0.500000 -0.447339
O2    O     O_R   0.414580 0.719700 0.353880 -0.506444
O3    O     O_R   0.414580 0.280300 0.353880 -0.546880
O4    O     O_R   0.585420 0.719700 0.646120 -0.527648
O5    O     O_R   0.085420 0.219700 0.853880 -0.487457
O6    O     O_R   0.914580 0.780300 0.146120 -0.522440
O7    O     O_R   0.914580 0.219700 0.146120 -0.511745
O8    O     O_R   0.085420 0.780300 0.853880 -0.528331
O9    O     O_R   0.085420 0.780300 0.146120 -0.519643
O10   O     O_R   0.914580 0.219700 0.853880 -0.517616
O11   O     O_R   0.914580 0.780300 0.853880 -0.536403
O12   O     O_3   0.500000 0.249960 0.500000 -0.454596
O13   O     O_R   0.085420 0.219700 0.146120 -0.539112
O14   O     O_R   0.646120 0.780390 0.585510 -0.548762
O15   O     O_R   0.353880 0.219610 0.414490 -0.518426
O16   O     O_R   0.353880 0.780390 0.414490 -0.557513
O17   O     O_R   0.646120 0.219610 0.585510 -0.548914
O18   O     O_R   0.646120 0.219610 0.414490 -0.551669
O19   O     O_R   0.353880 0.780390 0.585510 -0.562127
O20   O     O_R   0.353880 0.219610 0.585510 -0.538984
O21   O     O_R   0.646120 0.780390 0.414490 -0.540972
O22   O     O_R   0.146120 0.280390 0.085510 -0.526614
O23   O     O_3   1.000000 0.250040 0.000000 -0.454192
O24   O     O_R   0.853880 0.719610 0.914490 -0.540551
O25   O     O_R   0.853880 0.280390 0.914490 -0.558056
O26   O     O_R   0.146120 0.719610 0.085510 -0.529220
O27   O     O_R   0.146120 0.719610 0.914490 -0.558199
O28   O     O_R   0.853880 0.280390 0.085510 -0.564034
O29   O     O_R   0.853880 0.719610 0.085510 -0.542163
O30   O     O_R   0.146120 0.280390 0.914490 -0.548134
O31   O     O_R   0.560660 0.865840 0.500000 -0.550412
O32   O     O_R   0.439340 0.134160 0.500000 -0.554945
O33   O     O_R   0.439340 0.865840 0.500000 -0.549016
O34   O     O_3   0.000000 0.749960 0.000000 -0.449752
O35   O     O_R   0.560660 0.134160 0.500000 -0.552962
O36   O     O_R   0.060660 0.365840 0.000000 -0.559047
O37   O     O_R   0.939340 0.634160 0.000000 -0.549423
O38   O     O_R   0.939340 0.365840 0.000000 -0.552122
O39   O     O_R   0.060660 0.634160 0.000000 -0.543397
O40   O     O_R   0.500000 0.634240 0.439310 -0.564472
O41   O     O_R   0.500000 0.365760 0.560690 -0.518733
O42   O     O_R   0.500000 0.634240 0.560690 -0.515112
O43   O     O_R   0.500000 0.365760 0.439310 -0.539615
O44   O     O_R   1.000000 0.134240 0.939310 -0.526232
O45   O     O_R   0.585420 0.719700 0.353880 -0.523353
O46   O     O_R   1.000000 0.865760 0.060690 -0.547483
O47   O     O_R   0.000000 0.134240 0.060690 -0.524021
O48   O     O_R   0.000000 0.865760 0.939310 -0.530563
O49   O     O_2   0.732784 0.345483 0.394110 -0.552008
O50   O     O_R   0.674583 0.382841 0.297909 -0.695941
O51   O     O_2   0.319075 0.621625 0.699170 -0.449126
O52   O     O_R   0.268680 0.653551 0.595951 -0.683233
O53   O     O_2   0.339555 0.368369 0.685416 -0.424712
O54   O     O_R   0.237729 0.361706 0.616379 -0.695075
O55   O     O_2   0.574273 0.804213 0.202519 -0.413029
O56   O     O_R   0.414580 0.280300 0.646120 -0.496093
O57   O     O_R   0.550600 0.718647 0.203492 -0.615166
O58   O     O_2   0.832649 0.706875 0.574500 -0.565803
O59   O     O_R   0.719639 0.672000 0.576755 -0.733515
O60   O     O_2   0.170899 0.258815 0.432470 -0.507208
O61   O     O_R   0.259715 0.319777 0.430617 -0.727484
O62   O     O_2   0.428235 0.781703 0.173189 -0.405000
O63   O     O_R   0.414181 0.836964 0.266961 -0.642115
O64   O     O_2   0.577387 0.187980 0.784481 -0.565762
O65   O     O_R   0.549842 0.272359 0.803630 -0.674019
O66   O     O_2   0.227243 0.843780 0.895715 -0.570496
O67   O     O_R   0.414580 0.719700 0.646120 -0.513448
O68   O     O_R   0.180578 0.884433 0.796081 -0.689168
O69   O     O_2   0.823366 0.121003 0.217174 -0.458972
O70   O     O_R   0.788299 0.147525 0.105125 -0.678277
O71   O     O_2   0.920960 0.689660 0.289087 -0.477973
O72   O     O_R   0.951716 0.773670 0.300136 -0.621926
O73   O     O_2   0.179388 0.121913 0.797146 -0.445573
O74   O     O_R   0.230030 0.151318 0.901603 -0.665118
O75   O     O_2   0.240844 0.183633 0.073183 -0.547125
O76   O     O_R   0.341440 0.233731 0.062563 -0.713748
O77   O     O_2   0.667305 0.781658 0.926347 -0.560939
O78   O     O_R   0.585420 0.280300 0.353880 -0.531355
O79   O     O_R   0.774494 0.825146 0.926051 -0.735440
O80   O     O_2   0.942210 0.230096 0.699757 -0.447334
O81   O     O_R   0.928744 0.316276 0.711017 -0.710249
O82   O     O_2   0.095897 0.663483 0.224468 -0.503778
O83   O     O_R   0.073078 0.693599 0.337759 -0.663712
O84   O     O_R   0.585420 0.280300 0.646120 -0.517028
Zn1   Zn    Zn3+2 0.500000 0.706650 0.586810 0.981915
Zn2   Zn    Zn3+2 0.413290 0.206580 0.500000 0.958575
Zn3   Zn    Zn3+2 0.413290 0.793420 0.500000 0.933651
Zn4   Zn    Zn3+2 0.586710 0.206580 0.500000 0.921322
Zn5   Zn    Zn3+2 0.086710 0.293420 0.000000 0.948826
Zn6   Zn    Zn3+2 0.913290 0.706580 0.000000 0.950659
Zn7   Zn    Zn3+2 0.913290 0.293420 0.000000 0.908039
Zn8   Zn    Zn3+2 0.086710 0.706580 0.000000 0.952453
Zn9   Zn    Zn3+2 0.500000 0.293350 0.413190 0.953053
Zn10  Zn    Zn3+2 0.500000 0.706650 0.413190 0.984074
Zn11  Zn    Zn3+2 0.500000 0.293350 0.586810 1.008044
Zn12  Zn    Zn3+2 1.000000 0.206650 0.086810 0.984331
Zn13  Zn    Zn3+2 1.000000 0.793350 0.913190 0.956377
Zn14  Zn    Zn3+2 0.000000 0.206650 0.913190 1.015929
Zn15  Zn    Zn3+2 1.000000 0.793350 0.086810 0.989668
Zn16  Zn    Zn3+2 0.586710 0.793420 0.500000 0.944288

loop_
_geom_bond_atom_site_label_1
_geom_bond_atom_site_label_2
_ccdc_geom_bond_type
C86   O83   S    
O10   Zn14  S    
C58   H10   S    
O34   Zn15  S    
C19   C20   S    
C148  C151  A    
C54   C167  S    
C145  C146  A    
O12   Zn4   S    
C8    C95   A    
C11   C98   A    
C15   C163  A    
O29   Zn6   S    
O37   Zn6   S    
C107  H24   S    
C139  C142  A    
C128  C145  A    
C42   H123  S    
C111  O78   A    
O16   Zn3   S    
C107  C113  A    
C131  C140  A    
C12   C161  A    
H50   O63   S    
O5    Zn14  S    
C78   O68   S    
C19   H72   S    
O56   Zn11  S    
C75   O61   S    
O7    Zn12  S    
C144  O3    A    
C49   H139  S    
C15   C85   S    
C64   H28   S    
C85   O80   D    
C59   C60   S    
C21   C22   S    
C29   H90   S    
H59   O81   S    
C8    C157  A    
C25   H80   S    
C24   O8    A    
C67   H42   S    
C41   H127  S    
C28   H94   S    
C50   C164  S    
C83   O76   S    
C127  C136  A    
C131  H109  S    
C3    C169  A    
C65   C172  S    
C59   H19   S    
C53   H152  S    
C50   H148  S    
C132  H120  S    
C47   H136  S    
C89   O20   A    
H43   O50   S    
C44   H129  S    
C43   C44   S    
C65   H37   S    
C37   C38   S    
C24   O27   A    
C126  C147  A    
C35   O9    A    
C101  C170  A    
C62   H22   S    
C94   C122  S    
C50   H149  S    
O34   Zn13  S    
C48   H144  S    
C32   H105  S    
C110  C116  A    
O34   Zn6   S    
O17   Zn4   S    
O36   Zn5   S    
H47   O57   S    
H56   O76   S    
C123  C152  S    
H51   O65   S    
C117  O31   A    
C81   O72   S    
C69   H38   S    
O1    Zn10  S    
C57   O24   A    
O26   Zn8   S    
O38   Zn7   S    
C64   H29   S    
O15   Zn2   S    
O12   Zn11  S    
C32   C33   S    
C9    C158  A    
C37   H116  S    
C78   O66   D    
O6    Zn15  S    
C82   O74   S    
C39   H122  S    
C88   C160  A    
C147  C153  A    
C73   O57   S    
C49   H141  S    
O27   Zn8   S    
C88   C89   S    
C17   H67   S    
C31   H96   S    
C29   H92   S    
C17   C137  S    
H52   O68   S    
C2    O29   A    
C59   C169  S    
O47   Zn12  S    
C21   C135  S    
C104  C107  A    
C98   C168  A    
C72   O54   S    
C92   C161  A    
C111  O18   A    
C144  O15   A    
C40   H118  S    
C120  O37   A    
C79   C158  A    
C38   H112  S    
O42   Zn1   S    
C6    C172  A    
C16   C164  A    
C36   H107  S    
C4    C170  A    
C23   C136  S    
C47   H134  S    
C105  C113  A    
C46   O25   A    
C62   H23   S    
C22   H74   S    
C93   C133  S    
C52   C165  S    
C90   C159  A    
C12   C99   A    
C122  O84   A    
C54   H9    S    
C91   C162  A    
O12   Zn9   S    
C122  O17   A    
O43   Zn9   S    
C110  H57   S    
C7    C77   S    
C4    C91   A    
C25   H81   S    
C21   H78   S    
C70   O49   D    
C69   H40   S    
C18   H64   S    
C60   H17   S    
C33   H102  S    
C11   C82   S    
C5    C171  A    
C56   H14   S    
C13   C96   S    
C23   H82   S    
C80   O69   D    
C39   C40   S    
H45   O54   S    
O84   Zn11  S    
C165  C174  A    
C27   H86   S    
C38   H113  S    
C87   C157  A    
C118  O32   A    
C89   O56   A    
C10   C97   A    
C119  O38   A    
C1    O45   A    
C61   H26   S    
C41   C160  S    
C60   H16   S    
C124  O47   A    
C17   C18   S    
C70   C174  S    
C45   H137  S    
C98   C166  S    
C20   H69   S    
O31   Zn16  S    
C146  C152  A    
C120  O39   A    
C52   C53   S    
C167  C175  A    
C87   C100  S    
C132  C141  A    
C168  C176  A    
C54   C55   S    
C30   C139  S    
C94   C163  A    
C58   H11   S    
O13   Zn12  S    
C62   H21   S    
C136  C137  A    
C131  C150  A    
C95   C167  A    
C41   H126  S    
C6    C76   S    
C87   C175  A    
C88   C176  A    
H49   O61   S    
C52   H3    S    
C73   O55   D    
C42   H124  S    
O11   Zn13  S    
C55   H6    S    
C56   C58   S    
C34   C36   S    
O9    Zn15  S    
C61   C62   S    
C3    C73   S    
C56   H15   S    
C114  C117  S    
C21   H77   S    
C63   C64   S    
C34   C157  S    
C71   O52   S    
C30   H99   S    
C28   C142  S    
C96   C165  A    
C18   H62   S    
C42   H125  S    
C30   H100  S    
C1    C90   S    
C2    O6    A    
C166  O5    A    
C124  O44   A    
C121  O40   A    
C41   C42   S    
C127  H65   S    
C14   C84   S    
O23   Zn12  S    
C25   H79   S    
C125  C154  S    
C102  C173  A    
C27   H84   S    
C26   C27   S    
C121  C153  S    
C83   O75   D    
C28   C29   S    
C32   C140  S    
C35   C103  S    
C74   O58   D    
C33   H103  S    
C30   C31   S    
C53   H151  S    
O1    Zn1   S    
O20   Zn2   S    
C44   H130  S    
C65   H36   S    
C2    C97   S    
C130  H98   S    
C26   C141  S    
C13   O28   A    
C45   C47   S    
C86   O82   D    
C63   H31   S    
C16   C86   S    
C132  C149  A    
C79   C174  A    
C148  C154  A    
H48   O59   S    
C130  C139  A    
C11   C160  A    
H44   O52   S    
C19   H71   S    
C67   H41   S    
H55   O74   S    
C1    O21   A    
C24   C95   S    
C14   C101  A    
C33   H101  S    
C108  C112  A    
C100  O19   A    
C14   C162  A    
C45   C162  S    
C13   O7    A    
O41   Zn11  S    
O23   Zn7   S    
C134  C142  A    
C66   H32   S    
C16   C103  A    
C63   C171  S    
C81   O71   D    
O45   Zn10  S    
C37   H115  S    
C6    C93   A    
C50   C51   S    
O44   Zn14  S    
O3    Zn9   S    
C151  C156  A    
C140  C141  A    
O1    Zn16  S    
C9    C96   A    
C125  O46   A    
C49   H140  S    
C48   C49   S    
C77   O64   D    
C64   H27   S    
C126  C135  A    
C3    C90   A    
C31   H95   S    
C121  O42   A    
C29   H91   S    
C54   H8    S    
C43   H132  S    
C31   H97   S    
C57   C101  S    
C20   H68   S    
C7    C94   A    
C28   H93   S    
C39   C159  S    
O32   Zn2   S    
C57   O11   A    
C129  C143  A    
C117  O33   A    
C59   H20   S    
C105  C106  A    
O1    Zn3   S    
C10   C81   S    
C104  H142  S    
C84   O77   D    
C108  C116  A    
C123  O43   A    
C36   H106  S    
C22   H75   S    
C149  C150  A    
C68   O13   A    
O78   Zn9   S    
O46   Zn15  S    
C67   C173  S    
O30   Zn5   S    
C76   O63   S    
C71   C175  S    
O28   Zn7   S    
C72   C176  S    
C127  C146  A    
C44   H128  S    
C26   H88   S    
O67   Zn1   S    
C112  H61   S    
C130  C151  A    
C55   H7    S    
C48   H143  S    
C61   C170  S    
C129  H87   S    
C10   C159  A    
C68   O22   A    
C109  H46   S    
C135  C138  A    
O21   Zn16  S    
C5    C75   S    
C100  O67   A    
C70   O50   S    
C69   H39   S    
C105  H2    S    
O35   Zn4   S    
C60   H18   S    
C166  O30   A    
C48   C163  S    
C51   H147  S    
C143  C147  A    
C46   C102  S    
C128  H76   S    
H54   O72   S    
C106  C114  A    
O14   Zn16  S    
C149  C156  A    
C80   O70   S    
O23   Zn5   S    
O48   Zn13  S    
C99   C171  A    
C27   H85   S    
C34   H110  S    
C38   H114  S    
C82   O73   D    
C97   C169  A    
C75   O60   D    
C126  H1    S    
C125  O48   A    
C61   H25   S    
C129  C138  A    
O24   Zn6   S    
O25   Zn7   S    
O34   Zn8   S    
H53   O70   S    
C4    C74   S    
C32   H104  S    
C72   O53   D    
C26   H89   S    
C145  C153  A    
C20   H70   S    
C23   H83   S    
C8    C78   S    
C40   H117  S    
O8    Zn13  S    
O4    Zn1   S    
C58   H12   S    
C84   O79   S    
C123  O41   A    
C36   H108  S    
C22   H73   S    
C39   H121  S    
C133  O2    A    
O12   Zn2   S    
H58   O79   S    
C93   C164  A    
C133  O16   A    
C118  O35   A    
C63   H30   S    
C155  O4    A    
C67   C69   S    
C9    C80   S    
C37   C158  S    
C128  C137  A    
C52   H4    S    
C91   C155  S    
C134  H131  S    
O40   Zn10  S    
C34   H111  S    
C56   C168  S    
C55   H5    S    
C85   O81   S    
C66   H33   S    
O22   Zn5   S    
H60   O83   S    
C104  C114  A    
C43   C161  S    
C71   O51   D    
C77   O65   S    
C65   C66   S    
C124  C156  S    
C103  C172  A    
C66   H34   S    
C119  O36   A    
O2    Zn10  S    
C108  H35   S    
C18   H63   S    
C51   H145  S    
C143  C152  A    
C46   O10   A    
O19   Zn3   S    
C43   H133  S    
O39   Zn8   S    
C12   C83   S    
C17   H66   S    
C155  O14   A    
C47   H135  S    
C35   O26   A    
C134  C148  A    
C116  C119  S    
C79   C111  S    
C68   C99   S    
C74   O59   S    
O33   Zn3   S    
C19   C138  S    
C53   H150  S    
C7    C173  A    
C23   C25   S    
C15   C102  A    
O18   Zn4   S    
C92   C144  S    
O23   Zn14  S    
C45   H138  S    
C5    C92   A    
C109  C115  A    
C113  C118  S    
C115  C120  S    
C150  C154  A    
C109  C110  A    
C76   O62   D    
C40   H119  S    
C106  H13   S    
C51   H146  S    
C112  C115  A    
