data_mof_unit_50622.cif
_audit_creation_date              2012-12-11T15:24:00-0500
_audit_creation_method            fapswitch 2.2
_symmetry_space_group_name_H-M    P1
_symmetry_Int_Tables_number       1
_space_group_crystal_system       triclinic
_cell_length_a                    17.25856
_cell_length_b                    24.372652
_cell_length_c                    14.873854
_cell_angle_alpha                 89.835195
_cell_angle_beta                  125.385533
_cell_angle_gamma                 90.069363
_cell_volume                      5100.73317858

loop_
_atom_site_label
_atom_site_type_symbol
_atom_type_description
_atom_site_fract_x
_atom_site_fract_y
_atom_site_fract_z
_atom_type_partial_charge
Br1   Br    Br    0.470268 0.671490 0.224520 -0.636805
Br2   Br    Br    0.436473 0.676833 0.770545 -0.633595
Br3   Br    Br    0.970252 0.171482 0.224522 -0.636798
Br4   Br    Br    0.936469 0.176830 0.770543 -0.633614
C1    C     C_R   0.311397 0.374847 0.908763 -0.125053
C2    C     C_R   0.552848 0.499117 0.727048 0.016847
C3    C     C_R   0.067800 0.998601 0.368984 0.025056
C4    C     C_R   0.052845 0.999116 0.727045 0.016847
C5    C     C_R   0.192793 0.499460 0.637988 0.124372
C6    C     C_R   0.823258 0.498848 0.267849 0.127732
C7    C     C_R   0.692797 0.999460 0.637983 0.124371
C8    C     C_R   0.323259 0.998848 0.267850 0.127733
C9    C     C_2   0.978145 0.454878 0.360292 -0.097755
C10   C     C_2   0.076998 0.458067 0.457796 -0.106906
C11   C     C_2   0.478146 0.954878 0.360291 -0.097753
C12   C     C_R   0.645292 0.346677 0.088901 -0.132082
C13   C     C_2   0.577000 0.958067 0.457793 -0.106906
C14   C     C_2   0.924417 0.499951 0.315180 -0.191841
C15   C     C_2   0.107486 0.501289 0.525968 -0.185057
C16   C     C_2   0.424418 0.999951 0.315180 -0.191842
C17   C     C_2   0.607491 0.001289 0.525963 -0.185052
C18   C     C_R   0.165042 0.695036 0.890762 -0.154637
C19   C     C_R   0.701627 0.769855 0.096036 -0.153019
C20   C     C_R   0.665062 0.195048 0.890756 -0.154638
C21   C     C_R   0.201639 0.269851 0.096048 -0.153019
C22   C     C_R   0.614220 0.238417 0.890606 -0.169435
C23   C     C_R   0.811396 0.874849 0.908761 -0.125056
C24   C     C_R   0.252503 0.314508 0.097360 -0.174598
C25   C     C_R   0.114194 0.738402 0.890612 -0.169430
C26   C     C_R   0.752488 0.814513 0.097345 -0.174605
C27   C     C_R   0.635880 0.258496 0.990887 0.130792
C28   C     C_R   0.238544 0.331834 0.998927 0.141545
C29   C     C_R   0.135876 0.758493 0.990897 0.130787
C30   C     C_R   0.738542 0.831832 0.998916 0.141542
C31   C     C_R   0.692337 0.227166 0.087099 -0.163878
C32   C     C_R   0.162046 0.310992 0.898533 -0.183668
C33   C     C_R   0.192353 0.727171 0.087119 -0.163876
C34   C     C_R   0.145291 0.846677 0.088903 -0.132082
C35   C     C_R   0.662063 0.810978 0.898524 -0.183658
C36   C     C_R   0.241218 0.682230 0.086259 -0.109281
C37   C     C_R   0.615466 0.765020 0.897690 -0.129826
C38   C     C_R   0.741199 0.182224 0.086240 -0.109277
C39   C     C_R   0.115444 0.265035 0.897695 -0.129837
C40   C     C_R   0.404527 0.630108 0.090191 0.314708
C41   C     C_R   0.549455 0.652430 0.907560 0.265789
C42   C     C_R   0.904522 0.130104 0.090189 0.314723
C43   C     C_R   0.049453 0.152431 0.907559 0.265800
C44   C     C_R   0.236897 0.671027 0.991052 0.157657
C45   C     C_R   0.312666 0.640724 0.997044 -0.061051
C46   C     C_R   0.638649 0.741834 0.996751 0.168307
C47   C     C_R   0.736893 0.171027 0.991041 0.157665
C48   C     C_R   0.138644 0.241838 0.996757 0.168303
C49   C     C_R   0.608827 0.548480 0.628940 -0.156958
C50   C     C_R   0.610922 0.548353 0.537323 -0.156260
C51   C     C_R   0.108831 0.048478 0.628943 -0.156956
C52   C     C_R   0.110927 0.048351 0.537327 -0.156255
C53   C     C_R   0.602182 0.498606 0.484924 0.131902
C54   C     C_R   0.596952 0.498925 0.667596 0.137673
C55   C     C_R   0.102181 0.998604 0.484924 0.131905
C56   C     C_R   0.612158 0.684788 0.997973 -0.021882
C57   C     C_R   0.096948 0.998923 0.667593 0.137673
C58   C     C_R   0.611006 0.449007 0.538084 -0.159731
C59   C     C_R   0.608981 0.449188 0.629832 -0.155948
C60   C     C_R   0.110997 0.949005 0.538077 -0.159732
C61   C     C_R   0.108970 0.949186 0.629823 -0.155950
C62   C     C_R   0.549528 0.453386 0.303963 -0.135836
C63   C     C_R   0.520393 0.453330 0.751807 -0.119762
C64   C     C_R   0.049528 0.953386 0.303963 -0.135838
C65   C     C_R   0.020392 0.953330 0.751806 -0.119763
C66   C     C_R   0.242309 0.544998 0.698910 -0.135489
C67   C     C_R   0.812661 0.140719 0.997040 -0.061062
C68   C     C_R   0.767754 0.544957 0.244676 -0.142046
C69   C     C_R   0.742312 0.044998 0.698907 -0.135487
C70   C     C_R   0.267755 0.044957 0.244676 -0.142046
C71   C     C_R   0.552292 0.544161 0.305312 -0.083734
C72   C     C_R   0.522613 0.545146 0.753905 -0.089019
C73   C     C_R   0.052293 0.044160 0.305313 -0.083718
C74   C     C_R   0.022612 0.045145 0.753904 -0.089015
C75   C     C_R   0.243436 0.453763 0.699006 -0.129628
C76   C     C_R   0.766739 0.453102 0.244623 -0.111818
C77   C     C_R   0.743439 0.953763 0.699003 -0.129627
C78   C     C_R   0.112154 0.184790 0.997973 -0.021879
C79   C     C_R   0.266740 0.953102 0.244624 -0.111816
C80   C     C_R   0.309570 0.624010 0.906090 -0.109291
C81   C     C_R   0.646409 0.652181 0.090487 -0.172847
C82   C     C_R   0.809567 0.124005 0.906089 -0.109303
C83   C     C_R   0.146407 0.152182 0.090487 -0.172855
C84   C     C_R   0.402684 0.374710 0.093046 -0.125617
C85   C     C_R   0.553450 0.347879 0.906117 -0.139679
C86   C     C_R   0.902681 0.874710 0.093044 -0.125616
C87   C     C_R   0.053451 0.847878 0.906119 -0.139669
C88   C     C_R   0.312815 0.361663 0.000635 0.044212
C89   C     C_R   0.567799 0.498602 0.368984 0.025060
C90   C     C_R   0.613507 0.315362 0.996070 0.062377
C91   C     C_R   0.812813 0.861664 0.000631 0.044213
C92   C     C_R   0.113506 0.815360 0.996073 0.062379
H1    H     H_    0.254082 0.369828 0.823122 0.095384
H2    H     H_    0.718780 0.754580 0.173892 0.119074
H3    H     H_    0.654055 0.185125 0.813474 0.114519
H4    H     H_    0.218805 0.254570 0.173907 0.119063
H5    H     H_    0.567050 0.259597 0.813237 0.110721
H6    H     H_    0.307880 0.331874 0.176079 0.114042
H7    H     H_    0.066999 0.759572 0.813235 0.110718
H8    H     H_    0.807851 0.831888 0.176060 0.114049
H9    H     H_    0.704894 0.239588 0.164274 0.120789
H10   H     H_    0.145250 0.325008 0.820199 0.118437
H11   H     H_    0.204924 0.739598 0.164299 0.120787
H12   H     H_    0.683887 0.332184 0.173073 0.093164
H13   H     H_    0.645282 0.824983 0.820193 0.118433
H14   H     H_    0.287909 0.659597 0.161906 0.160389
H15   H     H_    0.570206 0.745141 0.819394 0.171043
H16   H     H_    0.787876 0.159584 0.161881 0.160382
H17   H     H_    0.070165 0.245166 0.819391 0.171062
H18   H     H_    0.606211 0.587674 0.660867 0.119909
H19   H     H_    0.609599 0.587535 0.502334 0.133018
H20   H     H_    0.106221 0.087672 0.660875 0.119910
H21   H     H_    0.109610 0.087534 0.502341 0.133018
H22   H     H_    0.610013 0.409816 0.503649 0.112313
H23   H     H_    0.754080 0.869833 0.823120 0.095384
H24   H     H_    0.606782 0.410109 0.662791 0.112868
H25   H     H_    0.109998 0.909814 0.503638 0.112313
H26   H     H_    0.106763 0.910108 0.662774 0.112871
H27   H     H_    0.567555 0.411270 0.331107 0.091056
H28   H     H_    0.529858 0.410760 0.740899 0.096588
H29   H     H_    0.067555 0.911270 0.331106 0.091058
H30   H     H_    0.029858 0.910759 0.740898 0.096589
H31   H     H_    0.229792 0.586717 0.668460 0.127004
H32   H     H_    0.789731 0.587202 0.252413 0.102914
H33   H     H_    0.729796 0.086717 0.668458 0.127007
H34   H     H_    0.183885 0.832185 0.173075 0.093160
H35   H     H_    0.289731 0.087202 0.252412 0.102914
H36   H     H_    0.578655 0.584610 0.336874 0.148124
H37   H     H_    0.535515 0.587607 0.746308 0.130100
H38   H     H_    0.078658 0.084609 0.336876 0.148121
H39   H     H_    0.035513 0.087607 0.746305 0.130106
H40   H     H_    0.231709 0.411897 0.670136 0.089525
H41   H     H_    0.786722 0.410565 0.251623 0.099969
H42   H     H_    0.731712 0.911897 0.670133 0.089524
H43   H     H_    0.286724 0.910565 0.251625 0.099969
H44   H     H_    0.251273 0.627208 0.820476 0.113651
H45   H     H_    0.956732 0.540119 0.329392 0.132812
H46   H     H_    0.686231 0.665743 0.175148 0.121967
H47   H     H_    0.751269 0.127200 0.820475 0.113650
H48   H     H_    0.186227 0.165743 0.175148 0.121965
H49   H     H_    0.429590 0.369337 0.178471 0.095771
H50   H     H_    0.504496 0.334968 0.821531 0.087260
H51   H     H_    0.929587 0.869335 0.178468 0.095773
H52   H     H_    0.004499 0.834967 0.821533 0.087256
H53   H     H_    0.946187 0.414412 0.340073 0.128032
H54   H     H_    0.119139 0.420844 0.482704 0.125545
H55   H     H_    0.446189 0.914412 0.340073 0.128032
H56   H     H_    0.065614 0.538400 0.504147 0.130509
H57   H     H_    0.619141 0.920843 0.482701 0.125545
H58   H     H_    0.456733 0.040119 0.329391 0.132811
H59   H     H_    0.565619 0.038401 0.504143 0.130507
H60   H     H_    0.154016 0.685103 0.813474 0.114509
N1    N     N_R   0.395440 0.396300 0.944370 -0.041852
N2    N     N_R   0.474910 0.470990 0.794360 -0.044769
N3    N     N_R   0.025090 0.970990 0.205640 -0.043857
N4    N     N_R   0.974910 0.970990 0.794360 -0.044769
N5    N     N_R   0.320240 0.527820 0.794510 -0.038974
N6    N     N_R   0.679760 0.527820 0.205490 -0.042714
N7    N     N_R   0.820240 0.027820 0.794510 -0.038974
N8    N     N_R   0.179760 0.027820 0.205490 -0.042715
N9    N     N_R   0.524580 0.527810 0.205160 -0.046959
N10   N     N_R   0.475420 0.527810 0.794840 -0.030442
N11   N     N_R   0.024580 0.027810 0.205160 -0.046960
N12   N     N_R   0.604560 0.396300 0.055630 -0.041570
N13   N     N_R   0.975420 0.027810 0.794840 -0.030441
N14   N     N_R   0.320750 0.470990 0.794990 -0.048228
N15   N     N_R   0.679250 0.470990 0.205010 -0.048373
N16   N     N_R   0.820750 0.970990 0.794990 -0.048228
N17   N     N_R   0.179250 0.970990 0.205010 -0.048373
N18   N     N_R   0.393580 0.602500 0.942610 -0.041033
N19   N     N_R   0.606420 0.602500 0.057390 -0.054579
N20   N     N_R   0.893580 0.102500 0.942610 -0.041030
N21   N     N_R   0.106420 0.102500 0.057390 -0.054580
N22   N     N_R   0.451750 0.396300 0.057540 -0.041211
N23   N     N_R   0.895440 0.896300 0.944370 -0.041853
N24   N     N_R   0.548250 0.396300 0.942460 -0.039901
N25   N     N_R   0.951750 0.896300 0.057540 -0.041211
N26   N     N_R   0.048250 0.896300 0.942460 -0.039903
N27   N     N_R   0.104560 0.896300 0.055630 -0.041570
N28   N     N_R   0.449890 0.602500 0.055780 -0.066460
N29   N     N_R   0.550110 0.602500 0.944220 -0.065054
N30   N     N_R   0.949890 0.102500 0.055780 -0.066462
N31   N     N_R   0.050110 0.102500 0.944220 -0.065053
N32   N     N_R   0.525090 0.470990 0.205640 -0.043857
Ni1   Ni    Ni4+2 0.435420 0.434250 0.870220 0.208157
Ni2   Ni    Ni4+2 0.564580 0.434250 0.129780 0.206144
Ni3   Ni    Ni4+2 0.935420 0.934250 0.870220 0.208157
Ni4   Ni    Ni4+2 0.064580 0.934250 0.129780 0.206145
Ni5   Ni    Ni4+2 0.563400 0.564580 0.128670 0.239336
Ni6   Ni    Ni4+2 0.436600 0.564580 0.871330 0.270896
Ni7   Ni    Ni4+2 0.063400 0.064580 0.128670 0.239332
Ni8   Ni    Ni4+2 0.936600 0.064580 0.871330 0.270896

loop_
_geom_bond_atom_site_label_1
_geom_bond_atom_site_label_2
_ccdc_geom_bond_type
C40   C45   A    
C66   H31   S    
C18   C44   A    
C51   C52   A    
C29   C92   S    
C41   C56   A    
C18   C25   A    
C62   N32   A    
N31   Ni8   S    
C20   H3    S    
C52   H21   S    
C2    C54   S    
C23   C91   A    
N29   Ni6   S    
C13   H57   S    
C63   H28   S    
C11   H55   S    
N8    Ni7   S    
C53   C58   A    
C35   C37   A    
C18   H60   S    
C49   C50   A    
C7    C77   A    
C21   C24   A    
C75   H40   S    
N14   Ni1   S    
N2    N10   A    
C4    C65   A    
C58   C59   A    
C16   H58   S    
C9    C14   D    
C68   H32   S    
C28   C32   A    
C75   N14   A    
C23   N23   A    
C33   H11   S    
C33   C36   A    
C8    C70   A    
N24   Ni1   S    
C78   C83   A    
C22   H5    S    
N22   Ni2   S    
N25   Ni4   S    
C39   C48   A    
C43   C78   A    
C83   N21   A    
C51   H20   S    
C76   H41   S    
C25   C29   A    
C65   N4    A    
N12   Ni2   S    
C25   H7    S    
N32   Ni2   S    
C5    C75   A    
C77   N16   A    
C85   C90   A    
C31   C38   A    
C38   H16   S    
N26   N27   A    
C21   H4    S    
C3    C64   A    
C5    C15   S    
N6    N15   A    
C84   C88   A    
N4    N13   A    
C72   N10   A    
C9    C10   S    
C83   H48   S    
C64   N3    A    
C74   H39   S    
C40   N28   A    
C4    C57   S    
C3    C73   A    
C20   C47   A    
C87   C92   A    
C22   C27   A    
N16   Ni3   S    
C53   C89   S    
C70   H35   S    
N27   Ni4   S    
C4    C74   A    
C10   H54   S    
C85   H50   S    
C47   C67   S    
C80   N18   A    
N3    Ni4   S    
C3    C55   S    
C87   H52   S    
C82   H47   S    
N13   Ni8   S    
N1    Ni1   S    
Br2   C41   S    
C77   H42   S    
C69   H33   S    
N9    N32   A    
C26   C30   A    
C32   H10   S    
C30   C35   A    
C19   C26   A    
N30   Ni7   S    
C24   C28   A    
C30   C91   S    
C7    C69   A    
N2    Ni1   S    
N18   N28   A    
C85   N24   A    
C6    C76   A    
C19   C46   A    
C36   H14   S    
N12   N24   A    
C84   N22   A    
C7    C17   S    
C74   N13   A    
N20   Ni8   S    
C34   N27   A    
N15   Ni2   S    
C11   C16   D    
C50   C53   A    
C86   H51   S    
C31   H9    S    
C57   C61   A    
N19   N29   A    
C67   C82   A    
Br1   C40   S    
C86   N25   A    
C84   H49   S    
C50   H19   S    
C8    C16   S    
C15   H56   S    
C17   H59   S    
N8    N17   A    
C71   N9    A    
C61   H26   S    
C5    C66   A    
C48   C78   S    
N7    N16   A    
C80   H44   S    
C42   C67   A    
C12   N12   A    
C62   C89   A    
N5    N14   A    
C2    C63   A    
C1    H1    S    
C65   H30   S    
N18   Ni6   S    
C1    N1    A    
C79   N17   A    
C79   H43   S    
C72   H37   S    
C27   C31   A    
C73   H38   S    
C26   H8    S    
C66   N5    A    
C34   H34   S    
C37   C46   A    
C71   H36   S    
C71   C89   A    
C29   C33   A    
C45   C80   A    
C54   C59   A    
C36   C44   A    
C44   C45   S    
N21   Ni7   S    
C8    C79   A    
C62   H27   S    
N11   Ni7   S    
C10   C15   D    
C14   H45   S    
N10   Ni6   S    
N4    Ni3   S    
C20   C22   A    
C32   C39   A    
N9    Ni5   S    
C81   H46   S    
C49   C54   A    
C2    C72   A    
N20   N30   A    
C23   H23   S    
C73   N11   A    
C27   C90   S    
C38   C47   A    
Br3   C42   S    
C12   C90   A    
N21   N31   A    
C52   C55   A    
C46   C56   S    
C60   C61   A    
C21   C48   A    
C9    H53   S    
C55   C60   A    
C39   H17   S    
C70   N8    A    
C59   H24   S    
C41   N29   A    
C28   C88   S    
N7    Ni8   S    
C6    C14   S    
C51   C57   A    
N6    Ni5   S    
C81   N19   A    
N3    N11   A    
N5    Ni6   S    
C63   N2    A    
C82   N20   A    
N1    N22   A    
C13   C17   D    
C58   H22   S    
C1    C88   A    
C12   H12   S    
N17   Ni4   S    
C56   C81   A    
C24   H6    S    
C35   H13   S    
C19   H2    S    
N23   Ni3   S    
C42   N30   A    
C69   N7    A    
N28   Ni5   S    
C37   H15   S    
C87   N26   A    
C34   C92   A    
C68   N6    A    
N26   Ni3   S    
C49   H18   S    
C76   N15   A    
C11   C13   S    
C43   N31   A    
C64   H29   S    
N19   Ni5   S    
C86   C91   A    
C60   H25   S    
N23   N25   A    
Br4   C43   S    
C6    C68   A    
