data_mof_unit_39996.cif
_audit_creation_date              2012-12-10T20:27:54-0500
_audit_creation_method            fapswitch 2.2
_symmetry_space_group_name_H-M    P1
_symmetry_Int_Tables_number       1
_space_group_crystal_system       triclinic
_cell_length_a                    12.803558
_cell_length_b                    10.719432
_cell_length_c                    9.962303
_cell_angle_alpha                 89.198543
_cell_angle_beta                  96.664699
_cell_angle_gamma                 92.346395
_cell_volume                      1356.85779108

loop_
_atom_site_label
_atom_site_type_symbol
_atom_type_description
_atom_site_fract_x
_atom_site_fract_y
_atom_site_fract_z
_atom_type_partial_charge
C1    C     C_R   0.502216 0.260328 0.500675 0.903714
C2    C     C_R   0.017899 0.435619 0.503859 0.051310
C3    C     C_R   0.977370 0.556103 0.473750 0.035645
C4    C     C_R   0.873627 0.576062 0.492248 -0.171761
C5    C     C_R   0.851660 0.365614 0.582641 -0.113820
C6    C     C_R   0.956004 0.342377 0.565171 -0.065527
C7    C     C_R   0.533326 0.063605 0.622449 0.089640
C8    C     C_R   0.516312 0.129215 0.501047 -0.077632
C9    C     C_R   0.515753 0.066828 0.378066 -0.140056
C10   C     C_R   0.514325 0.938205 0.377482 -0.179859
C11   C     C_R   0.516270 0.872169 0.500012 -0.129918
C12   C     C_R   0.298774 0.501675 0.473370 0.890693
C13   C     C_R   0.534475 0.935635 0.622363 0.142626
C14   C     C_3   0.475132 0.924994 0.743580 -0.111245
C15   C     C_3   0.473387 0.066360 0.741822 -0.475287
C16   C     C_R   0.431406 0.424033 0.062452 0.167034
C17   C     C_R   0.576663 0.563424 0.082113 -0.028843
C18   C     C_R   0.577483 0.562426 0.939021 0.099092
C19   C     C_R   0.433590 0.420885 0.921518 0.076393
C20   C     C_3   0.316809 0.406389 0.895662 -0.326097
C21   C     C_3   0.313819 0.423954 0.048315 -0.325214
C22   C     C_R   0.502746 0.739799 0.499662 0.851332
C23   C     C_R   0.701038 0.498275 0.526269 0.879174
C24   C     C_R   0.811605 0.481406 0.541339 -0.110356
C25   C     C_R   0.187397 0.516512 0.455082 -0.127995
C26   C     C_R   0.042044 0.654673 0.428504 -0.006700
C27   C     C_R   0.149341 0.636361 0.428868 -0.020137
C28   C     C_R   0.119836 0.413702 0.474275 0.064228
H1    H     H_    0.838622 0.664899 0.467064 0.157805
H2    H     H_    0.393480 0.100196 0.712861 0.220101
H3    H     H_    0.518909 0.113008 0.830315 0.216059
H4    H     H_    0.280677 0.483117 0.832541 0.185421
H5    H     H_    0.285349 0.516913 0.072095 0.145725
H6    H     H_    0.508303 0.115898 0.281832 0.201728
H7    H     H_    0.503855 0.891540 0.281003 0.215257
H8    H     H_    0.396243 0.876987 0.723182 0.184240
N1    N     N_R   0.499290 0.499140 0.142710 -0.174155
N2    N     N_R   0.499290 0.499180 0.857070 -0.122971
O1    O     O_R   0.500010 0.316790 0.614690 -0.605356
O2    O     O_R   0.500000 0.316760 0.385350 -0.594517
O3    O     O_R   0.346360 0.499990 0.595720 -0.598408
O4    O     O_R   0.346350 0.499960 0.366370 -0.634812
O5    O     O_R   0.500000 0.683240 0.614650 -0.636019
O6    O     O_R   0.499990 0.683210 0.385310 -0.596975
O7    O     O_R   0.653650 0.500040 0.633630 -0.613116
O8    O     O_R   0.653640 0.500010 0.404280 -0.602875
Zn1   Zn    Zn3+2 0.500010 0.500020 0.653130 0.969116
Zn2   Zn    Zn3+2 0.499990 0.499980 0.346870 0.992213
N3    N     N_3   0.538628 0.874779 0.862224 -0.425386
H9    H     H_    0.611455 0.923547 0.878347 0.217314
H10   H     H_    0.499200 0.889074 0.946598 0.221415
C29   C     C_2   0.661927 0.633239 0.163795 1.028077
O9    O     O_2   0.750444 0.592728 0.178370 -0.572400
O10   O     O_R   0.643005 0.748517 0.217176 -0.822753
H11   H     H_    0.707196 0.787165 0.272630 0.350080
N4    N     N_3   0.663752 0.625349 0.883761 -0.430049
H12   H     H_    0.636760 0.675396 0.797459 0.246635
H13   H     H_    0.715509 0.558376 0.860279 0.253215
C30   C     C_2   0.287849 0.277231 0.841097 1.028027
O11   O     O_2   0.310906 0.183853 0.908475 -0.635853
O12   O     O_R   0.239294 0.264782 0.709832 -0.788035
H14   H     H_    0.224247 0.174188 0.683684 0.341689
C31   C     C_2   0.260598 0.319960 0.121988 1.030074
O13   O     O_2   0.311898 0.251313 0.200969 -0.623436
O14   O     O_R   0.151517 0.301376 0.096299 -0.763256
H15   H     H_    0.124586 0.224543 0.143945 0.348330
C32   C     C_2   0.784181 0.267682 0.641279 0.905790
O15   O     O_2   0.773232 0.163916 0.590904 -0.615833
O16   O     O_R   0.736250 0.293333 0.756371 -0.765185
H16   H     H_    0.694579 0.218646 0.788624 0.338092
C33   C     C_2   0.000408 0.777802 0.384194 0.946653
O17   O     O_2   0.042476 0.873798 0.433012 -0.591403
O18   O     O_R   0.915593 0.783907 0.282940 -0.780002
H17   H     H_    0.895662 0.872897 0.259893 0.353372
C34   C     C_2   0.001493 0.228937 0.630743 0.987256
O19   O     O_2   0.028774 0.228785 0.752504 -0.575988
O20   O     O_R   0.004826 0.120060 0.556317 -0.743675
H18   H     H_    0.034683 0.048551 0.614267 0.369165
N5    N     N_3   0.218758 0.739474 0.399581 -0.404225
H19   H     H_    0.256237 0.717399 0.315685 0.204892
H20   H     H_    0.275619 0.753170 0.482727 0.178490
N6    N     N_3   0.150901 0.288243 0.454361 -0.397779
H21   H     H_    0.101116 0.251556 0.372700 0.224632
H22   H     H_    0.227005 0.285584 0.427137 0.213161

loop_
_geom_bond_atom_site_label_1
_geom_bond_atom_site_label_2
_ccdc_geom_bond_type
C31   O14   S    
C16   C21   S    
C23   O7    A    
C1    C8    S    
O18   H17   S    
C19   C20   S    
C5    C32   S    
C7    C8    A    
O20   H18   S    
C25   C28   A    
C26   C27   A    
C27   N5    S    
O16   H16   S    
C14   H8    S    
C5    C6    A    
C4    C24   A    
C14   N3    S    
C21   H5    S    
N4    H12   S    
N3    H9    S    
C12   O4    A    
C1    O2    A    
C22   O6    A    
C20   C30   S    
C8    C9    A    
N3    H10   S    
C23   C24   S    
C10   H7    S    
C9    C10   A    
C4    H1    S    
C18   N4    S    
C16   N1    A    
C7    C15   S    
C30   O11   D    
C23   O8    A    
C13   C14   S    
C26   C33   S    
C2    C6    A    
C17   C29   S    
C29   O10   S    
O7    Zn1   S    
O8    Zn2   S    
C30   O12   S    
C28   N6    S    
C32   O15   D    
C6    C34   S    
N5    H20   S    
C17   N1    A    
N5    H19   S    
C32   O16   S    
C34   O19   D    
C12   O3    A    
C19   N2    A    
C22   O5    A    
C17   C18   A    
O3    Zn1   S    
O4    Zn2   S    
N1    Zn2   S    
C34   O20   S    
N2    Zn1   S    
N6    H21   S    
N6    H22   S    
C9    H6    S    
C3    C4    A    
C29   O9    D    
C15   H2    S    
O1    Zn1   S    
C20   H4    S    
O2    Zn2   S    
O10   H11   S    
C3    C26   A    
C15   H3    S    
C25   C27   A    
C11   C22   S    
C12   C25   S    
C2    C3    A    
C18   N2    A    
C33   O17   D    
C11   C13   A    
C5    C24   A    
C16   C19   A    
N4    H13   S    
O12   H14   S    
C21   C31   S    
C10   C11   A    
C1    O1    A    
C31   O13   D    
C7    C13   A    
C20   C21   S    
O14   H15   S    
C33   O18   S    
C14   C15   S    
C2    C28   A    
O5    Zn1   S    
O6    Zn2   S    
