data_mof_unit_59497.cif
_audit_creation_date              2013-03-05T16:47:55-0500
_audit_creation_method            fapswitch 2.2
_symmetry_space_group_name_H-M    P1
_symmetry_Int_Tables_number       1
_space_group_crystal_system       triclinic
_cell_length_a                    8.105566
_cell_length_b                    8.931822
_cell_length_c                    16.842293
_cell_angle_alpha                 90.001431
_cell_angle_beta                  83.647926
_cell_angle_gamma                 90.037171
_cell_volume                      1211.85343697

loop_
_atom_site_label
_atom_site_type_symbol
_atom_site_description
_atom_site_fract_x
_atom_site_fract_y
_atom_site_fract_z
_atom_type_partial_charge
O1    O     O_R   0.363150 0.714660 0.500000 -0.604478
O2    O     O_R   0.636850 0.285340 0.500000 -0.604518
O3    O     O_R   0.636850 0.714660 0.500000 -0.621034
O4    O     O_R   0.363150 0.285340 0.500000 -0.621115
C1    C     C_R   0.500030 0.782021 0.499998 0.936797
C2    C     C_R   0.499970 0.217979 0.500001 0.936342
O5    O     O_R   0.346950 0.500000 0.615800 -0.620339
O6    O     O_R   0.653050 0.500000 0.384200 -0.621076
O7    O     O_R   0.620700 0.500000 0.615800 -0.568700
O8    O     O_R   0.379300 0.500000 0.384200 -0.569075
C3    C     C_R   0.474847 0.499526 0.653349 0.921577
C4    C     C_R   0.525150 0.500298 0.346655 0.921970
Zn1   Zn    Zn3+2 0.317220 0.500000 0.500010 1.041552
Zn2   Zn    Zn3+2 0.682780 0.500000 0.499990 1.041472
H1    H     H_    0.410156 0.727589 0.114739 0.159401
H2    H     H_    0.590368 0.270550 0.884765 0.159368
N1    N     N_1   0.926360 0.500000 0.499990 -0.010249
N2    N     N_1   0.073640 0.500000 0.500010 -0.010270
C5    C     C_R   0.452755 0.485511 0.739493 -0.240052
C6    C     C_R   0.547172 0.513429 0.260478 -0.239947
C7    C     C_R   0.538141 0.369885 0.774060 0.419672
C8    C     C_R   0.462382 0.629135 0.225661 0.419862
C9    C     C_R   0.518028 0.353301 0.856649 -0.340888
C10   C     C_R   0.482005 0.644672 0.143013 -0.340699
C11   C     C_R   0.414552 0.450096 0.903910 0.036912
C12   C     C_R   0.584503 0.546829 0.095954 0.036610
C13   C     C_R   0.317950 0.558543 0.869921 0.173487
C14   C     C_R   0.680451 0.438128 0.130142 0.173812
C15   C     C_R   0.339580 0.579132 0.786869 0.357370
C16   C     C_R   0.659263 0.418555 0.213270 0.357440
C17   C     C_2   0.436502 0.456517 0.988340 0.185276
C18   C     C_2   0.562633 0.540212 0.011527 0.185375
C19   C     C_1   0.500043 0.934809 0.499998 -0.158289
C20   C     C_1   0.499958 0.065191 0.499999 -0.158176
C21   C     C_3   0.201039 0.657240 0.923090 -0.812741
H3    H     H_    0.128247 0.734439 0.888959 0.285233
H4    H     H_    0.111262 0.586236 0.960813 0.223710
H5    H     H_    0.272456 0.725846 0.962378 0.221871
C22   C     C_3   0.796356 0.338286 0.077133 -0.812441
H6    H     H_    0.868865 0.261053 0.111385 0.285323
H7    H     H_    0.724184 0.269658 0.038184 0.221743
H8    H     H_    0.886404 0.408444 0.039054 0.223486
O9    O     O_3   0.641062 0.275521 0.725973 -0.740135
H9    H     H_    0.690384 0.200597 0.759834 0.337253
O10   O     O_3   0.360504 0.724590 0.273570 -0.740328
H10   H     H_    0.311493 0.799450 0.239541 0.337310
O11   O     O_3   0.743959 0.303081 0.245625 -0.750915
H11   H     H_    0.686707 0.274610 0.298362 0.331968
O12   O     O_3   0.254236 0.694385 0.754713 -0.750445
H12   H     H_    0.312837 0.724755 0.702563 0.331535
C23   C     C_3   0.680935 0.629123 0.953835 -0.913289
H13   H     H_    0.771674 0.691605 0.986049 0.246985
H14   H     H_    0.751601 0.552891 0.910524 0.255025
H15   H     H_    0.611122 0.711415 0.921185 0.247290
C24   C     C_3   0.318061 0.367809 0.046056 -0.913072
H16   H     H_    0.227096 0.305562 0.013869 0.246879
H17   H     H_    0.387721 0.285339 0.078664 0.247338
H18   H     H_    0.247696 0.444166 0.089409 0.255028

loop_
_geom_bond_atom_site_label_1
_geom_bond_atom_site_label_2
_geom_bond_distance
_ccdc_geom_bond_type
C11   C17   1.453609 S    
C23   H14   1.109882 S    
O7    Zn2   1.959719 S    
C18   C23   1.512333 S    
C12   C18   1.453490 S    
C13   C15   1.402447 A    
C12   C14   1.406816 A    
C21   H3    1.108874 S    
O6    C4    1.272665 A    
C23   H15   1.110081 S    
C13   C21   1.513374 S    
C4    C6    1.447373 S    
C24   H16   1.111092 S    
C14   C16   1.402498 A    
C19   C20   1.164542 T    
C22   H7    1.110280 S    
C24   H17   1.110034 S    
C6    C16   1.420167 A    
O10   H10   0.992020 S    
C15   O12   1.383982 S    
O5    C3    1.272687 A    
O7    C3    1.277567 A    
Zn2   N1    1.974354 S    
C3    C5    1.447494 S    
O2    C2    1.261778 A    
O3    Zn2   1.953348 S    
O8    C4    1.277505 A    
Zn1   N2    1.974354 S    
O1    C1    1.261778 A    
H1    C10   1.084600 S    
C5    C7    1.405209 A    
C10   C12   1.391890 A    
N1    N2    1.193825 T    
H2    C9    1.084606 S    
C9    C11   1.392011 A    
O9    H9    0.991833 S    
O2    Zn2   1.952875 S    
C8    C10   1.390371 A    
C11   C13   1.406863 A    
C23   H13   1.111082 S    
C5    C15   1.420010 A    
C2    C20   1.364675 S    
C16   O11   1.384103 S    
O5    Zn1   1.991285 S    
C21   H5    1.110287 S    
O1    Zn1   1.952874 S    
C21   H4    1.110196 S    
O4    C2    1.262045 A    
C8    O10   1.383232 S    
C24   H18   1.109907 S    
C22   H6    1.108895 S    
O12   H12   0.989038 S    
C22   H8    1.110212 S    
O6    Zn2   1.991286 S    
C14   C22   1.513407 S    
C17   C24   1.512260 S    
C7    O9    1.383337 S    
C7    C9    1.390379 A    
C17   C18   1.357898 D    
O11   H11   0.988739 S    
O4    Zn1   1.953349 S    
C6    C8    1.405132 A    
O3    C1    1.262045 A    
O8    Zn1   1.959719 S    
C1    C19   1.364678 S    
