data_mof_unit_14822.cif
_audit_creation_date              2012-12-10T17:43:23-0500
_audit_creation_method            fapswitch 2.2
_symmetry_space_group_name_H-M    P1
_symmetry_Int_Tables_number       1
_space_group_crystal_system       triclinic
_cell_length_a                    15.08469
_cell_length_b                    13.831188
_cell_length_c                    10.669596
_cell_angle_alpha                 90.048853
_cell_angle_beta                  87.594009
_cell_angle_gamma                 90.394426
_cell_volume                      2224.0803176

loop_
_atom_site_label
_atom_site_type_symbol
_atom_type_description
_atom_site_fract_x
_atom_site_fract_y
_atom_site_fract_z
_atom_type_partial_charge
C1    C     C_R   0.328687 0.499697 0.500672 0.803070
C2    C     C_R   0.671326 0.500115 0.502004 0.801892
C3    C     C_R   0.953461 0.498988 0.510113 0.061229
C4    C     C_R   0.046438 0.498912 0.508658 0.063280
C5    C     C_R   0.907552 0.587443 0.516564 0.110370
C6    C     C_R   0.092451 0.410414 0.503477 0.110962
C7    C     C_R   0.952708 0.323042 0.501073 -0.217094
C8    C     C_R   0.047129 0.674966 0.518533 -0.216988
C9    C     C_R   0.045197 0.322878 0.500533 -0.216332
C10   C     C_R   0.954678 0.674957 0.521564 -0.213751
C11   C     C_R   0.440676 0.791786 0.578235 0.299596
C12   C     C_R   0.555418 0.208074 0.416543 0.298049
C13   C     C_R   0.556105 0.795621 0.419451 0.255954
C14   C     C_R   0.443282 0.204476 0.579781 0.248060
C15   C     C_R   0.548255 0.897317 0.406546 -0.046281
C16   C     C_R   0.432858 0.102946 0.566723 -0.046239
C17   C     C_R   0.437918 0.896333 0.581002 -0.088053
C18   C     C_R   0.558629 0.103802 0.415446 -0.080396
C19   C     C_R   0.492854 0.948293 0.492132 -0.040728
C20   C     C_R   0.494365 0.051775 0.490529 -0.038691
C21   C     C_R   0.600720 0.950162 0.316238 0.147297
C22   C     C_R   0.366364 0.050620 0.636301 0.154512
C23   C     C_R   0.380793 0.951823 0.664122 0.158254
C24   C     C_R   0.620138 0.048764 0.339408 0.158811
C25   C     C_R   0.499535 0.499780 0.259873 0.818784
C26   C     C_R   0.500649 0.500159 0.740108 0.817726
C27   C     C_3   0.438919 0.559752 0.044653 0.176564
C28   C     C_3   0.561578 0.439796 0.955220 0.174661
C29   C     C_3   0.518743 0.588160 0.959757 0.200387
C30   C     C_3   0.481793 0.411287 0.040204 0.198737
C31   C     C_3   0.418575 0.471406 0.961194 -0.358412
C32   C     C_3   0.581914 0.528079 0.038761 -0.352130
C33   C     C_3   0.500306 0.500521 0.876078 -0.064720
C34   C     C_3   0.500158 0.499067 0.123877 -0.062075
C35   C     C_R   0.815235 0.586979 0.517060 -0.253554
C36   C     C_R   0.184944 0.411088 0.501221 -0.258817
C37   C     C_R   0.768225 0.499710 0.507033 -0.075381
C38   C     C_R   0.231740 0.499127 0.502916 -0.074847
C39   C     C_R   0.814131 0.411641 0.502706 -0.246563
C40   C     C_R   0.185644 0.586885 0.507810 -0.244332
C41   C     C_R   0.906491 0.410669 0.504907 0.108056
C42   C     C_R   0.093309 0.587409 0.511746 0.103336
Cu1   Cu    Cu3+1 0.500000 0.597420 0.500000 0.952521
Cu2   Cu    Cu3+1 0.500000 0.402580 0.500000 0.950859
H1    H     H_    0.352511 0.448461 0.929451 0.147986
H2    H     H_    0.647988 0.551059 0.070433 0.145099
H3    H     H_    0.780443 0.654753 0.525498 0.143144
H4    H     H_    0.220309 0.343078 0.497648 0.153143
H5    H     H_    0.778234 0.343754 0.497165 0.153465
H6    H     H_    0.221403 0.655019 0.508512 0.158155
H7    H     H_    0.917382 0.254743 0.498512 0.143509
H8    H     H_    0.082504 0.743349 0.521478 0.141371
H9    H     H_    0.079759 0.254418 0.497244 0.144425
H10   H     H_    0.920060 0.743341 0.526620 0.141811
N1    N     N_R   0.500000 0.743810 0.500000 -0.187843
N2    N     N_R   0.500000 0.256190 0.500000 -0.188024
O1    O     O_R   0.370260 0.582280 0.500030 -0.552392
O2    O     O_R   0.629740 0.417720 0.499970 -0.569866
O3    O     O_R   0.629740 0.582280 0.499970 -0.607637
O4    O     O_R   0.370260 0.417720 0.500030 -0.609952
O5    O     O_R   0.499980 0.582260 0.316850 -0.587463
O6    O     O_R   0.500020 0.417740 0.683150 -0.589916
O7    O     O_R   0.500020 0.582260 0.683150 -0.556386
O8    O     O_R   0.499980 0.417740 0.316850 -0.540501
N3    N     N_3   0.373527 0.627774 0.095523 -0.573581
H11   H     H_    0.341439 0.657324 0.019691 0.221280
H12   H     H_    0.325962 0.587862 0.147799 0.207319
N4    N     N_3   0.627053 0.371975 0.904096 -0.579651
H13   H     H_    0.659873 0.343148 0.979725 0.221558
H14   H     H_    0.674033 0.411935 0.850819 0.208325
N5    N     N_3   0.537273 0.685849 0.915068 -0.594181
H15   H     H_    0.546856 0.729032 0.993796 0.223122
H16   H     H_    0.597849 0.684295 0.863900 0.215023
N6    N     N_3   0.463644 0.313396 0.084845 -0.577195
H17   H     H_    0.454205 0.270107 0.006146 0.218951
H18   H     H_    0.403087 0.314718 0.136080 0.217708
N7    N     N_3   0.377999 0.733649 0.648742 -0.528612
H19   H     H_    0.392208 0.733140 0.743480 0.241747
H20   H     H_    0.313618 0.756274 0.632271 0.179603
N8    N     N_3   0.603188 0.265181 0.324501 -0.519937
H21   H     H_    0.669972 0.270585 0.344827 0.212289
H22   H     H_    0.593545 0.237518 0.234905 0.216985
N9    N     N_3   0.633197 0.751355 0.362538 -0.629013
H23   H     H_    0.677978 0.738048 0.431840 0.228875
H24   H     H_    0.617682 0.689362 0.312932 0.261322
N10   N     N_3   0.403937 0.248708 0.689921 -0.629664
H25   H     H_    0.453355 0.263709 0.752854 0.252414
H26   H     H_    0.368348 0.310038 0.668075 0.254057
C43   C     C_3   0.627713 0.905127 0.189466 -0.388163
C44   C     C_3   0.605009 0.969778 0.079186 -0.883745
H27   H     H_    0.534944 0.993632 0.089747 0.261410
H28   H     H_    0.648947 0.034299 0.072852 0.251122
H29   H     H_    0.613992 0.928691 0.990119 0.248917
H30   H     H_    0.699403 0.887315 0.184437 0.204968
H31   H     H_    0.590207 0.836994 0.175110 0.225283
C45   C     C_3   0.276602 0.097012 0.669335 -0.385753
C46   C     C_3   0.198821 0.034982 0.627378 -0.890846
H32   H     H_    0.207215 0.018047 0.525777 0.256456
H33   H     H_    0.193304 0.966517 0.681221 0.249178
H34   H     H_    0.135924 0.075305 0.643297 0.244756
H35   H     H_    0.269222 0.112751 0.771217 0.204917
H36   H     H_    0.270121 0.166753 0.619268 0.217754
C47   C     C_3   0.348531 0.916637 0.793869 -0.418607
C48   C     C_3   0.426846 0.900354 0.877308 -0.846047
H37   H     H_    0.477282 0.852808 0.831387 0.269697
H38   H     H_    0.458982 0.970935 0.896664 0.252397
H39   H     H_    0.403322 0.867287 0.967613 0.257148
H40   H     H_    0.306933 0.971136 0.843849 0.213682
H41   H     H_    0.303969 0.853309 0.791363 0.183498
C49   C     C_3   0.713090 0.085059 0.300761 -0.403501
C50   C     C_3   0.766872 0.108559 0.415382 -0.870123
H42   H     H_    0.733874 0.163576 0.476457 0.247893
H43   H     H_    0.775751 0.042031 0.471653 0.256122
H44   H     H_    0.833307 0.136277 0.383830 0.237208
H45   H     H_    0.751627 0.028840 0.248962 0.212839
H46   H     H_    0.712769 0.145828 0.233925 0.183076

loop_
_geom_bond_atom_site_label_1
_geom_bond_atom_site_label_2
_ccdc_geom_bond_type
C14   N2    A    
C45   H36   S    
C27   C29   S    
C50   H42   S    
Cu1   Cu2   S    
C35   H3    S    
C6    C9    A    
C48   H38   S    
C46   H32   S    
Cu1   O7    S    
C39   C41   A    
C21   C43   S    
N7    H19   S    
Cu2   O8    S    
C15   C19   A    
C17   C23   A    
N6    H18   S    
C18   C24   A    
C28   N4    S    
C8    C42   A    
C29   C32   S    
C30   C31   S    
C30   N6    S    
N10   H26   S    
C29   C33   S    
C43   H30   S    
C49   C50   S    
C11   N7    S    
C23   C47   S    
C19   C20   A    
Cu2   O2    S    
N4    H13   S    
N3    H12   S    
C31   C33   S    
C47   H40   S    
C8    H8    S    
Cu1   O3    S    
C25   C34   S    
C40   C42   A    
C45   H35   S    
C32   H2    S    
C48   H37   S    
C46   H33   S    
N7    H20   S    
C27   C34   S    
N6    H17   S    
C30   C34   S    
C27   C31   S    
C28   C32   S    
C24   C49   S    
C14   N10   S    
C4    C6    A    
C1    O4    A    
N5    H16   S    
N10   H25   S    
C12   N8    S    
Cu2   O6    S    
C25   O8    A    
C32   C34   S    
C43   H31   S    
C26   O7    A    
C27   N3    S    
C1    O1    A    
Cu2   N2    S    
C26   C33   S    
C44   H28   S    
N9    H23   S    
C15   C21   A    
C16   C20   A    
C45   C46   S    
C50   H43   S    
C25   O5    A    
C12   N2    A    
C1    C38   S    
Cu1   N1    S    
N9    H24   S    
C28   C33   S    
C13   C15   A    
C14   C16   A    
C9    H9    S    
C3    C4    A    
C49   H46   S    
C46   H34   S    
C11   N1    A    
Cu1   O5    S    
C44   H29   S    
C35   C37   A    
C7    C9    A    
C3    C41   A    
C16   C22   A    
C39   H5    S    
C2    O3    A    
C22   C45   S    
N8    H21   S    
C3    C5    A    
C11   C17   A    
C2    O2    A    
C13   N9    S    
C47   H41   S    
C28   C30   S    
C26   O6    A    
C7    H7    S    
C5    C10   A    
C37   C39   A    
C38   C40   A    
C2    C37   S    
C44   H27   S    
C4    C42   A    
Cu2   O4    S    
C40   H6    S    
C5    C35   A    
C36   C38   A    
C17   C19   A    
N8    H22   S    
C6    C36   A    
C36   H4    S    
C50   H44   S    
C18   C20   A    
C7    C41   A    
C10   H10   S    
Cu1   O1    S    
N5    H15   S    
C8    C10   A    
N3    H11   S    
C31   H1    S    
C21   C24   A    
C12   C18   A    
C47   C48   S    
N4    H14   S    
C22   C23   A    
C29   N5    S    
C43   C44   S    
C49   H45   S    
C48   H39   S    
C13   N1    A    
