data_mof_unit_56087.cif
_audit_creation_date              2012-12-10T16:44:45-0500
_audit_creation_method            fapswitch 2.2
_symmetry_space_group_name_H-M    P1
_symmetry_Int_Tables_number       1
_space_group_crystal_system       triclinic
_cell_length_a                    15.038938
_cell_length_b                    8.704671
_cell_length_c                    7.596188
_cell_angle_alpha                 103.845444
_cell_angle_beta                  94.758232
_cell_angle_gamma                 95.471133
_cell_volume                      955.345986655

loop_
_atom_site_label
_atom_site_type_symbol
_atom_type_description
_atom_site_fract_x
_atom_site_fract_y
_atom_site_fract_z
_atom_type_partial_charge
C1    C     C_R   0.496993 0.199736 0.452566 0.868776
C2    C     C_R   0.503006 0.800264 0.547434 0.868771
C3    C     C_R   0.026836 0.391260 0.170632 -0.212402
C4    C     C_R   0.973165 0.608754 0.829353 -0.212418
C5    C     C_2   0.495493 0.030700 0.427349 -0.366278
C6    C     C_2   0.504505 0.969300 0.572651 -0.366309
C7    C     C_R   0.329014 0.498818 0.500739 0.796192
C8    C     C_R   0.670986 0.501182 0.499261 0.796190
C9    C     C_R   0.824136 0.555367 0.663373 -0.254541
C10   C     C_R   0.175863 0.444612 0.336628 -0.254534
C11   C     C_R   0.767966 0.502267 0.498430 -0.057799
C12   C     C_R   0.232035 0.497733 0.501568 -0.057807
C13   C     C_R   0.804590 0.448970 0.333943 -0.255982
C14   C     C_R   0.195412 0.551062 0.666046 -0.255992
C15   C     C_R   0.897115 0.447394 0.333425 0.104796
C16   C     C_R   0.102886 0.552635 0.666560 0.104795
C17   C     C_R   0.953443 0.500712 0.499613 0.066500
C18   C     C_R   0.046558 0.499303 0.500376 0.066498
C19   C     C_R   0.916741 0.555316 0.665076 0.103294
C20   C     C_R   0.083259 0.444684 0.334917 0.103290
C21   C     C_R   0.934201 0.392733 0.169856 -0.221951
C22   C     C_R   0.065800 0.607304 0.830122 -0.221954
Cu1   Cu    Cu3+1 0.510010 0.517380 0.684380 0.915335
Cu2   Cu    Cu3+1 0.489990 0.482620 0.315620 0.915333
H1    H     H_    0.795956 0.597435 0.790633 0.152356
H2    H     H_    0.204043 0.402519 0.209373 0.152359
H3    H     H_    0.761150 0.406546 0.206749 0.148686
H4    H     H_    0.238854 0.593506 0.793240 0.148691
H5    H     H_    0.891618 0.351437 0.041487 0.151227
H6    H     H_    0.108384 0.648620 0.958479 0.151234
H7    H     H_    0.054377 0.348663 0.042867 0.154324
H8    H     H_    0.945624 0.651346 0.957117 0.154319
H9    H     H_    0.486861 0.956590 0.288503 0.174777
H10   H     H_    0.513136 0.043410 0.711498 0.174783
N1    N     N_2   0.474890 0.456420 0.038520 -0.106824
N2    N     N_2   0.525110 0.543580 0.961480 -0.106824
O1    O     O_R   0.506510 0.286130 0.619770 -0.594124
O2    O     O_R   0.493490 0.713870 0.380230 -0.594121
O3    O     O_R   0.489600 0.256770 0.308360 -0.601591
O4    O     O_R   0.510400 0.743230 0.691640 -0.601585
O5    O     O_R   0.378710 0.514640 0.655720 -0.618625
O6    O     O_R   0.621290 0.485360 0.344280 -0.618627
O7    O     O_R   0.361800 0.485290 0.344300 -0.598542
O8    O     O_R   0.638200 0.514710 0.655700 -0.598544
C23   C     C_3   0.391231 0.367209 0.938939 -0.058844
C24   C     C_3   0.365981 0.210276 0.991647 -0.390166
C25   C     C_3   0.286919 0.108830 0.863284 -0.937869
H11   H     H_    0.227498 0.175760 0.865898 0.259208
H12   H     H_    0.305119 0.074672 0.721463 0.262481
H13   H     H_    0.268886 0.998238 0.907579 0.263071
H14   H     H_    0.424245 0.140300 0.983407 0.230783
H15   H     H_    0.345237 0.232481 0.130704 0.256015
H16   H     H_    0.335837 0.443076 0.961265 0.145883
H17   H     H_    0.397045 0.326435 0.795187 0.221866
C26   C     C_3   0.608771 0.632786 0.061059 -0.058828
C27   C     C_3   0.634025 0.789719 0.008358 -0.390192
C28   C     C_3   0.713120 0.891115 0.136663 -0.937861
H18   H     H_    0.694991 0.925148 0.278544 0.262476
H19   H     H_    0.772551 0.824202 0.133832 0.259195
H20   H     H_    0.731101 0.001777 0.092473 0.263078
H21   H     H_    0.654739 0.767521 0.869281 0.256049
H22   H     H_    0.575773 0.859723 0.016664 0.230755
H23   H     H_    0.602957 0.673561 0.204811 0.221848
H24   H     H_    0.664162 0.556915 0.038729 0.145898

loop_
_geom_bond_atom_site_label_1
_geom_bond_atom_site_label_2
_ccdc_geom_bond_type
Cu2   O2    S    
C26   C27   S    
C14   C16   A    
C24   H15   S    
C4    C22   A    
C2    O2    A    
N1    N2    D    
Cu1   O5    S    
C1    O1    A    
C9    C11   A    
C6    H10   S    
C26   H24   S    
C10   H2    S    
C7    O5    A    
C17   C18   A    
C23   H16   S    
C3    C20   A    
C25   H12   S    
N2    C26   S    
C2    C6    S    
C23   C24   S    
C3    H7    S    
C11   C13   A    
C8    O8    A    
C28   H18   S    
C4    H8    S    
C10   C12   A    
C8    C11   S    
C1    C5    S    
C26   H23   S    
C17   C19   A    
Cu1   O1    S    
C8    O6    A    
C23   H17   S    
C25   H13   S    
C18   C20   A    
C13   C15   A    
C5    C6    D    
C27   H22   S    
C7    C12   S    
C3    C21   A    
Cu2   N1    S    
C28   H19   S    
C1    O3    A    
Cu1   Cu2   S    
C9    H1    S    
Cu1   O4    S    
N1    C23   S    
C2    O4    A    
C15   C21   A    
Cu2   O3    S    
Cu2   O6    S    
C27   C28   S    
C16   C18   A    
Cu1   N2    S    
C10   C20   A    
C7    O7    A    
C15   C17   A    
Cu2   O7    S    
C27   H21   S    
C13   H3    S    
C28   H20   S    
C16   C22   A    
C22   H6    S    
C14   H4    S    
C24   C25   S    
C4    C19   A    
C21   H5    S    
C24   H14   S    
C9    C19   A    
Cu1   O8    S    
C25   H11   S    
C12   C14   A    
C5    H9    S    
