data_mof_unit_18687.cif
_audit_creation_date              2012-12-11T15:21:38-0500
_audit_creation_method            fapswitch 2.2
_symmetry_space_group_name_H-M    P1
_symmetry_Int_Tables_number       1
_space_group_crystal_system       triclinic
_cell_length_a                    19.185991
_cell_length_b                    7.137748
_cell_length_c                    17.704605
_cell_angle_alpha                 89.999984
_cell_angle_beta                  109.130627
_cell_angle_gamma                 90.0
_cell_volume                      2290.65434759

loop_
_atom_site_label
_atom_site_type_symbol
_atom_type_description
_atom_site_fract_x
_atom_site_fract_y
_atom_site_fract_z
_atom_type_partial_charge
O1    O     O_R   0.562310 0.505770 0.439670 -0.545822
O2    O     O_R   0.437690 0.005770 0.560330 -0.545822
O3    O     O_R   0.411650 0.169150 0.405330 -0.511462
O4    O     O_R   0.588350 0.669150 0.594670 -0.511459
C1    C     C_R   0.384984 0.345424 0.382563 0.673641
C2    C     C_R   0.615016 0.845423 0.617437 0.673636
O5    O     O_R   0.560140 0.175610 0.430010 -0.510482
O6    O     O_R   0.439860 0.675610 0.569990 -0.510482
O7    O     O_R   0.587240 0.012100 0.585200 -0.549868
O8    O     O_R   0.412760 0.512100 0.414800 -0.549870
C3    C     C_R   0.579370 0.344372 0.412794 0.733706
C4    C     C_R   0.420630 0.844372 0.587206 0.733701
O9    O     O_3   0.508720 0.341420 0.550890 -0.355009
O10   O     O_3   0.491280 0.841420 0.449110 -0.355011
V1    V     V_3+5 0.498380 0.063930 0.490560 1.557145
V2    V     V_3+5 0.501620 0.563930 0.509440 1.557147
C5    C     C_R   0.176302 0.755917 0.872720 -0.119138
C6    C     C_R   0.823698 0.255917 0.127280 -0.119142
C7    C     C_R   0.131984 0.915749 0.867335 -0.113665
C8    C     C_R   0.868016 0.415749 0.132665 -0.113663
C9    C     C_R   0.137130 0.063874 0.816919 -0.143398
C10   C     C_R   0.862870 0.563873 0.183081 -0.143395
C11   C     C_R   0.184961 0.051548 0.771526 0.169495
C12   C     C_R   0.815039 0.551547 0.228474 0.169495
C13   C     C_R   0.229471 0.890748 0.777676 -0.003748
C14   C     C_R   0.770529 0.390748 0.222324 -0.003747
C15   C     C_R   0.225363 0.743044 0.828995 -0.049038
C16   C     C_R   0.774637 0.243044 0.171004 -0.049037
C17   C     C_R   0.189012 0.197210 0.719947 -0.157471
C18   C     C_R   0.810988 0.697209 0.280053 -0.157472
C19   C     C_R   0.236568 0.184007 0.674849 -0.183969
C20   C     C_R   0.763432 0.684006 0.325151 -0.183969
C21   C     C_R   0.281212 0.025135 0.680626 0.135182
C22   C     C_R   0.718788 0.525135 0.319375 0.135182
C23   C     C_R   0.278111 0.877815 0.732473 0.002806
C24   C     C_R   0.721889 0.377815 0.267527 0.002806
C25   C     C_R   0.323617 0.718323 0.739546 -0.078660
C26   C     C_R   0.676383 0.218324 0.260454 -0.078661
C27   C     C_R   0.319058 0.573452 0.791949 -0.181058
C28   C     C_R   0.680941 0.073453 0.208051 -0.181057
C29   C     C_R   0.270539 0.585190 0.835786 0.625623
C30   C     C_R   0.729461 0.085191 0.164214 0.625620
C31   C     C_R   0.328261 0.011363 0.634757 -0.235597
C32   C     C_R   0.671739 0.511362 0.365243 -0.235598
C33   C     C_R   0.373535 0.853281 0.639845 -0.151918
C34   C     C_R   0.626465 0.353281 0.360155 -0.151917
C35   C     C_R   0.372470 0.707475 0.694428 0.369268
C36   C     C_R   0.627529 0.207475 0.305572 0.369270
H1    H     H_    0.173305 0.642083 0.912040 0.210630
H2    H     H_    0.826694 0.142083 0.087960 0.210627
H3    H     H_    0.103244 0.187723 0.812153 0.122165
H4    H     H_    0.896756 0.687722 0.187848 0.122165
H5    H     H_    0.155372 0.321683 0.714472 0.109278
H6    H     H_    0.844629 0.821682 0.285528 0.109278
H7    H     H_    0.238573 0.298717 0.635507 0.121571
H8    H     H_    0.761428 0.798716 0.364494 0.121570
H9    H     H_    0.328848 0.124185 0.593952 0.147377
H10   H     H_    0.671153 0.624185 0.406049 0.147376
H11   H     H_    0.352233 0.448097 0.799164 0.224710
H12   H     H_    0.647767 0.948098 0.200836 0.224710
C37   C     C_3   0.788831 0.698938 0.796965 -0.301179
C38   C     C_3   0.211174 0.198941 0.203028 -0.301179
H13   H     H_    0.833377 0.619578 0.783590 0.084732
H14   H     H_    0.166629 0.119568 0.216399 0.084736
H15   H     H_    0.782799 0.635567 0.851905 0.224439
H16   H     H_    0.217209 0.135585 0.148088 0.224443
C39   C     C_3   0.716208 0.672427 0.726478 0.531243
C40   C     C_3   0.283797 0.172430 0.273516 0.531245
H17   H     H_    0.727065 0.581066 0.680597 0.022393
H18   H     H_    0.272940 0.081059 0.319394 0.022397
H19   H     H_    0.866060 0.912359 0.720791 0.152514
H20   H     H_    0.133940 0.412325 0.279208 0.152517
H21   H     H_    0.758946 0.871912 0.615136 0.136512
H22   H     H_    0.241054 0.371883 0.384863 0.136515
C41   C     C_3   0.820043 0.986448 0.733407 -0.436661
C42   C     C_3   0.179955 0.486428 0.266594 -0.436666
C43   C     C_3   0.746489 0.018672 0.826634 0.248902
C44   C     C_3   0.253509 0.518690 0.173370 0.248905
C45   C     C_3   0.811460 0.910659 0.811925 -0.044641
C46   C     C_3   0.188540 0.410659 0.188074 -0.044643
H23   H     H_    0.759883 0.170877 0.831859 0.117753
H24   H     H_    0.240112 0.670893 0.168150 0.117746
C47   C     C_3   0.686213 0.864343 0.688710 -0.050539
C48   C     C_3   0.313787 0.364344 0.311289 -0.050543
C49   C     C_3   0.747489 0.959063 0.661845 -0.447257
C50   C     C_3   0.252510 0.459045 0.338156 -0.447267
C51   C     C_3   0.673542 0.989541 0.755260 -0.265671
C52   C     C_3   0.326456 0.489556 0.244743 -0.265668
H25   H     H_    0.630181 0.925413 0.776020 0.235016
H26   H     H_    0.369819 0.425441 0.223982 0.235018
H27   H     H_    0.652204 0.129145 0.730193 0.168473
H28   H     H_    0.347792 0.629158 0.269814 0.168467
H29   H     H_    0.834567 0.137894 0.740059 0.158729
H30   H     H_    0.165427 0.637872 0.259946 0.158725
H31   H     H_    0.728197 0.098057 0.634491 0.178827
H32   H     H_    0.271798 0.598037 0.365513 0.178823
O11   O     O_R   0.087220 0.271820 0.085230 -0.537536
O12   O     O_R   0.912780 0.771820 0.914770 -0.537533
O13   O     O_R   0.939860 0.595540 0.069990 -0.532339
O14   O     O_R   0.060140 0.095540 0.930010 -0.532341
C53   C     C_R   0.918687 0.426615 0.084779 0.708687
C54   C     C_R   0.081312 0.926615 0.915220 0.708688
O15   O     O_R   0.088340 0.601930 0.094680 -0.544575
O16   O     O_R   0.911660 0.101930 0.905320 -0.544576
O17   O     O_R   0.062310 0.765410 0.939660 -0.542008
O18   O     O_R   0.937690 0.265410 0.060340 -0.542009
C55   C     C_R   0.116180 0.431500 0.117820 0.726931
C56   C     C_R   0.883820 0.931500 0.882180 0.726929
O19   O     O_3   0.991270 0.429630 0.949130 -0.378714
O20   O     O_3   0.008730 0.929630 0.050870 -0.378714
V3    V     V_3+5 0.001620 0.707150 0.009440 1.452286
V4    V     V_3+5 0.998380 0.207150 0.990560 1.452280
F1    F     F_    0.664584 0.582665 0.753310 -0.638644
F2    F     F_    0.335423 0.082684 0.246684 -0.638637
Cl1   Cl    Cl    0.734023 0.951846 0.919107 -0.533265
Cl2   Cl    Cl    0.265977 0.451892 0.080895 -0.533271
Cl3   Cl    Cl    0.435026 0.516581 0.710767 -0.578917
Cl4   Cl    Cl    0.564973 0.016582 0.289232 -0.578908
F3    F     F_    0.267892 0.441160 0.884916 -0.627775
F4    F     F_    0.732108 0.941160 0.115083 -0.627773

loop_
_geom_bond_atom_site_label_1
_geom_bond_atom_site_label_2
_ccdc_geom_bond_type
C47   C51   S    
C39   C47   S    
C28   H12   S    
C51   H27   S    
O1    C3    A    
C9    H3    S    
H20   C42   S    
O2    C4    A    
C2    O7    A    
C27   C29   A    
O18   V4    S    
O5    C3    A    
C18   H6    S    
C46   C55   S    
C41   H29   S    
C11   C17   A    
C38   C46   S    
C23   C25   A    
C12   C14   A    
C7    C54   S    
C44   C46   S    
O12   C56   A    
C54   O17   A    
O15   V3    S    
C33   C35   A    
C37   H13   S    
C37   C39   S    
O20   V3    S    
C38   H14   S    
C42   H30   S    
C51   H25   S    
C41   C49   S    
C52   H28   S    
C32   H10   S    
C15   C29   A    
C19   C21   A    
C2    C47   S    
C25   C35   A    
C26   C36   A    
O5    V1    S    
O17   V3    S    
O13   V3    S    
O6    V2    S    
C32   C34   A    
C43   C45   S    
C34   C36   A    
H19   C41   S    
C38   H16   S    
C5    C15   A    
C42   C46   S    
C6    C16   A    
O4    C2    A    
O19   V4    S    
C5    H1    S    
O16   V4    S    
O11   V4    S    
C5    C7    A    
C36   Cl4   S    
C8    C53   S    
C20   C22   A    
H22   C50   S    
C39   H17   S    
C40   C48   S    
O4    V2    S    
C18   C20   A    
C44   H24   S    
C28   C30   A    
C43   H23   S    
O6    C4    A    
C27   H11   S    
O14   C54   A    
C22   C32   A    
O1    V2    S    
C29   F3    S    
O2    V1    S    
C31   C33   A    
H21   C49   S    
C50   H32   S    
C13   C23   A    
C14   C24   A    
O13   C53   A    
C52   H26   S    
O14   V4    S    
C9    C11   A    
C10   C12   A    
C42   C50   S    
O16   C56   A    
O3    V1    S    
C6    H2    S    
C10   H4    S    
C44   C52   S    
C53   O18   A    
C1    C48   S    
O12   V3    S    
C47   C49   S    
C44   Cl2   S    
C48   C52   S    
C8    C10   A    
C4    C33   S    
O3    C1    A    
C6    C8    A    
C13   C15   A    
C14   C16   A    
C38   C40   S    
C24   C26   A    
C39   F1    S    
C1    O8    A    
C25   C27   A    
O8    V2    S    
C26   C28   A    
C49   H31   S    
C30   F4    S    
C17   H5    S    
C37   C45   S    
C16   C30   A    
C21   C23   A    
C45   C56   S    
C22   C24   A    
C11   C13   A    
O7    V1    S    
C12   C18   A    
C31   H9    S    
O11   C55   A    
C37   H15   S    
C35   Cl3   S    
C43   C51   S    
C17   C19   A    
O9    V2    S    
C40   H18   S    
O10   V1    S    
C48   C50   S    
C3    C34   S    
O15   C55   A    
C19   H7    S    
C43   Cl1   S    
C21   C31   A    
C41   C45   S    
C20   H8    S    
C40   F2    S    
C7    C9    A    
