data_mof_unit_12944.cif
_audit_creation_date              2012-12-11T14:49:43-0500
_audit_creation_method            fapswitch 2.2
_symmetry_space_group_name_H-M    P1
_symmetry_Int_Tables_number       1
_space_group_crystal_system       triclinic
_cell_length_a                    10.950412
_cell_length_b                    10.950526
_cell_length_c                    18.879571
_cell_angle_alpha                 89.999542
_cell_angle_beta                  90.000629
_cell_angle_gamma                 120.000213
_cell_volume                      1960.59215822

loop_
_atom_site_label
_atom_site_type_symbol
_atom_type_description
_atom_site_fract_x
_atom_site_fract_y
_atom_site_fract_z
_atom_type_partial_charge
C1    C     C_R   0.529309 0.467727 0.646498 0.570842
C2    C     C_R   0.462948 0.530425 0.355401 0.578002
C3    C     C_R   0.470676 0.938392 0.146491 0.570981
C4    C     C_R   0.067526 0.537082 0.355413 0.577957
C5    C     C_R   0.420531 0.054704 0.532269 -0.142529
C6    C     C_R   0.584566 0.619182 0.959484 -0.140312
C7    C     C_R   0.945631 0.365876 0.532312 -0.142290
C8    C     C_R   0.380790 0.965201 0.959460 -0.140251
C9    C     C_R   0.634161 0.579575 0.532287 -0.142394
C10   C     C_R   0.034449 0.415289 0.959507 -0.140109
C11   C     C_R   0.054554 0.420417 0.032287 -0.142431
C12   C     C_R   0.932514 0.469574 0.855404 0.577999
C13   C     C_R   0.619187 0.584700 0.459504 -0.140103
C14   C     C_R   0.365797 0.945030 0.032238 -0.142699
C15   C     C_R   0.965721 0.380851 0.459530 -0.140047
C16   C     C_R   0.579396 0.634175 0.032261 -0.142635
C17   C     C_R   0.415374 0.034560 0.459490 -0.140219
C18   C     C_R   0.481731 0.965992 0.430129 -0.009751
C19   C     C_R   0.508381 0.513937 0.075651 0.001795
C20   C     C_R   0.034043 0.515781 0.430141 -0.009990
C21   C     C_R   0.486030 0.994379 0.075639 0.001975
C22   C     C_R   0.484264 0.518222 0.430125 -0.009720
C23   C     C_R   0.532277 0.061592 0.646495 0.570886
C24   C     C_R   0.005519 0.491627 0.075657 0.001829
C25   C     C_R   0.966035 0.481791 0.930127 -0.009644
C26   C     C_R   0.513906 0.508377 0.575656 0.001728
C27   C     C_R   0.515718 0.033956 0.930119 -0.009321
C28   C     C_R   0.994559 0.486140 0.575672 0.001559
C29   C     C_R   0.518285 0.484250 0.930132 -0.009664
C30   C     C_R   0.491622 0.005552 0.575652 0.001667
C31   C     C_R   0.547490 0.911929 0.474233 0.394984
C32   C     C_R   0.450287 0.379318 0.046500 0.409381
C33   C     C_R   0.087905 0.635652 0.474226 0.394839
C34   C     C_R   0.530438 0.462939 0.855405 0.577968
C35   C     C_R   0.620642 0.070986 0.046497 0.409513
C36   C     C_R   0.364411 0.452304 0.474216 0.394963
C37   C     C_R   0.929234 0.549972 0.046478 0.409340
C38   C     C_R   0.912118 0.547725 0.974219 0.395014
C39   C     C_R   0.379278 0.450035 0.546474 0.409230
C40   C     C_R   0.635529 0.088163 0.974240 0.395165
C41   C     C_R   0.070771 0.620787 0.546485 0.409136
C42   C     C_R   0.452615 0.364426 0.974243 0.395069
C43   C     C_R   0.549804 0.929114 0.546490 0.409257
C44   C     C_R   0.938440 0.470700 0.646504 0.570770
C45   C     C_R   0.537043 0.067467 0.855396 0.578071
C46   C     C_R   0.467724 0.529316 0.146495 0.570937
C47   C     C_R   0.469568 0.932516 0.355403 0.577973
C48   C     C_R   0.061578 0.532272 0.146499 0.570867
Cr1   Cr    Cr6+3 0.776430 0.541680 0.750000 1.128084
Cr2   Cr    Cr6+3 0.765250 0.223570 0.750000 1.127931
Cr3   Cr    Cr6+3 0.458320 0.234750 0.750000 1.128063
Cr4   Cr    Cr6+3 0.541680 0.776430 0.250000 1.127988
Cr5   Cr    Cr6+3 0.223570 0.765250 0.250000 1.128122
Cr6   Cr    Cr6+3 0.234750 0.458320 0.250000 1.127984
F1    F     F_    0.610066 0.841876 0.447633 -0.588568
F2    F     F_    0.122925 0.738291 0.587551 -0.573721
F3    F     F_    0.390145 0.231785 0.947652 -0.588515
F4    F     F_    0.614917 0.876750 0.587582 -0.573867
F5    F     F_    0.385252 0.261864 0.087601 -0.573811
F6    F     F_    0.157706 0.768325 0.447609 -0.588292
F7    F     F_    0.738091 0.123522 0.087611 -0.573927
F8    F     F_    0.231746 0.389493 0.447604 -0.588453
F9    F     F_    0.876957 0.615186 0.087559 -0.573713
F10   F     F_    0.842270 0.610543 0.947609 -0.588314
F11   F     F_    0.261786 0.384788 0.587546 -0.573837
F12   F     F_    0.768165 0.158341 0.947650 -0.588690
H1    H     H_    0.375913 0.115451 0.553940 0.186192
H2    H     H_    0.926772 0.288082 0.426300 0.180351
H3    H     H_    0.623941 0.739539 0.053924 0.185979
H4    H     H_    0.361758 0.073690 0.426240 0.180161
H5    H     H_    0.638119 0.711920 0.926229 0.179976
H6    H     H_    0.885092 0.260483 0.554003 0.186333
H7    H     H_    0.288058 0.925934 0.926196 0.179827
H8    H     H_    0.739538 0.624318 0.553972 0.186271
H9    H     H_    0.073450 0.361542 0.926270 0.180100
H10   H     H_    0.115164 0.375656 0.053973 0.186135
H11   H     H_    0.711947 0.638419 0.426267 0.180198
H12   H     H_    0.260446 0.884128 0.053897 0.185935
O1    O     O_R   0.916700 0.566820 0.669930 -0.460620
O2    O     O_R   0.566820 0.916700 0.330070 -0.452310
O3    O     O_R   0.083300 0.650120 0.169930 -0.460692
O4    O     O_R   0.349880 0.433180 0.330070 -0.452275
O5    O     O_R   0.649840 0.534790 0.674920 -0.513221
O6    O     O_R   0.884950 0.350160 0.825080 -0.462911
O7    O     O_R   0.465210 0.115050 0.674920 -0.513213
O8    O     O_R   0.649840 0.534790 0.825080 -0.462958
O9    O     O_R   0.884950 0.350160 0.674920 -0.513290
O10   O     O_R   0.465210 0.115050 0.825080 -0.462829
O11   O     O_R   0.534790 0.649840 0.174920 -0.513213
O12   O     O_R   0.650120 0.083300 0.830070 -0.452464
O13   O     O_R   0.350160 0.884950 0.325080 -0.462987
O14   O     O_R   0.115050 0.465210 0.174920 -0.513233
O15   O     O_R   0.534790 0.649840 0.325080 -0.462938
O16   O     O_R   0.350160 0.884950 0.174920 -0.513142
O17   O     O_R   0.115050 0.465210 0.325080 -0.463041
O18   O     O_3   0.666667 0.333333 0.750000 -0.316025
O19   O     O_3   0.333333 0.666667 0.250000 -0.316117
O20   O     O_R   0.433180 0.349880 0.669930 -0.460674
O21   O     O_R   0.916700 0.566820 0.830070 -0.452340
O22   O     O_R   0.650120 0.083300 0.669930 -0.460728
O23   O     O_R   0.433180 0.349880 0.830070 -0.452425
O24   O     O_R   0.566820 0.916700 0.169930 -0.460839
O25   O     O_R   0.083300 0.650120 0.330070 -0.452259
O26   O     O_R   0.349880 0.433180 0.169930 -0.460767

loop_
_geom_bond_atom_site_label_1
_geom_bond_atom_site_label_2
_ccdc_geom_bond_type
C29   C42   A    
Cr4   O19   S    
C5    H1    S    
C18   C47   S    
Cr3   O7    S    
C19   C46   S    
Cr2   O6    S    
C46   O11   A    
Cr4   O24   S    
C31   C43   A    
C14   C21   A    
Cr6   O26   S    
C11   H10   S    
C26   C39   A    
C5    C17   A    
C4    O25   A    
C11   C24   A    
C48   O3    A    
C12   O6    A    
Cr5   O3    S    
C34   O8    A    
C9    C13   A    
C12   O21   A    
C43   F4    S    
Cr2   O12   S    
Cr5   O13   S    
Cr6   O19   S    
C44   O9    A    
C2    O15   A    
Cr3   O18   S    
C27   C45   S    
Cr3   O20   S    
C7    C15   A    
C23   O22   A    
C17   H4    S    
C40   F12   S    
C39   F11   S    
Cr4   O11   S    
C6    H5    S    
C47   O2    A    
C36   F8    S    
C19   C32   A    
C42   F3    S    
C37   F9    S    
C9    C26   A    
C24   C37   A    
C38   F10   S    
C36   C39   A    
C15   C20   A    
C13   H11   S    
C34   O23   A    
C24   C48   S    
C23   C30   S    
C45   O10   A    
C7    H6    S    
Cr5   O19   S    
C46   O26   A    
C29   C34   S    
C28   C44   S    
C7    C28   A    
Cr1   O1    S    
C1    O20   A    
C41   F2    S    
Cr6   O14   S    
C37   C38   A    
C25   C38   A    
Cr1   O21   S    
C4    O17   A    
C10   H9    S    
C27   C40   A    
C17   C18   A    
Cr4   O15   S    
C35   F7    S    
C45   O12   A    
Cr6   O17   S    
Cr2   O9    S    
C20   C33   A    
C3    O24   A    
C33   F6    S    
C23   O7    A    
C1    C26   S    
C30   C43   A    
C2    O4    A    
Cr3   O23   S    
C9    H8    S    
Cr6   O4    S    
C10   C25   A    
C5    C30   A    
C8    C14   A    
Cr5   O16   S    
C47   O13   A    
Cr1   O8    S    
C44   O1    A    
C16   H3    S    
Cr3   O10   S    
C21   C35   A    
C1    O5    A    
C22   C36   A    
Cr2   O22   S    
C12   C25   S    
C33   C41   A    
Cr1   O5    S    
C35   C40   A    
C2    C22   S    
Cr2   O18   S    
Cr5   O25   S    
C16   C19   A    
C15   H2    S    
C8    H7    S    
C13   C22   A    
C3    O16   A    
C14   H12   S    
Cr1   O18   S    
C3    C21   S    
C10   C11   A    
C6    C16   A    
C4    C20   S    
C6    C29   A    
C48   O14   A    
C8    C27   A    
C32   C42   A    
C18   C31   A    
C32   F5    S    
C31   F1    S    
Cr4   O2    S    
C28   C41   A    
