data_mof_unit_17554.cif
_audit_creation_date              2012-12-10T19:06:30-0500
_audit_creation_method            fapswitch 2.2
_symmetry_space_group_name_H-M    P1
_symmetry_Int_Tables_number       1
_space_group_crystal_system       triclinic
_cell_length_a                    23.514165
_cell_length_b                    10.827359
_cell_length_c                    9.528901
_cell_angle_alpha                 89.946562
_cell_angle_beta                  90.205624
_cell_angle_gamma                 90.240829
_cell_volume                      2425.98492024

loop_
_atom_site_label
_atom_site_type_symbol
_atom_type_description
_atom_site_fract_x
_atom_site_fract_y
_atom_site_fract_z
_atom_type_partial_charge
C1    C     C_R   0.500695 0.262350 0.500042 0.806290
C2    C     C_R   0.970305 0.281460 0.470303 -0.160655
C3    C     C_R   0.029642 0.281988 0.472087 -0.161563
C4    C     C_R   0.059867 0.392948 0.491239 -0.015684
C5    C     C_R   0.029866 0.504151 0.509204 -0.017808
C6    C     C_R   0.059742 0.615989 0.528175 -0.015815
C7    C     C_R   0.029405 0.726299 0.546408 -0.161254
C8    C     C_R   0.970070 0.725669 0.545493 -0.160732
C9    C     C_R   0.119523 0.395966 0.492003 0.534503
C10   C     C_R   0.119390 0.614431 0.527995 0.535501
C11   C     C_R   0.237126 0.556600 0.390695 -0.144056
C12   C     C_R   0.390933 0.503146 0.499689 0.788563
C13   C     C_R   0.296682 0.559267 0.385876 -0.040079
C14   C     C_R   0.328226 0.508657 0.499659 -0.081467
C15   C     C_R   0.299011 0.460054 0.615958 -0.248555
C16   C     C_R   0.239844 0.459053 0.619250 -0.103206
C17   C     C_R   0.208806 0.506844 0.506572 0.345451
C18   C     C_R   0.761063 0.509408 0.629399 -0.102826
C19   C     C_R   0.701785 0.508511 0.628592 -0.214424
C20   C     C_R   0.671727 0.500819 0.501027 -0.038491
C21   C     C_R   0.702090 0.493720 0.374439 -0.217257
C22   C     C_R   0.761404 0.493975 0.375667 -0.102233
C23   C     C_R   0.500506 0.737793 0.499967 0.793411
C24   C     C_R   0.790976 0.501969 0.503072 0.363215
C25   C     C_R   0.502339 0.063790 0.626065 0.141403
C26   C     C_R   0.505493 0.129383 0.500278 -0.099271
C27   C     C_R   0.515504 0.064823 0.375047 -0.208716
C28   C     C_R   0.515188 0.936200 0.375104 -0.220910
C29   C     C_R   0.505036 0.871103 0.500261 -0.099662
C30   C     C_R   0.502156 0.936560 0.626181 0.133159
C31   C     C_3   0.458469 0.930568 0.739555 -0.486003
C32   C     C_3   0.458802 0.070658 0.739418 -0.465335
C33   C     C_R   0.546573 0.540264 0.073915 0.254983
C34   C     C_R   0.609107 0.500271 0.500221 0.803319
C35   C     C_R   0.456751 0.447278 0.074173 -0.056371
C36   C     C_R   0.456710 0.447384 0.925210 -0.084961
C37   C     C_R   0.546678 0.539767 0.926522 0.256619
C38   C     C_3   0.573586 0.664377 0.919788 -0.497578
C39   C     C_3   0.572897 0.665601 0.079101 -0.500314
C40   C     C_R   0.880203 0.611883 0.524159 0.533763
C41   C     C_R   0.880313 0.393676 0.486256 0.534592
C42   C     C_R   0.939966 0.391848 0.487895 -0.015718
C43   C     C_R   0.969848 0.503568 0.507817 -0.017398
C44   C     C_R   0.939851 0.614746 0.526094 -0.015338
Cu1   Cu    Cu3+1 0.500000 0.499980 0.640670 0.939100
Cu2   Cu    Cu3+1 0.500000 0.500020 0.359330 0.947231
H1    H     H_    0.948329 0.194358 0.455040 0.190195
H2    H     H_    0.679586 0.513989 0.727726 0.151111
H3    H     H_    0.680096 0.487651 0.274612 0.153204
H4    H     H_    0.784451 0.488335 0.277719 0.137378
H5    H     H_    0.521092 0.113050 0.276380 0.166290
H6    H     H_    0.520437 0.888637 0.276521 0.152232
H7    H     H_    0.417521 0.889770 0.703074 0.198395
H8    H     H_    0.475666 0.890953 0.838406 0.188097
H9    H     H_    0.418041 0.111585 0.702856 0.197427
H10   H     H_    0.476403 0.111119 0.837664 0.199407
H11   H     H_    0.421285 0.406515 0.129578 0.147681
H12   H     H_    0.051707 0.195283 0.458063 0.189806
H13   H     H_    0.421199 0.406662 0.869395 0.135081
H14   H     H_    0.617208 0.661039 0.875529 0.195280
H15   H     H_    0.545397 0.734833 0.871924 0.214588
H16   H     H_    0.616093 0.664324 0.126821 0.198598
H17   H     H_    0.543622 0.735844 0.122233 0.206566
H18   H     H_    0.051378 0.813458 0.561258 0.189810
H19   H     H_    0.948004 0.812345 0.559735 0.190211
H20   H     H_    0.212432 0.594712 0.304811 0.144768
H21   H     H_    0.321999 0.420832 0.703955 0.147457
H22   H     H_    0.218019 0.420833 0.709363 0.141909
H23   H     H_    0.783834 0.515466 0.728148 0.137010
N1    N     N_R   0.851870 0.502544 0.504295 -0.472495
N2    N     N_R   0.147882 0.505602 0.509728 -0.467723
N3    N     N_R   0.500360 0.500930 0.147930 -0.184829
N4    N     N_R   0.500360 0.500890 0.852020 -0.184877
O1    O     O_R   0.500000 0.319640 0.618810 -0.576434
O2    O     O_2   0.850904 0.287637 0.467531 -0.527643
O3    O     O_2   0.149004 0.290554 0.473823 -0.533136
O4    O     O_2   0.148752 0.720591 0.546329 -0.532359
O5    O     O_R   0.500010 0.319680 0.381230 -0.585375
O6    O     O_R   0.417880 0.499940 0.618820 -0.590307
O7    O     O_R   0.417880 0.499980 0.381240 -0.573301
O8    O     O_R   0.499990 0.680320 0.618770 -0.578572
O9    O     O_R   0.500000 0.680360 0.381190 -0.583121
O10   O     O_R   0.582120 0.500020 0.618760 -0.581867
O11   O     O_R   0.582120 0.500060 0.381180 -0.583259
O12   O     O_2   0.850692 0.717395 0.541278 -0.528685
C45   C     C_R   0.323959 0.618430 0.262704 0.125253
C46   C     C_R   0.312659 0.573998 0.126845 -0.173570
C47   C     C_R   0.338452 0.629126 0.010475 -0.134509
C48   C     C_R   0.375620 0.728843 0.028779 -0.100292
C49   C     C_R   0.386569 0.774692 0.163277 -0.118933
C50   C     C_R   0.360524 0.720472 0.279931 -0.066206
H24   H     H_    0.284400 0.495911 0.111292 0.133055
H25   H     H_    0.329984 0.593937 0.906167 0.138360
H26   H     H_    0.395818 0.770547 0.938654 0.127152
H27   H     H_    0.415176 0.852321 0.177104 0.123101
H28   H     H_    0.369183 0.757160 0.383593 0.100649

loop_
_geom_bond_atom_site_label_1
_geom_bond_atom_site_label_2
_ccdc_geom_bond_type
C46   C47   A    
C23   O9    A    
C28   H6    S    
C41   C42   A    
C35   C36   A    
C36   H13   S    
C18   H23   S    
C21   H3    S    
C24   N1    S    
C7    C8    A    
Cu1   Cu2   S    
C26   C27   A    
C29   C30   A    
C40   N1    A    
C18   C24   A    
C1    O1    A    
C23   C29   S    
C28   C29   A    
C45   C50   A    
C30   C31   S    
C15   C16   A    
C12   O6    A    
Cu1   N4    S    
C18   C19   A    
C48   H26   S    
C33   N3    A    
C50   H28   S    
Cu2   O9    S    
C19   C20   A    
C16   C17   A    
C13   C45   S    
C16   H22   S    
C9    O3    S    
C32   H9    S    
Cu2   N3    S    
C11   H20   S    
C22   H4    S    
C38   H15   S    
C20   C34   S    
C10   N2    A    
C25   C32   S    
C5    C43   A    
C8    H19   S    
C13   C14   A    
C1    O5    A    
Cu1   O10   S    
C34   O11   A    
C10   O4    S    
C27   H5    S    
C38   C39   S    
C8    C44   A    
C49   H27   S    
Cu2   O5    S    
C19   H2    S    
C25   C26   A    
C33   C37   A    
Cu1   O1    S    
C40   O12   S    
C43   C44   A    
C37   C38   S    
C41   O2    S    
C31   C32   S    
C15   H21   S    
C20   C21   A    
Cu1   O6    S    
C33   C39   S    
C31   H7    S    
C38   H14   S    
C12   C14   S    
C35   N3    A    
C17   N2    S    
C1    C26   S    
Cu2   O11   S    
C42   C43   A    
C3    C4    A    
C46   H24   S    
C25   C30   A    
C39   H16   S    
C37   N4    A    
C47   H25   S    
C11   C17   A    
C23   O8    A    
C45   C46   A    
Cu1   O8    S    
C9    N2    A    
C4    C5    A    
C6    C10   A    
C6    C7    A    
C2    H1    S    
C39   H17   S    
C35   H11   S    
C2    C3    A    
C4    C9    A    
Cu2   O7    S    
C11   C13   A    
C49   C50   A    
C5    C6    A    
C2    C42   A    
C12   O7    A    
C22   C24   A    
C31   H8    S    
C7    H18   S    
C36   N4    A    
C3    H12   S    
C40   C44   A    
C47   C48   A    
C34   O10   A    
C27   C28   A    
C14   C15   A    
C48   C49   A    
C21   C22   A    
C32   H10   S    
C41   N1    A    
