data_mof_unit_22031.cif
_audit_creation_date              2012-12-10T17:09:21-0500
_audit_creation_method            fapswitch 2.2
_symmetry_space_group_name_H-M    P1
_symmetry_Int_Tables_number       1
_space_group_crystal_system       triclinic
_cell_length_a                    18.302727
_cell_length_b                    18.616892
_cell_length_c                    11.658211
_cell_angle_alpha                 90.000672
_cell_angle_beta                  76.664986
_cell_angle_gamma                 90.000018
_cell_volume                      3865.31365203

loop_
_atom_site_label
_atom_site_type_symbol
_atom_type_description
_atom_site_fract_x
_atom_site_fract_y
_atom_site_fract_z
_atom_type_partial_charge
C1    C     C_R   0.396432 0.097203 0.521324 0.827651
C2    C     C_R   0.601101 0.900467 0.478782 0.820198
C3    C     C_R   0.603570 0.097202 0.478677 0.827644
C4    C     C_R   0.398899 0.900468 0.521217 0.820214
C5    C     C_R   0.898899 0.599533 0.521218 0.820199
C6    C     C_R   0.103568 0.402797 0.478676 0.827651
C7    C     C_R   0.101101 0.599532 0.478783 0.820214
C8    C     C_R   0.896430 0.402798 0.521323 0.827645
C9    C     C_R   0.535956 0.999624 0.962105 0.069684
C10   C     C_R   0.464044 0.999626 0.037895 0.069685
C11   C     C_R   0.035956 0.500374 0.962105 0.069685
C12   C     C_R   0.964044 0.500376 0.037895 0.069684
C13   C     C_R   0.410477 0.000339 0.865164 0.089693
C14   C     C_R   0.589523 0.000336 0.134836 0.089692
C15   C     C_R   0.910477 0.499664 0.865164 0.089691
C16   C     C_R   0.089523 0.499661 0.134836 0.089694
C17   C     C_R   0.400967 0.999935 0.988420 -0.342444
C18   C     C_R   0.599033 0.999931 0.011580 -0.342444
C19   C     C_R   0.900967 0.500069 0.988420 -0.342443
C20   C     C_R   0.099033 0.500065 0.011580 -0.342445
C21   C     C_R   0.542724 0.999266 0.838645 0.021046
C22   C     C_R   0.457275 0.999268 0.161354 0.021054
C23   C     C_R   0.042724 0.500732 0.838646 0.021055
C24   C     C_R   0.957275 0.500734 0.161355 0.021045
C25   C     C_R   0.663451 0.150691 0.467024 -0.118906
C26   C     C_R   0.343655 0.842764 0.532857 -0.100698
C27   C     C_R   0.336554 0.150696 0.532978 -0.118901
C28   C     C_R   0.656348 0.842766 0.467139 -0.100711
C29   C     C_R   0.156344 0.657237 0.467144 -0.100699
C30   C     C_R   0.836549 0.349309 0.532976 -0.118906
C31   C     C_R   0.843652 0.657234 0.532861 -0.100711
C32   C     C_R   0.163447 0.349305 0.467021 -0.118901
C33   C     C_R   0.293336 0.732414 0.628879 0.192160
C34   C     C_R   0.745763 0.235046 0.342160 0.190188
C35   C     C_R   0.706673 0.732419 0.371107 0.192183
C36   C     C_R   0.254264 0.235072 0.657834 0.190197
C37   C     C_R   0.754237 0.264954 0.657840 0.190188
C38   C     C_R   0.206661 0.767588 0.371123 0.192162
C39   C     C_R   0.245738 0.264930 0.342164 0.190196
C40   C     C_R   0.793327 0.767581 0.628893 0.192183
C41   C     C_R   0.343446 0.789543 0.616646 -0.257880
C42   C     C_R   0.691131 0.182109 0.357094 -0.255901
C43   C     C_R   0.656566 0.789550 0.383336 -0.257865
C44   C     C_R   0.308892 0.182131 0.642900 -0.255905
C45   C     C_R   0.808869 0.317891 0.642906 -0.255901
C46   C     C_R   0.156552 0.710458 0.383355 -0.257876
C47   C     C_R   0.191110 0.317870 0.357099 -0.255906
C48   C     C_R   0.843434 0.710450 0.616664 -0.257865
C49   C     C_R   0.289880 0.842024 0.464280 0.134888
C50   C     C_R   0.694723 0.169259 0.562887 0.136041
C51   C     C_R   0.710115 0.842022 0.535730 0.134912
C52   C     C_R   0.305268 0.169251 0.437124 0.136051
C53   C     C_R   0.805277 0.330741 0.437113 0.136041
C54   C     C_R   0.210118 0.657977 0.535721 0.134886
C55   C     C_R   0.194733 0.330751 0.562874 0.136053
C56   C     C_R   0.789885 0.657978 0.464270 0.134912
C57   C     C_R   0.249025 0.778030 0.458143 0.055242
C58   C     C_R   0.736972 0.233215 0.556230 0.056060
C59   C     C_R   0.750970 0.778028 0.541864 0.055207
C60   C     C_R   0.263020 0.233208 0.443773 0.056053
C61   C     C_R   0.763028 0.266785 0.443770 0.056059
C62   C     C_R   0.250972 0.721972 0.541860 0.055247
C63   C     C_R   0.236982 0.266795 0.556226 0.056053
C64   C     C_R   0.749030 0.721972 0.458136 0.055207
Cu1   Cu    Cu3+1 0.507800 0.000000 0.383250 0.936022
Cu2   Cu    Cu3+1 0.492200 0.000000 0.616750 0.936021
Cu3   Cu    Cu3+1 0.007800 0.500000 0.383250 0.936021
Cu4   Cu    Cu3+1 0.992200 0.500000 0.616750 0.936022
H1    H     H_    0.638407 0.000752 0.172205 0.123970
H2    H     H_    0.361593 0.000757 0.827796 0.123973
H3    H     H_    0.138407 0.499243 0.172204 0.123973
H4    H     H_    0.861593 0.499248 0.827795 0.123970
H5    H     H_    0.402326 0.998264 0.220367 0.115900
H6    H     H_    0.597674 0.998260 0.779633 0.115914
H7    H     H_    0.902326 0.501740 0.220367 0.115914
H8    H     H_    0.097673 0.501735 0.779633 0.115897
H9    H     H_    0.672867 0.162854 0.280475 0.176055
H10   H     H_    0.380657 0.794169 0.676483 0.171247
H11   H     H_    0.327170 0.162889 0.719514 0.176056
H12   H     H_    0.619360 0.794180 0.323491 0.171236
H13   H     H_    0.119341 0.705831 0.323519 0.171245
H14   H     H_    0.827133 0.337146 0.719525 0.176055
H15   H     H_    0.880640 0.705820 0.676508 0.171237
H16   H     H_    0.172831 0.337113 0.280485 0.176057
H17   H     H_    0.344795 0.000044 0.044436 0.138567
H18   H     H_    0.655205 0.000038 0.955564 0.138566
H19   H     H_    0.844795 0.499962 0.044436 0.138566
H20   H     H_    0.155204 0.499955 0.955564 0.138568
N1    N     N_R   0.519530 0.000000 0.207810 -0.179758
N2    N     N_R   0.480470 0.000000 0.792190 -0.179759
N3    N     N_R   0.019530 0.500000 0.207810 -0.179759
N4    N     N_R   0.980470 0.500000 0.792190 -0.179758
O1    O     O_R   0.430030 0.075530 0.417420 -0.574691
O2    O     O_R   0.569970 0.924470 0.582580 -0.578095
O3    O     O_R   0.569970 0.075530 0.582580 -0.574698
O4    O     O_R   0.430030 0.924470 0.417420 -0.578105
O5    O     O_R   0.930030 0.575530 0.417420 -0.578095
O6    O     O_R   0.069970 0.424470 0.582580 -0.574691
O7    O     O_R   0.069970 0.575530 0.582580 -0.578106
O8    O     O_R   0.930030 0.424470 0.417420 -0.574698
O9    O     O_R   0.416860 0.075510 0.614610 -0.595424
O10   O     O_R   0.583140 0.924490 0.385390 -0.594757
O11   O     O_R   0.583140 0.075510 0.385390 -0.595420
O12   O     O_R   0.416860 0.924490 0.614610 -0.594754
O13   O     O_R   0.916860 0.575510 0.614610 -0.594757
O14   O     O_R   0.083140 0.424490 0.385390 -0.595424
O15   O     O_R   0.083140 0.575510 0.385390 -0.594754
O16   O     O_R   0.916860 0.424490 0.614610 -0.595420
C65   C     C_3   0.696155 0.114381 0.658390 -0.839998
H21   H     H_    0.749777 0.116992 0.687159 0.228321
H22   H     H_    0.647537 0.121517 0.734263 0.242631
H23   H     H_    0.694862 0.059265 0.624093 0.223185
C66   C     C_3   0.266154 0.913237 0.421821 -0.857499
H24   H     H_    0.205172 0.913933 0.425050 0.237937
H25   H     H_    0.273975 0.956942 0.482613 0.207973
H26   H     H_    0.299457 0.925766 0.332017 0.231822
C67   C     C_3   0.303822 0.114359 0.341646 -0.840018
H27   H     H_    0.250187 0.116957 0.312911 0.228322
H28   H     H_    0.352425 0.121494 0.265750 0.242624
H29   H     H_    0.305131 0.059248 0.375953 0.223194
C68   C     C_3   0.733835 0.913233 0.578210 -0.857439
H30   H     H_    0.794827 0.913941 0.574915 0.237895
H31   H     H_    0.725975 0.956951 0.517469 0.207959
H32   H     H_    0.700562 0.925737 0.668042 0.231825
C69   C     C_3   0.233845 0.586764 0.578179 -0.857504
H33   H     H_    0.294827 0.586071 0.574964 0.237944
H34   H     H_    0.200536 0.574230 0.667976 0.231819
H35   H     H_    0.226033 0.543061 0.517379 0.207975
C70   C     C_3   0.803845 0.385619 0.341610 -0.839998
H36   H     H_    0.750222 0.383008 0.312841 0.228320
H37   H     H_    0.805138 0.440736 0.375907 0.223185
H38   H     H_    0.852463 0.378482 0.265736 0.242631
C71   C     C_3   0.766165 0.586766 0.421791 -0.857439
H39   H     H_    0.705173 0.586059 0.425085 0.237895
H40   H     H_    0.799438 0.574262 0.331958 0.231825
H41   H     H_    0.774025 0.543049 0.482531 0.207959
C72   C     C_3   0.196180 0.385644 0.658351 -0.840020
H42   H     H_    0.249816 0.383047 0.687083 0.228322
H43   H     H_    0.194869 0.440755 0.624043 0.223195
H44   H     H_    0.147578 0.378509 0.734249 0.242624
C73   C     C_3   0.711014 0.250490 0.782765 -0.864681
H45   H     H_    0.651056 0.239608 0.785423 0.241679
H46   H     H_    0.736676 0.205729 0.822440 0.232175
H47   H     H_    0.711341 0.298481 0.839373 0.223736
C74   C     C_3   0.218516 0.810080 0.257799 -0.862234
H48   H     H_    0.180437 0.857148 0.268435 0.231163
H49   H     H_    0.278065 0.826616 0.227420 0.240910
H50   H     H_    0.206201 0.776529 0.185664 0.226808
C75   C     C_3   0.288941 0.250445 0.217234 -0.864676
H51   H     H_    0.348904 0.239577 0.214553 0.241676
H52   H     H_    0.263276 0.205669 0.177599 0.232174
H53   H     H_    0.288594 0.298422 0.160603 0.223735
C76   C     C_3   0.781468 0.810074 0.742221 -0.862198
H54   H     H_    0.819498 0.857178 0.731567 0.231168
H55   H     H_    0.721904 0.826557 0.772642 0.240885
H56   H     H_    0.793846 0.776547 0.814335 0.226790
C77   C     C_3   0.281480 0.689923 0.742205 -0.862236
H57   H     H_    0.221934 0.673376 0.772575 0.240913
H58   H     H_    0.319568 0.642862 0.731576 0.231160
H59   H     H_    0.293783 0.723479 0.814344 0.226810
C78   C     C_3   0.788986 0.249510 0.217235 -0.864681
H60   H     H_    0.763324 0.294271 0.177560 0.232175
H61   H     H_    0.848944 0.260392 0.214577 0.241679
H62   H     H_    0.788659 0.201519 0.160627 0.223736
C79   C     C_3   0.718532 0.689926 0.257779 -0.862199
H63   H     H_    0.778096 0.673443 0.227358 0.240885
H64   H     H_    0.680502 0.642821 0.268433 0.231168
H65   H     H_    0.706154 0.723453 0.185665 0.226790
C80   C     C_3   0.211063 0.249559 0.782765 -0.864675
H66   H     H_    0.236727 0.294337 0.822397 0.232174
H67   H     H_    0.151099 0.260425 0.785447 0.241675
H68   H     H_    0.211411 0.201584 0.839398 0.223734

loop_
_geom_bond_atom_site_label_1
_geom_bond_atom_site_label_2
_ccdc_geom_bond_type
C6    C32   S    
C79   H63   S    
C7    C29   S    
C13   N2    A    
C80   H66   S    
C14   C18   A    
C30   C45   A    
C49   C66   S    
C45   H14   S    
C34   C42   A    
C23   H8    S    
C34   C78   S    
C9    C21   A    
C78   H62   S    
C56   C71   S    
C75   H51   S    
C57   C62   A    
Cu2   N2    S    
C5    O13   A    
C10   C22   A    
C15   C19   A    
C15   H4    S    
C72   H43   S    
C59   C64   A    
C77   H57   S    
C37   C73   S    
C60   C63   A    
C17   H17   S    
C6    O6    A    
C66   H24   S    
C19   H19   S    
C75   H52   S    
C28   C51   A    
C13   H2    S    
C2    O10   A    
C10   C17   A    
C38   C57   A    
C20   H20   S    
C49   C57   A    
C25   C50   A    
C3    O3    A    
C68   H32   S    
C52   C60   A    
C65   H22   S    
C78   H61   S    
C15   N4    A    
C4    O4    A    
C53   C61   A    
C27   C44   A    
Cu1   O4    S    
C33   C62   A    
C55   C63   A    
C69   H35   S    
C56   C64   A    
C35   C64   A    
C31   C56   A    
C76   H55   S    
C36   C63   A    
C35   C43   A    
C9    C10   A    
C32   C55   A    
C37   C58   A    
C36   C80   S    
Cu2   O2    S    
C66   H26   S    
C1    C27   S    
C52   C67   S    
C58   C61   A    
Cu1   O1    S    
C77   H58   S    
C40   C59   A    
C67   H29   S    
C71   H40   S    
C80   H67   S    
Cu2   O9    S    
C16   H3    S    
Cu1   O10   S    
C8    O16   A    
C54   C69   S    
C33   C77   S    
C74   H48   S    
C21   N2    A    
C72   H44   S    
C11   C20   A    
C68   H31   S    
C74   H49   S    
Cu3   Cu4   S    
C50   C58   A    
Cu2   O12   S    
C3    C25   S    
C26   C49   A    
C41   H10   S    
C54   C62   A    
C43   H12   S    
C47   H16   S    
C21   H6    S    
C50   C65   S    
C65   H23   S    
C66   H25   S    
C73   H46   S    
Cu1   N1    S    
C14   N1    A    
C71   H41   S    
C46   H13   S    
C2    O2    A    
C16   C20   A    
Cu3   N3    S    
C6    O14   A    
C24   H7    S    
C18   H18   S    
C30   C53   A    
C76   H56   S    
C68   H30   S    
C7    O7    A    
Cu3   O8    S    
C42   H9    S    
C75   H53   S    
C1    O1    A    
C14   H1    S    
C5    O5    A    
C77   H59   S    
C31   C48   A    
C71   H39   S    
C51   C68   S    
C32   C47   A    
C7    O15   A    
C40   C76   S    
C73   H47   S    
C51   C59   A    
Cu4   O13   S    
Cu1   O11   S    
C37   C45   A    
C24   N3    A    
C1    O9    A    
C74   H50   S    
C27   C52   A    
C39   C47   A    
C70   H36   S    
C3    O11   A    
C40   C48   A    
C39   C75   S    
C38   C74   S    
C44   H11   S    
C25   C42   A    
C4    C26   S    
C11   C12   A    
Cu3   O14   S    
C79   H65   S    
C72   H42   S    
C12   C24   A    
C28   C43   A    
C55   C72   S    
C48   H15   S    
C13   C17   A    
C29   C46   A    
C8    C30   S    
C70   H38   S    
C67   H28   S    
C8    O8    A    
Cu4   O7    S    
C33   C41   A    
C78   H60   S    
C73   H45   S    
Cu3   O15   S    
C69   H33   S    
C39   C60   A    
C4    O12   A    
C12   C19   A    
C11   C23   A    
Cu4   N4    S    
C22   N1    A    
C34   C61   A    
Cu4   O6    S    
C38   C46   A    
C36   C44   A    
Cu3   O5    S    
C9    C18   A    
C53   C70   S    
C16   N3    A    
C79   H64   S    
Cu1   Cu2   S    
C29   C54   A    
C65   H21   S    
C69   H34   S    
C23   N4    A    
C35   C79   S    
C2    C28   S    
C80   H68   S    
Cu4   O16   S    
C22   H5    S    
C5    C31   S    
C76   H54   S    
C67   H27   S    
C26   C41   A    
Cu2   O3    S    
C70   H37   S    
