data_mof_unit_53399.cif
_audit_creation_date              2012-12-10T20:49:48-0500
_audit_creation_method            fapswitch 2.2
_symmetry_space_group_name_H-M    P1
_symmetry_Int_Tables_number       1
_space_group_crystal_system       triclinic
_cell_length_a                    8.095492
_cell_length_b                    8.93811
_cell_length_c                    16.601782
_cell_angle_alpha                 90.003881
_cell_angle_beta                  84.353387
_cell_angle_gamma                 90.013583
_cell_volume                      1195.44933017

loop_
_atom_site_label
_atom_site_type_symbol
_atom_type_description
_atom_site_fract_x
_atom_site_fract_y
_atom_site_fract_z
_atom_type_partial_charge
C1    C     C_R   0.500001 0.782080 0.500052 0.937341
C2    C     C_R   0.392962 0.464037 0.219696 -0.158225
C3    C     C_R   0.548085 0.275606 0.837345 -0.145583
C4    C     C_R   0.392014 0.408763 0.141982 -0.105603
C5    C     C_R   0.412945 0.316431 0.891707 0.137200
C6    C     C_R   0.539028 0.355923 0.099915 0.128982
C7    C     C_R   0.295562 0.418744 0.868672 -0.132311
C8    C     C_R   0.688312 0.367502 0.135177 -0.144904
C9    C     C_R   0.316761 0.487894 0.792585 -0.024669
C10   C     C_R   0.692441 0.426534 0.213098 -0.001142
C11   C     C_2   0.410467 0.279674 0.977467 -0.219431
C12   C     C_R   0.499982 0.217922 0.500042 0.948981
C13   C     C_2   0.546036 0.310847 0.014634 -0.198347
C14   C     C_2   0.857032 0.444707 0.244209 0.393846
C15   C     C_2   0.197594 0.605343 0.772409 0.408255
C16   C     C_1   0.500001 0.934841 0.500084 -0.190534
C17   C     C_1   0.499972 0.065173 0.500081 -0.186944
C18   C     C_R   0.475738 0.496706 0.654357 0.825563
C19   C     C_R   0.524520 0.498286 0.345205 0.854190
C20   C     C_R   0.456923 0.448956 0.738817 -0.125080
C21   C     C_R   0.540489 0.469656 0.257455 -0.166466
C22   C     C_R   0.570277 0.341953 0.761779 -0.166027
H1    H     H_    0.193790 0.452049 0.912367 0.167397
H2    H     H_    0.226342 0.678530 0.720855 0.075335
H3    H     H_    0.803062 0.334240 0.100547 0.162711
H4    H     H_    0.275772 0.411230 0.115162 0.159039
H5    H     H_    0.639336 0.196061 0.854494 0.146846
H6    H     H_    0.675240 0.307114 0.720479 0.166833
H7    H     H_    0.275929 0.499974 0.250963 0.191251
H8    H     H_    0.664321 0.327509 0.978661 0.161306
H9    H     H_    0.290533 0.263418 0.011531 0.157689
H10   H     H_    0.879797 0.535072 0.285177 0.092306
N1    N     N_1   0.926360 0.500000 0.499990 -0.031321
N2    N     N_1   0.073640 0.500000 0.500010 -0.028884
O1    O     O_R   0.363150 0.714660 0.500000 -0.614861
O2    O     O_2   0.065894 0.623107 0.813897 -0.572178
O3    O     O_R   0.636850 0.285340 0.500000 -0.611672
O4    O     O_R   0.636850 0.714660 0.500000 -0.610710
O5    O     O_R   0.363150 0.285340 0.500000 -0.605646
O6    O     O_R   0.346950 0.500000 0.615800 -0.625662
O7    O     O_R   0.653050 0.500000 0.384200 -0.635821
O8    O     O_R   0.620700 0.500000 0.615800 -0.600539
O9    O     O_R   0.379300 0.500000 0.384200 -0.604182
O10   O     O_2   0.971489 0.360427 0.222391 -0.600653
Zn1   Zn    Zn3+2 0.317220 0.500000 0.500010 0.998060
Zn2   Zn    Zn3+2 0.682780 0.500000 0.499990 0.994267

loop_
_geom_bond_atom_site_label_1
_geom_bond_atom_site_label_2
_ccdc_geom_bond_type
C12   C17   S    
C2    C4    A    
O7    Zn2   S    
C5    C7    A    
C8    H3    S    
C11   C13   D    
C13   H8    S    
C9    C20   A    
C4    H4    S    
O5    Zn1   S    
C12   O5    A    
C3    H5    S    
N1    N2    T    
C9    C15   S    
C11   H9    S    
N2    Zn1   S    
C22   H6    S    
C6    C13   S    
N1    Zn2   S    
O9    Zn1   S    
C1    O4    A    
C2    C21   A    
C2    H7    S    
C7    H1    S    
C4    C6    A    
C15   H2    S    
C19   C21   S    
C19   O9    A    
C5    C11   S    
C18   C20   S    
C18   O8    A    
C10   C21   A    
O8    Zn2   S    
O6    Zn1   S    
O4    Zn2   S    
O1    Zn1   S    
C7    C9    A    
C15   O2    D    
C1    O1    A    
C14   O10   D    
C10   C14   S    
C14   H10   S    
C12   O3    A    
C1    C16   S    
C18   O6    A    
C3    C22   A    
C6    C8    A    
O3    Zn2   S    
C8    C10   A    
C19   O7    A    
C20   C22   A    
C16   C17   T    
C3    C5    A    
