data_mof_unit_29007.cif
_audit_creation_date              2013-03-05T15:41:46-0500
_audit_creation_method            fapswitch 2.2
_symmetry_space_group_name_H-M    P1
_symmetry_Int_Tables_number       1
_space_group_crystal_system       triclinic
_cell_length_a                    11.165314
_cell_length_b                    12.75552
_cell_length_c                    23.611308
_cell_angle_alpha                 91.384995
_cell_angle_beta                  97.086837
_cell_angle_gamma                 68.306108
_cell_volume                      3099.82570738

loop_
_atom_site_label
_atom_site_type_symbol
_atom_site_description
_atom_site_fract_x
_atom_site_fract_y
_atom_site_fract_z
_atom_type_partial_charge
O1    O     O_R   0.196340 0.303200 0.448500 -0.496793
O2    O     O_R   0.199310 0.519670 0.454880 -0.499675
C1    C     C_R   0.150083 0.615959 0.429087 0.538574
O3    O     O_R   0.045660 0.691380 0.441680 -0.496968
O4    O     O_R   0.811930 0.659460 0.430950 -0.504478
C2    C     C_R   0.754226 0.600800 0.402927 0.540671
O5    O     O_R   0.757900 0.507620 0.421760 -0.512220
O6    O     O_R   0.988630 0.322990 0.439840 -0.498296
C3    C     C_R   0.101420 0.281842 0.423506 0.548075
O7    O     O_R   0.196380 0.301720 0.573850 -0.449388
O8    O     O_R   0.199350 0.518300 0.571080 -0.453426
C4    C     C_R   0.154756 0.621624 0.588154 0.580142
O9    O     O_R   0.045700 0.689900 0.567030 -0.439821
O10   O     O_R   0.811960 0.658090 0.547150 -0.468986
C5    C     C_R   0.749298 0.602732 0.565554 0.557380
O11   O     O_R   0.757930 0.506140 0.547110 -0.491997
O12   O     O_R   0.988670 0.321620 0.556040 -0.498324
C6    C     C_R   0.099538 0.281822 0.585906 0.561751
Cr1   Cr    Cr6+3 0.189770 0.415650 0.511620 1.120506
Cr2   Cr    Cr6+3 0.930400 0.667320 0.496770 1.119587
Cr3   Cr    Cr6+3 0.879870 0.417010 0.491650 1.075189
O13   O     O_3   0.000020 0.499990 0.500010 -0.285423
C7    C     C_R   0.670224 0.758496 0.139390 -0.012640
C8    C     C_R   0.716009 0.622684 0.341749 0.004969
C9    C     C_R   0.717027 0.538245 0.248438 0.021881
C10   C     C_R   0.716695 0.531530 0.306908 -0.077108
C11   C     C_R   0.707442 0.724049 0.317170 -0.103998
C12   C     C_R   0.702364 0.733802 0.258178 0.033192
C13   C     C_R   0.709634 0.639972 0.223557 0.044634
C14   C     C_R   0.701490 0.652189 0.164657 -0.105931
C15   C     C_R   0.674766 0.849432 0.174123 -0.017880
C16   C     C_R   0.690583 0.836074 0.233370 -0.089226
H1    H     H_    0.704395 0.581504 0.137748 0.152293
H2    H     H_    0.687751 0.907137 0.260119 0.149801
H3    H     H_    0.725480 0.451703 0.325509 0.166145
H4    H     H_    0.708216 0.794045 0.344033 0.140868
C17   C     C_1   0.234781 0.163288 0.122690 0.052929
C18   C     C_2   0.173329 0.229945 0.226007 -0.018982
C19   C     C_2   0.176011 0.153816 0.266338 0.205409
C20   C     C_1   0.141324 0.192546 0.322560 0.007483
C21   C     C_1   0.207023 0.196902 0.169331 0.032406
C22   C     C_1   0.118629 0.228971 0.369272 0.017848
C23   C     C_1   0.171889 0.759014 0.125740 0.056109
C24   C     C_2   0.151588 0.729062 0.234575 0.005301
C25   C     C_2   0.245046 0.650795 0.270582 0.226788
C26   C     C_1   0.222096 0.639734 0.329199 0.019545
C27   C     C_1   0.162274 0.741806 0.174792 0.047212
C28   C     C_1   0.195217 0.629922 0.376324 0.027455
C29   C     C_1   0.616023 0.763107 0.863192 0.016661
C30   C     C_2   0.652048 0.754970 0.754735 -0.012260
C31   C     C_2   0.644642 0.666757 0.724559 -0.131556
C32   C     C_1   0.667641 0.653040 0.665759 -0.007189
C33   C     C_1   0.637160 0.758260 0.814331 -0.040376
C34   C     C_1   0.697277 0.635004 0.618276 0.053426
H5    H     H_    0.631106 0.597824 0.745589 0.127062
C35   C     C_R   0.194279 0.177678 0.855724 -0.025470
C36   C     C_R   0.107730 0.241647 0.643813 -0.007159
C37   C     C_R   0.052115 0.134829 0.711832 -0.108818
C38   C     C_R   0.049205 0.166370 0.655578 -0.129859
C39   C     C_R   0.166232 0.288591 0.688523 0.225006
C40   C     C_R   0.177443 0.252108 0.744769 0.024169
C41   C     C_R   0.115636 0.177086 0.756320 -0.031079
C42   C     C_R   0.123488 0.141254 0.812133 -0.126739
C43   C     C_R   0.248487 0.255811 0.845336 -0.104640
C44   C     C_R   0.247452 0.288898 0.790197 0.240539
H6    H     H_    0.084014 0.078156 0.820953 0.142874
H7    H     H_    0.306559 0.280031 0.879635 0.167064
H8    H     H_    0.006290 0.076376 0.720549 0.152808
H9    H     H_    0.000444 0.133243 0.621361 0.187157
C45   C     C_R   0.138735 0.756704 0.846843 -0.004454
C46   C     C_R   0.205282 0.659911 0.642544 0.018701
C47   C     C_R   0.340563 0.609503 0.733443 -0.073794
C48   C     C_R   0.324780 0.596747 0.674213 -0.008859
C49   C     C_R   0.116804 0.753144 0.668693 0.209310
C50   C     C_R   0.122494 0.753066 0.727863 0.018664
C51   C     C_R   0.235699 0.680631 0.760666 0.025188
C52   C     C_R   0.244062 0.684594 0.819984 -0.084673
C53   C     C_R   0.020746 0.819103 0.813462 -0.039976
C54   C     C_R   0.015926 0.821239 0.754597 -0.124250
H10   H     H_    0.335398 0.635881 0.844990 0.166296
H11   H     H_    0.431401 0.559618 0.758444 0.152578
H12   H     H_    0.927238 0.875379 0.730211 0.188770
O14   O     O_R   0.113660 0.883270 0.047820 -0.499167
O15   O     O_R   0.186930 0.068530 0.043990 -0.492091
C55   C     C_R   0.265516 0.110602 0.069250 0.552252
O16   O     O_R   0.377770 0.089040 0.054220 -0.486431
O17   O     O_R   0.562800 0.872960 0.056970 -0.490779
C56   C     C_R   0.599946 0.775990 0.081383 0.544904
O18   O     O_R   0.555390 0.700940 0.062700 -0.500145
O19   O     O_R   0.295020 0.731920 0.049950 -0.475224
C57   C     C_R   0.189691 0.788833 0.069859 0.555361
O20   O     O_R   0.094290 0.884230 0.921550 -0.501002
O21   O     O_R   0.168980 0.069410 0.926940 -0.504598
C58   C     C_R   0.240583 0.113680 0.908086 0.543451
O22   O     O_R   0.358400 0.089990 0.927950 -0.503271
O23   O     O_R   0.544850 0.873850 0.939920 -0.481309
C59   C     C_R   0.573264 0.776481 0.918328 0.543687
O24   O     O_R   0.536020 0.701900 0.936430 -0.514868
O25   O     O_R   0.277070 0.732810 0.932890 -0.507403
C60   C     C_R   0.165828 0.787831 0.905778 0.534259
Cr4   Cr    Cr6+3 0.149500 0.973980 0.985330 1.068699
Cr5   Cr    Cr6+3 0.457000 0.976510 0.994660 1.085413
Cr6   Cr    Cr6+3 0.411170 0.724270 0.995270 1.068031
O26   O     O_3   0.339220 0.891590 0.991750 -0.269188
C61   C     C_1   0.037337 0.809838 0.255533 0.225778
N1    N     N_1   0.946980 0.875099 0.272657 -0.269353
C62   C     C_1   0.662550 0.851775 0.728328 0.250748
N2    N     N_1   0.669635 0.929772 0.707117 -0.217854
N3    N     N_R   0.336756 0.341856 0.781612 0.120567
O27   O     O_R   0.335238 0.428300 0.812203 -0.366803
O28   O     O_R   0.443460 0.282216 0.760899 -0.271752
N4    N     N_R   0.198586 0.383663 0.677288 0.091485
O29   O     O_R   0.310931 0.367567 0.661048 -0.260371
O30   O     O_R   0.125653 0.483323 0.692421 -0.361613
C63   C     C_1   0.657710 0.958477 0.150944 0.253889
N5    N     N_1   0.644425 0.045947 0.132603 -0.228298
C64   C     C_1   0.904295 0.885044 0.838177 0.230092
N6    N     N_1   0.811017 0.937815 0.857854 -0.253478
C65   C     C_1   0.432067 0.522053 0.646721 0.265887
N7    N     N_1   0.518120 0.462148 0.624674 -0.240142
N8    N     N_R   0.024659 0.848129 0.635222 0.068951
O31   O     O_R   0.901289 0.865434 0.629269 -0.311083
O32   O     O_R   0.066858 0.903037 0.601938 -0.348547
C66   C     C_1   0.725732 0.439091 0.215485 0.244379
N9    N     N_1   0.732775 0.359712 0.189201 -0.238907
N10   N     N_R   0.217520 0.033821 0.256637 0.090640
O33   O     O_R   0.194279 0.969238 0.292136 -0.320474
O34   O     O_R   0.291794 0.986245 0.217634 -0.342019
C67   C     C_1   0.132023 0.349451 0.237391 0.191112
N11   N     N_1   0.098817 0.444930 0.246480 -0.298458
N12   N     N_R   0.364180 0.573114 0.252119 0.090942
O35   O     O_R   0.434124 0.483434 0.283144 -0.323279
O36   O     O_R   0.410000 0.595732 0.207853 -0.330330

loop_
_geom_bond_atom_site_label_1
_geom_bond_atom_site_label_2
_geom_bond_distance
_ccdc_geom_bond_type
C37   C41   1.402971 A    
O25   Cr6   1.940636 S    
O17   C56   1.276885 A    
C24   C61   1.446774 S    
N10   O33   1.301391 A    
C48   C65   1.442999 S    
O23   Cr5   1.904938 S    
C45   C53   1.410379 A    
C8    C11   1.396002 A    
C47   C51   1.406882 A    
N4    O30   1.300512 A    
C59   O24   1.271450 A    
O4    Cr2   1.938616 S    
C55   O16   1.273842 A    
C35   C58   1.428726 S    
C43   H7    1.085431 S    
O8    Cr1   1.916897 S    
C3    C22   1.433408 S    
C41   C42   1.387161 A    
C17   C55   1.434176 S    
C12   C13   1.415811 A    
C8    C10   1.406223 A    
N3    O28   1.301157 A    
C18   C19   1.366346 D    
C36   C38   1.395601 A    
C5    O11   1.270275 A    
C1    C28   1.438643 S    
C15   C16   1.394801 A    
C32   C34   1.200886 T    
O6    C3    1.277317 A    
C62   N2    1.157135 T    
C35   C43   1.383522 A    
C47   H11   1.084124 S    
C14   H1    1.083245 S    
C24   C27   1.449190 S    
C56   O18   1.279076 A    
C20   C22   1.205707 T    
C42   H6    1.085537 S    
C19   N10   1.447340 S    
Cr3   O13   1.983241 S    
O18   Cr6   2.062127 S    
C45   C52   1.409738 A    
O15   Cr4   1.922644 S    
C58   O22   1.265894 A    
C15   C63   1.444203 S    
N4    O29   1.298882 A    
C45   C60   1.464132 S    
C30   C31   1.340179 D    
C9    C13   1.407594 A    
C26   C28   1.208597 T    
O1    Cr1   2.032177 S    
C30   C33   1.434960 S    
C49   C50   1.390676 A    
C31   C32   1.437726 S    
C7    C14   1.397945 A    
O10   Cr2   1.920331 S    
C12   C16   1.397588 A    
Cr1   O13   1.976609 S    
O1    C3    1.263740 A    
C51   C52   1.393075 A    
C18   C21   1.445564 S    
C5    C34   1.425942 S    
O21   Cr4   1.944372 S    
C19   C20   1.452551 S    
C46   C48   1.405942 A    
C53   C54   1.384799 A    
C36   C39   1.410003 A    
C37   C38   1.390187 A    
O5    Cr3   2.070654 S    
C23   C57   1.438718 S    
C39   C40   1.393468 A    
C16   H2    1.085167 S    
C50   C51   1.407433 A    
C18   C67   1.449018 S    
C13   C14   1.391198 A    
C39   N4    1.426370 S    
C40   C44   1.421866 A    
C54   H12   1.077954 S    
O17   Cr5   1.953490 S    
C6    C36   1.452149 S    
O25   C60   1.275196 A    
O7    Cr1   2.067232 S    
O8    C4    1.298507 A    
C2    C8    1.458047 S    
O23   C59   1.273228 A    
C53   C64   1.446904 S    
O12   C6    1.274610 A    
C35   C42   1.395564 A    
O21   C58   1.260923 A    
O15   C55   1.271664 A    
Cr5   O26   1.983582 S    
C44   N3    1.430406 S    
N8    O31   1.301853 A    
O20   Cr4   2.041501 S    
C38   H9    1.082916 S    
C37   H8    1.084204 S    
C4    C46   1.483436 S    
Cr2   O13   1.983006 S    
C25   N12   1.445335 S    
Cr4   O26   1.974140 S    
C7    C56   1.470208 S    
C30   C62   1.445514 S    
C1    O3    1.271128 A    
O16   Cr5   2.022664 S    
C11   C12   1.393737 A    
C24   C25   1.363931 D    
O20   C60   1.270360 A    
C67   N11   1.157554 T    
C52   H10   1.084147 S    
N10   O34   1.301324 A    
O14   Cr4   2.060690 S    
O9    Cr2   2.053377 S    
O2    Cr1   1.947371 S    
C47   C48   1.400974 A    
N12   O36   1.301159 A    
N12   O35   1.301516 A    
O6    Cr3   1.904812 S    
C46   C49   1.420516 A    
C65   N7    1.157339 T    
O22   Cr5   2.071821 S    
O11   Cr3   2.021031 S    
C2    O5    1.263764 A    
C11   H4    1.084676 S    
O14   C57   1.267980 A    
C61   N1    1.156615 T    
C43   C44   1.375659 A    
O2    C1    1.279057 A    
C9    C10   1.385826 A    
N3    O27   1.299433 A    
O19   C57   1.272701 A    
O4    C2    1.280632 A    
C50   C54   1.401524 A    
O7    C6    1.263697 A    
C29   C33   1.201437 T    
C31   H5    1.086468 S    
C17   C21   1.206558 T    
C40   C41   1.419024 A    
C9    C66   1.447292 S    
O12   Cr3   1.951556 S    
O19   Cr6   1.916165 S    
N8    O32   1.300788 A    
C29   C59   1.426250 S    
O3    Cr2   2.041226 S    
C25   C26   1.457637 S    
C10   H3    1.084645 S    
C49   N8    1.440524 S    
C4    O9    1.255809 A    
Cr6   O26   1.982892 S    
O10   C5    1.277510 A    
C63   N5    1.157376 T    
C64   N6    1.157427 T    
C23   C27   1.208922 T    
O24   Cr6   2.029628 S    
C7    C15   1.416975 A    
C66   N9    1.157299 T    
