data_mof_unit_44253.cif
_audit_creation_date              2012-12-10T17:25:30-0500
_audit_creation_method            fapswitch 2.2
_symmetry_space_group_name_H-M    P1
_symmetry_Int_Tables_number       1
_space_group_crystal_system       triclinic
_cell_length_a                    10.510348
_cell_length_b                    10.526201
_cell_length_c                    23.390907
_cell_angle_alpha                 94.474902
_cell_angle_beta                  78.515636
_cell_angle_gamma                 96.377851
_cell_volume                      2516.16833262

loop_
_atom_site_label
_atom_site_type_symbol
_atom_type_description
_atom_site_fract_x
_atom_site_fract_y
_atom_site_fract_z
_atom_type_partial_charge
C1    C     C_R   0.554905 0.733368 0.491654 0.829759
C2    C     C_R   0.444075 0.397904 0.298841 0.098253
C3    C     C_R   0.540327 0.656642 0.759395 0.136963
C4    C     C_R   0.450789 0.396747 0.238009 0.156871
C5    C     C_R   0.548983 0.545067 0.787547 0.126720
C6    C     C_R   0.499763 0.509615 0.208766 0.089590
C7    C     C_2   0.581417 0.869264 0.477437 0.211766
C8    C     C_2   0.419594 0.124018 0.491526 0.281310
C9    C     C_2   0.501497 0.920596 0.447218 0.125473
C10   C     C_2   0.497466 0.060460 0.446937 0.029305
C11   C     C_2   0.918540 0.512603 0.510963 0.354350
C12   C     C_R   0.445135 0.264711 0.500910 0.827637
C13   C     C_2   0.052373 0.471311 0.517856 0.385613
C14   C     C_R   0.498525 0.505719 0.610554 1.002355
C15   C     C_R   0.504976 0.503322 0.389626 0.842584
C16   C     C_R   0.393447 0.504091 0.125844 0.596796
C17   C     C_R   0.650288 0.585303 0.872103 0.612444
C18   C     C_R   0.625188 0.527116 0.111172 0.601574
C19   C     C_R   0.421886 0.522533 0.883699 0.579846
C20   C     C_R   0.635273 0.551532 0.051754 -0.057819
C21   C     C_R   0.409395 0.514100 0.944627 -0.054773
C22   C     C_R   0.519006 0.531732 0.028574 -0.080617
C23   C     C_R   0.539221 0.423371 0.758295 0.376787
C24   C     C_R   0.524074 0.543928 0.968629 -0.085681
C25   C     C_R   0.398365 0.495344 0.065233 -0.081254
C26   C     C_R   0.643538 0.588925 0.932896 -0.084019
C27   C     C_R   0.754552 0.599109 0.015809 0.166064
C28   C     C_R   0.288840 0.472160 0.981538 0.176574
C29   C     C_R   0.753209 0.632100 0.958506 0.185249
C30   C     C_R   0.286924 0.453139 0.040910 0.182175
C31   C     C_3   0.882082 0.618248 0.038133 -0.747740
C32   C     C_3   0.162109 0.448127 0.958579 -0.750714
C33   C     C_3   0.861420 0.725561 0.927969 -0.762171
C34   C     C_R   0.552963 0.617437 0.238752 0.387799
C35   C     C_3   0.173594 0.371123 0.075480 -0.763604
C36   C     C_3   0.530450 0.767220 0.669122 -0.614653
C37   C     C_3   0.366767 0.286963 0.332277 -0.729408
C38   C     C_3   0.547100 0.787300 0.791758 -0.728946
C39   C     C_3   0.405414 0.275586 0.205158 -0.751860
C40   C     C_3   0.581985 0.124247 0.394767 -0.741214
C41   C     C_3   0.408488 0.839445 0.413771 -0.676804
C42   C     C_R   0.497890 0.411998 0.704453 0.179243
C43   C     C_R   0.582937 0.603004 0.293637 0.214323
C44   C     C_R   0.500213 0.522312 0.673593 -0.219002
C45   C     C_R   0.513592 0.500288 0.326484 -0.215373
C46   C     C_R   0.524245 0.645819 0.700693 0.027680
H1    H     H_    0.903813 0.526332 0.052275 0.258223
H2    H     H_    0.943149 0.673303 0.903205 0.270800
H3    H     H_    0.825080 0.784596 0.898501 0.257715
H4    H     H_    0.136064 0.292168 0.047093 0.223312
H5    H     H_    0.204221 0.320352 0.109540 0.253732
H6    H     H_    0.093992 0.430905 0.095719 0.274655
H7    H     H_    0.705805 0.254984 0.848795 0.377805
H8    H     H_    0.723400 0.879448 0.150010 0.373019
H9    H     H_    0.226745 0.350346 0.705675 0.377234
H10   H     H_    0.860896 0.699673 0.369875 0.386099
H11   H     H_    0.519030 0.749562 0.623263 0.255749
H12   H     H_    0.968385 0.647377 0.004660 0.210875
H13   H     H_    0.452620 0.826812 0.691575 0.239980
H14   H     H_    0.626395 0.823191 0.668954 0.274078
H15   H     H_    0.364717 0.295672 0.379827 0.224804
H16   H     H_    0.263910 0.279509 0.326418 0.283580
H17   H     H_    0.408542 0.195981 0.315674 0.227397
H18   H     H_    0.555307 0.784030 0.838028 0.216261
H19   H     H_    0.633244 0.848831 0.770252 0.258363
H20   H     H_    0.457111 0.833429 0.791829 0.255082
H21   H     H_    0.298158 0.254339 0.218290 0.257792
H22   H     H_    0.429962 0.280771 0.157091 0.215797
H23   H     H_    0.876232 0.692331 0.074726 0.294823
H24   H     H_    0.454553 0.194040 0.214904 0.250721
H25   H     H_    0.558577 0.074584 0.353983 0.262566
H26   H     H_    0.567282 0.226172 0.393273 0.221932
H27   H     H_    0.686345 0.116496 0.394664 0.300899
H28   H     H_    0.371522 0.898495 0.384444 0.250894
H29   H     H_    0.457896 0.762541 0.386325 0.219813
H30   H     H_    0.322489 0.794867 0.443331 0.279222
H31   H     H_    0.163410 0.065851 0.622193 0.407850
H32   H     H_    0.848023 0.945784 0.422906 0.367048
H33   H     H_    0.891331 0.172732 0.576273 0.428907
H34   H     H_    0.144384 0.534887 0.938393 0.258535
H35   H     H_    0.849748 0.687040 0.653257 0.395026
H36   H     H_    0.165905 0.363991 0.926775 0.285002
H37   H     H_    0.074414 0.429222 0.992694 0.208627
H38   H     H_    0.281626 0.747929 0.643467 0.370042
H39   H     H_    0.869765 0.306944 0.329489 0.375945
H40   H     H_    0.897774 0.797186 0.959860 0.221242
N1    N     N_R   0.505775 0.512545 0.147032 -0.323932
N2    N     N_R   0.540956 0.552067 0.849517 -0.327034
N3    N     N_2   0.842710 0.448880 0.476480 0.034103
N4    N     N_2   0.157290 0.551120 0.523520 -0.024255
O1    O     O_R   0.431060 0.692470 0.504730 -0.574777
O2    O     O_2   0.765425 0.607966 0.835119 -0.494865
O3    O     O_2   0.732003 0.520235 0.134068 -0.525592
O4    O     O_2   0.317875 0.498214 0.857469 -0.554699
O5    O     O_2   0.084987 0.759682 0.599688 -0.190867
O6    O     O_2   0.102693 0.557524 0.641689 -0.212491
O7    O     O_3   0.299024 0.711913 0.602568 -0.482606
O8    O     O_2   0.051187 0.419046 0.392928 -0.327226
O9    O     O_2   0.916384 0.225553 0.428789 -0.212566
O10   O     O_3   0.827066 0.363088 0.361972 -0.483749
O11   O     O_2   0.462320 0.233133 0.831334 -0.279085
O12   O     O_R   0.568940 0.307530 0.495270 -0.565364
O13   O     O_2   0.624965 0.187913 0.743006 -0.209819
O14   O     O_3   0.701474 0.330517 0.826769 -0.527938
O15   O     O_2   0.475278 0.776348 0.170027 -0.305837
O16   O     O_2   0.551344 0.874074 0.256608 -0.265882
O17   O     O_3   0.723759 0.798126 0.168587 -0.490338
O18   O     O_2   0.489930 0.213302 0.626243 -0.208387
O19   O     O_2   0.375916 0.170334 0.725907 -0.199394
O20   O     O_3   0.272469 0.314503 0.667671 -0.459949
O21   O     O_2   0.822637 0.720480 0.258689 -0.168428
O22   O     O_2   0.684215 0.828191 0.339443 -0.336895
O23   O     O_R   0.651120 0.659650 0.489640 -0.535300
O24   O     O_3   0.793406 0.632977 0.359810 -0.476480
O25   O     O_2   0.213664 0.948642 0.515239 -0.233451
O26   O     O_2   0.382423 0.956196 0.574693 -0.266781
O27   O     O_3   0.221371 0.126618 0.595989 -0.390244
O28   O     O_2   0.703381 0.103213 0.504270 -0.225565
O29   O     O_2   0.708220 0.930946 0.566329 -0.209290
O30   O     O_3   0.853284 0.925306 0.462935 -0.440312
O31   O     O_2   0.117446 0.231331 0.491739 -0.227794
O32   O     O_2   0.102993 0.320165 0.592983 -0.183428
O33   O     O_3   0.888147 0.252212 0.556762 -0.471729
O34   O     O_R   0.348880 0.340350 0.510360 -0.541666
O35   O     O_2   0.945132 0.760670 0.533349 -0.177722
O36   O     O_2   0.730764 0.684445 0.573422 -0.297794
O37   O     O_3   0.882655 0.614472 0.626891 -0.484131
O38   O     O_R   0.389950 0.516450 0.591390 -0.516304
O39   O     O_R   0.610050 0.483550 0.408610 -0.522005
O40   O     O_R   0.610020 0.483630 0.576300 -0.551362
O41   O     O_R   0.389980 0.516370 0.423700 -0.635399
O42   O     O_2   0.278429 0.507354 0.163595 -0.500625
S1    S     S_3+6 0.155210 0.642070 0.591687 0.217381
S2    S     S_3+6 0.864297 0.645327 0.559689 0.112107
S3    S     S_3+6 0.914086 0.361923 0.414827 0.140432
S4    S     S_3+6 0.580117 0.288174 0.789848 0.094985
S5    S     S_3+6 0.572853 0.770806 0.208607 0.086861
S6    S     S_3+6 0.411339 0.269709 0.681205 0.125138
S7    S     S_3+6 0.721586 0.699799 0.313256 0.084413
S8    S     S_3+6 0.307550 0.035041 0.544811 0.132666
S9    S     S_3+6 0.711078 0.962063 0.504599 0.124460
S10   S     S_3+6 0.044292 0.314246 0.539516 0.152278
Zn1   Zn    Zn3+2 0.353060 0.521920 0.510080 1.142483
Zn2   Zn    Zn3+2 0.646940 0.478080 0.489920 1.181152

loop_
_geom_bond_atom_site_label_1
_geom_bond_atom_site_label_2
_ccdc_geom_bond_type
O35   S2    D    
N3    S3    S    
C40   H25   S    
C13   N4    D    
C42   S6    S    
C17   N2    A    
C39   H22   S    
H32   O30   S    
O37   S2    S    
O7    S1    S    
O13   S4    D    
O28   S9    D    
C37   H16   S    
O21   S7    D    
O39   Zn2   S    
C23   C42   A    
C1    O23   A    
H8    O17   S    
C17   C26   A    
C31   H12   S    
C19   C21   A    
C24   C26   A    
H31   O27   S    
C27   C29   A    
H7    O14   S    
C33   H3    S    
C29   C33   S    
O5    S1    D    
C14   O38   A    
C40   H27   S    
C10   C40   S    
C41   H28   S    
C5    N2    S    
C38   H20   S    
C3    C38   S    
C22   C25   A    
C5    C23   A    
C16   N1    A    
C38   H19   S    
O34   Zn1   S    
C43   S7    S    
O40   Zn2   S    
C9    C10   S    
O1    Zn1   S    
N4    Zn1   S    
O10   S3    S    
C36   H13   S    
C1    O1    A    
C31   H1    S    
H35   O37   S    
O22   S7    D    
C17   O2    S    
C42   C44   A    
C37   H17   S    
C18   O3    S    
C44   C46   A    
C38   H18   S    
C2    C45   A    
C34   C43   A    
C27   C31   S    
C28   C32   S    
C4    C6    A    
C19   N2    A    
C11   S2    S    
N4    S1    S    
O16   S5    D    
C3    C5    A    
O24   S7    S    
H33   O33   S    
O8    S3    D    
C6    N1    S    
C6    C34   A    
O19   S6    D    
O17   S5    S    
C2    C4    A    
C33   H40   S    
C12   O12   A    
C32   H34   S    
C16   C25   A    
C11   N3    D    
C15   O39   A    
C4    C39   S    
O20   S6    S    
C8    C12   S    
C35   H4    S    
O9    S3    D    
C13   S10   S    
C36   C46   S    
C43   C45   A    
C19   O4    S    
C41   H29   S    
C30   C35   S    
C21   C28   A    
C20   C22   A    
C36   H11   S    
C40   H26   S    
H9    O20   S    
C35   H5    S    
O29   S9    D    
C22   C24   A    
O27   S8    S    
H38   O7    S    
C7    S9    S    
O41   Zn1   S    
C14   C44   S    
C14   O40   A    
O11   S4    D    
C25   C30   A    
C7    C9    D    
C32   H37   S    
H10   O24   S    
O14   S4    S    
C1    C7    S    
C39   H21   S    
O31   S10   D    
O30   S9    S    
C36   H14   S    
C37   H15   S    
O6    S1    D    
C20   C27   A    
N3    Zn2   S    
C32   H36   S    
C3    C46   A    
C9    C41   S    
C18   N1    A    
O23   Zn2   S    
C8    S8    S    
O12   Zn2   S    
C28   C30   A    
H39   O10   S    
C41   H30   S    
O18   S6    D    
C11   C13   S    
C2    C37   S    
C23   S4    S    
O33   S10   S    
C39   H24   S    
C18   C20   A    
C34   S5    S    
C16   O42   S    
O38   Zn1   S    
O15   S5    D    
C31   H23   S    
C15   O41   A    
O25   S8    D    
O36   S2    D    
C26   C29   A    
C8    C10   D    
C21   C24   A    
C35   H6    S    
C33   H2    S    
O32   S10   D    
C12   O34   A    
O26   S8    D    
C15   C45   S    
