data_mof_unit_10044.cif
_audit_creation_date              2012-12-10T17:34:51-0500
_audit_creation_method            fapswitch 2.2
_symmetry_space_group_name_H-M    P1
_symmetry_Int_Tables_number       1
_space_group_crystal_system       triclinic
_cell_length_a                    11.980134
_cell_length_b                    12.870271
_cell_length_c                    15.73095
_cell_angle_alpha                 90.559465
_cell_angle_beta                  86.441926
_cell_angle_gamma                 93.5037
_cell_volume                      2416.27324663

loop_
_atom_site_label
_atom_site_type_symbol
_atom_type_description
_atom_site_fract_x
_atom_site_fract_y
_atom_site_fract_z
_atom_type_partial_charge
C1    C     C_R   0.522393 0.700332 0.497326 0.932434
C2    C     C_R   0.536791 0.811243 0.489342 -0.155329
C3    C     C_R   0.626099 0.964539 0.422507 -0.312797
C4    C     C_R   0.500200 0.500027 0.661750 0.899136
C5    C     C_R   0.625325 0.858196 0.437696 0.460994
C6    C     C_R   0.453923 0.869566 0.528319 -0.316073
C7    C     C_R   0.456433 0.975328 0.515549 0.133447
C8    C     C_R   0.544477 0.024425 0.463426 0.013240
C9    C     C_R   0.547805 0.132220 0.453337 0.389444
C10   C     C_R   0.374342 0.138489 0.543274 -0.299158
C11   C     C_R   0.370681 0.032025 0.553300 -0.192706
C12   C     C_3   0.403468 0.561995 0.055940 -0.493302
C13   C     C_R   0.954898 0.407999 0.415832 -0.323018
C14   C     C_R   0.838507 0.416619 0.424349 0.015515
C15   C     C_R   0.858089 0.538032 0.537473 -0.029584
C16   C     C_R   0.477818 0.299668 0.498451 0.919248
C17   C     C_R   0.975587 0.531982 0.531147 0.055048
C18   C     C_R   0.024468 0.466110 0.469596 0.101271
C19   C     C_R   0.141841 0.460663 0.463258 -0.157016
C20   C     C_R   0.162913 0.584563 0.575938 0.667841
C21   C     C_R   0.044609 0.591378 0.584087 -0.484441
C22   C     C_R   0.499565 0.498754 0.338290 0.917717
C23   C     C_3   0.497504 0.493550 0.082821 0.141001
C24   C     C_3   0.382573 0.547196 0.958778 0.919293
C25   C     C_3   0.602331 0.553886 0.946578 0.168942
C26   C     C_3   0.612407 0.539103 0.043958 0.285064
C27   C     C_1   0.498445 0.494816 0.249547 -0.178457
C28   C     C_3   0.491425 0.496284 0.917917 0.088889
C29   C     C_3   0.250349 0.457522 0.870514 0.088103
C30   C     C_3   0.128884 0.412806 0.876013 -0.373935
C31   C     C_3   0.089988 0.381380 0.788254 -0.951388
C32   C     C_3   0.807999 0.817137 0.427543 0.087593
C33   C     C_3   0.892910 0.752478 0.377835 -0.315300
C34   C     C_3   0.476829 0.381296 0.048233 -0.484162
C35   C     C_3   0.010287 0.772481 0.409324 -0.959691
C36   C     C_3   0.293064 0.712666 0.958489 0.057672
C37   C     C_3   0.169136 0.673451 0.964260 -0.361294
C38   C     C_3   0.095107 0.755567 0.004280 -0.985728
C39   C     C_3   0.193294 0.686106 0.700189 0.044201
C40   C     C_3   0.159080 0.797650 0.688311 -0.367010
C41   C     C_3   0.102612 0.840207 0.769673 -0.953704
C42   C     C_3   0.762528 0.646345 0.089966 0.136582
C43   C     C_3   0.797080 0.599321 0.172957 -0.367840
C44   C     C_3   0.924153 0.606388 0.177753 -0.989387
C45   C     C_3   0.491052 0.382077 0.949994 -0.556755
C46   C     C_1   0.497858 0.492431 0.174296 0.008990
C47   C     C_1   0.496331 0.497221 0.826058 -0.006343
C48   C     C_1   0.499693 0.498599 0.750619 -0.183438
C49   C     C_R   0.464072 0.188287 0.495831 -0.097929
H1    H     H_    0.431203 0.643156 0.071675 0.172487
H2    H     H_    0.005129 0.643358 0.629398 0.159649
H3    H     H_    0.784955 0.372212 0.382598 0.166117
H4    H     H_    0.819010 0.588978 0.584089 0.128102
H5    H     H_    0.674822 0.516601 0.913695 0.112463
H6    H     H_    0.673713 0.478418 0.052708 0.040874
H7    H     H_    0.423452 0.331032 0.923598 0.222804
H8    H     H_    0.571356 0.347705 0.929006 0.183042
H9    H     H_    0.390661 0.350529 0.068933 0.230862
H10   H     H_    0.301472 0.397949 0.838541 0.144054
H11   H     H_    0.256171 0.528437 0.830525 0.171080
H12   H     H_    0.324108 0.543282 0.094966 0.182762
H13   H     H_    0.121548 0.343128 0.917652 0.236007
H14   H     H_    0.073111 0.471247 0.904616 0.212825
H15   H     H_    0.096147 0.449507 0.745186 0.261129
H16   H     H_    0.001303 0.350462 0.794420 0.266007
H17   H     H_    0.141953 0.319889 0.759710 0.264451
H18   H     H_    0.703839 0.159274 0.416834 0.318667
H19   H     H_    0.803963 0.793955 0.495836 0.139477
H20   H     H_    0.837492 0.900715 0.421918 0.126438
H21   H     H_    0.866844 0.668474 0.384476 0.238908
H22   H     H_    0.894879 0.773054 0.309348 0.230539
H23   H     H_    0.536674 0.328366 0.073714 0.186569
H24   H     H_    0.041758 0.853920 0.395560 0.263660
H25   H     H_    0.068109 0.718771 0.376374 0.274680
H26   H     H_    0.009452 0.759347 0.478955 0.265415
H27   H     H_    0.299634 0.784850 0.919953 0.170932
H28   H     H_    0.319271 0.739156 0.021636 0.131617
H29   H     H_    0.141721 0.654627 0.899500 0.218881
H30   H     H_    0.156447 0.603497 0.005043 0.253194
H31   H     H_    0.117009 0.771962 0.070876 0.269881
H32   H     H_    0.005892 0.726449 0.004907 0.266665
H33   H     H_    0.105439 0.829015 0.967533 0.270987
H34   H     H_    0.310063 0.182439 0.575883 0.176354
H35   H     H_    0.261069 0.689366 0.745410 0.188213
H36   H     H_    0.124677 0.634910 0.731116 0.116165
H37   H     H_    0.235062 0.848225 0.670935 0.214050
H38   H     H_    0.101615 0.801305 0.635898 0.218204
H39   H     H_    0.028214 0.789131 0.790908 0.273508
H40   H     H_    0.075113 0.919360 0.757913 0.264856
H41   H     H_    0.162873 0.845653 0.820459 0.264450
H42   H     H_    0.558816 0.698346 0.958349 0.379921
H43   H     H_    0.786773 0.731036 0.090312 0.169730
H44   H     H_    0.809038 0.612956 0.033458 0.123743
H45   H     H_    0.689628 0.998302 0.377442 0.167375
H46   H     H_    0.758274 0.641478 0.228143 0.253512
H47   H     H_    0.766632 0.516188 0.177480 0.219987
H48   H     H_    0.964109 0.561732 0.124557 0.271261
H49   H     H_    0.946337 0.573199 0.238953 0.275627
H50   H     H_    0.957178 0.688821 0.174231 0.268446
H51   H     H_    0.302056 0.994548 0.591803 0.143004
H52   H     H_    0.386201 0.831893 0.567853 0.191252
H53   H     H_    0.181002 0.409862 0.416578 0.152169
H54   H     H_    0.990031 0.356776 0.367540 0.147885
N1    N     N_R   0.207800 0.519340 0.515510 -0.129631
N2    N     N_R   0.792190 0.480660 0.484490 -0.107837
O1    O     O_R   0.421690 0.658830 0.504140 -0.579955
O2    O     O_3   0.630865 0.184709 0.402728 -0.778890
O3    O     O_3   0.702122 0.798432 0.393568 -0.632081
O4    O     O_3   0.367345 0.643305 0.916378 -0.689173
O5    O     O_3   0.238222 0.645852 0.622223 -0.620642
O6    O     O_3   0.611986 0.659191 0.921711 -0.721173
O7    O     O_3   0.644790 0.634413 0.084905 -0.626786
O8    O     O_R   0.609320 0.646410 0.494190 -0.603246
O9    O     O_R   0.406150 0.506210 0.627840 -0.586679
O10   O     O_R   0.593770 0.493790 0.617880 -0.625551
O11   O     O_R   0.390680 0.353590 0.505810 -0.644975
O12   O     O_R   0.578310 0.341170 0.495860 -0.579388
O13   O     O_R   0.406230 0.506210 0.382120 -0.625126
O14   O     O_R   0.593850 0.493790 0.372160 -0.613416
O15   O     O_3   0.285265 0.477126 0.954121 -0.683291
Zn1   Zn    Zn3+2 0.374720 0.508290 0.506640 0.980917
Zn2   Zn    Zn3+2 0.625280 0.491710 0.493360 0.970107

loop_
_geom_bond_atom_site_label_1
_geom_bond_atom_site_label_2
_ccdc_geom_bond_type
C31   H17   S    
C41   H40   S    
C35   H25   S    
C26   O7    S    
C42   H44   S    
C4    O10   A    
O12   Zn2   S    
C26   H6    S    
C7    C8    A    
C28   C47   S    
C25   C28   S    
C7    C11   A    
C37   H30   S    
C12   C23   S    
C35   H26   S    
C29   C30   S    
C13   C18   A    
C15   H4    S    
C40   H38   S    
C4    O9    A    
C36   C37   S    
C39   H35   S    
C18   C19   A    
C36   H28   S    
C30   C31   S    
C19   H53   S    
C23   C26   S    
H42   O6    S    
C10   H34   S    
C31   H16   S    
C1    C2    S    
C44   H48   S    
C6    H52   S    
C40   H37   S    
C42   O7    S    
C36   H27   S    
O9    Zn1   S    
C44   H49   S    
C14   N2    A    
C14   H3    S    
O8    Zn2   S    
C29   H10   S    
C45   H7    S    
C8    C9    A    
C43   H46   S    
C13   H54   S    
C1    O1    A    
C32   H19   S    
C41   H41   S    
C23   C46   S    
C13   C14   A    
C38   H33   S    
C2    C6    A    
C1    O8    A    
C16   O11   A    
C43   H47   S    
C39   O5    S    
C22   O14   A    
C29   O15   S    
C28   C45   S    
C24   O15   S    
O11   Zn1   S    
C9    C49   A    
C25   H5    S    
C3    C8    A    
C39   C40   S    
C25   O6    S    
N1    Zn1   S    
C25   C26   S    
C17   C21   A    
C11   H51   S    
O13   Zn1   S    
C43   C44   S    
C37   C38   S    
C19   N1    A    
C47   C48   T    
C29   H11   S    
C23   C34   S    
C45   H8    S    
C17   C18   A    
C34   C45   S    
C16   C49   S    
C32   H20   S    
C33   H21   S    
C20   O5    S    
C27   C46   T    
C40   C41   S    
C22   C27   S    
C30   H13   S    
C38   H32   S    
C2    C5    A    
C42   C43   S    
C39   H36   S    
C34   H23   S    
C21   H2    S    
C34   H9    S    
C4    C48   S    
O14   Zn2   S    
C15   C17   A    
C41   H39   S    
C22   O13   A    
C35   H24   S    
C31   H15   S    
C24   O4    S    
C24   C28   S    
C3    C5    A    
C12   H1    S    
C6    C7    A    
C20   N1    A    
C9    O2    S    
C37   H29   S    
C12   C24   S    
C32   C33   S    
C15   N2    A    
C16   O12   A    
C12   H12   S    
H18   O2    S    
C38   H31   S    
O1    Zn1   S    
C33   C35   S    
N2    Zn2   S    
C3    H45   S    
C42   H43   S    
C44   H50   S    
C10   C11   A    
C33   H22   S    
C20   C21   A    
C32   O3    S    
C36   O4    S    
O10   Zn2   S    
C30   H14   S    
C10   C49   A    
C5    O3    S    
