data_mof_unit_54830.cif
_audit_creation_date              2013-03-05T15:55:18-0500
_audit_creation_method            fapswitch 2.2
_symmetry_space_group_name_H-M    P1
_symmetry_Int_Tables_number       1
_space_group_crystal_system       triclinic
_cell_length_a                    27.732292
_cell_length_b                    10.715611
_cell_length_c                    9.881552
_cell_angle_alpha                 89.085214
_cell_angle_beta                  90.105208
_cell_angle_gamma                 92.093426
_cell_volume                      2934.14936309

loop_
_atom_site_label
_atom_site_type_symbol
_atom_site_description
_atom_site_fract_x
_atom_site_fract_y
_atom_site_fract_z
_atom_type_partial_charge
O1    O     O_R   0.500000 0.316780 0.614690 -0.659081
O2    O     O_R   0.500000 0.316750 0.385360 -0.636650
C1    C     C_R   0.502355 0.259620 0.502341 0.869818
O3    O     O_R   0.428760 0.500030 0.614650 -0.654490
O4    O     O_R   0.428750 0.500010 0.385320 -0.640166
C2    C     C_R   0.406060 0.498899 0.500024 0.849300
Zn1   Zn    Zn3+2 0.500000 0.500020 0.653130 0.951883
Zn2   Zn    Zn3+2 0.500000 0.499980 0.346870 0.938031
O5    O     O_R   0.500000 0.683250 0.614640 -0.588747
O6    O     O_R   0.500000 0.683220 0.385310 -0.625183
O7    O     O_R   0.571250 0.499990 0.614680 -0.604746
O8    O     O_R   0.571240 0.499970 0.385350 -0.620598
C3    C     C_R   0.494904 0.738570 0.499209 0.905420
C4    C     C_R   0.593927 0.499906 0.499872 0.900206
C5    C     C_R   0.176179 0.384611 0.467597 0.490011
O9    O     O_2   0.199752 0.280878 0.436403 -0.562357
N1    N     N_R   0.201607 0.490897 0.501803 -0.358786
C6    C     C_R   0.179337 0.598256 0.532672 0.489369
C7    C     C_R   0.277805 0.511278 0.382349 -0.130941
C8    C     C_R   0.327767 0.513213 0.380447 -0.227556
C9    C     C_R   0.328476 0.473125 0.623106 -0.228763
C10   C     C_R   0.277879 0.469586 0.626455 0.150024
C11   C     C_R   0.252964 0.490268 0.503948 0.294125
C12   C     C_R   0.101743 0.492154 0.498607 -0.051531
C13   C     C_R   0.125736 0.383125 0.465504 -0.018574
C14   C     C_R   0.099075 0.275557 0.430622 -0.142799
C15   C     C_R   0.128975 0.600802 0.532289 -0.019006
C16   C     C_R   0.353370 0.495277 0.500936 -0.063948
H1    H     H_    0.348926 0.458364 0.714691 0.158519
H2    H     H_    0.116766 0.191266 0.402545 0.190144
C17   C     C_R   0.646571 0.498660 0.498060 -0.077826
C18   C     C_R   0.972688 0.380085 0.473522 0.045849
C19   C     C_R   0.976081 0.606066 0.521346 0.046741
C20   C     C_R   0.949160 0.493236 0.497263 0.069096
C21   C     C_R   0.944095 0.269131 0.457642 -0.217384
C22   C     C_R   0.894141 0.270403 0.458873 -0.138127
C23   C     C_R   0.870768 0.381913 0.476958 -0.021021
C24   C     C_R   0.898068 0.493575 0.496877 -0.051359
C25   C     C_R   0.874142 0.605571 0.516486 -0.018546
C26   C     C_R   0.823712 0.603836 0.515463 0.488671
N2    N     N_R   0.798203 0.494550 0.494510 -0.359212
C27   C     C_R   0.820388 0.384521 0.476272 0.492930
C28   C     C_R   0.722005 0.468489 0.613194 -0.132995
C29   C     C_R   0.672083 0.469551 0.615929 -0.209131
C30   C     C_R   0.671459 0.524773 0.376617 -0.208824
C31   C     C_R   0.721971 0.522838 0.371836 0.151080
C32   C     C_R   0.746855 0.495311 0.492730 0.292817
O10   O     O_2   0.793667 0.278431 0.456997 -0.552601
C33   C     C_R   0.023753 0.381130 0.467572 0.046170
C34   C     C_R   0.050652 0.492565 0.497964 0.069101
C35   C     C_R   0.027102 0.604389 0.527820 0.045667
C36   C     C_R   0.049082 0.274421 0.431084 -0.218645
H3    H     H_    0.653511 0.446249 0.709691 0.204624
H4    H     H_    0.741646 0.446326 0.704777 0.145192
H5    H     H_    0.873877 0.183043 0.445664 0.192019
H6    H     H_    0.959068 0.178597 0.446578 0.139436
H7    H     H_    0.031461 0.188528 0.399597 0.141320
O11   O     O_2   0.205978 0.701870 0.563749 -0.561884
C37   C     C_R   0.105554 0.708952 0.565881 -0.140299
H8    H     H_    0.346286 0.529982 0.285092 0.169965
H9    H     H_    0.258113 0.526825 0.289232 0.141587
H10   H     H_    0.125760 0.793015 0.594215 0.191500
C38   C     C_R   0.950824 0.717310 0.537253 -0.217741
C39   C     C_R   0.900853 0.716676 0.535381 -0.141877
O12   O     O_2   0.800210 0.710217 0.534910 -0.557575
C40   C     C_R   0.055625 0.710860 0.564295 -0.217965
H11   H     H_    0.968481 0.807628 0.548821 0.139043
H12   H     H_    0.651053 0.546951 0.286738 0.158156
H13   H     H_    0.883222 0.804275 0.548424 0.189810
H14   H     H_    0.040618 0.797160 0.595029 0.141702
H15   H     H_    0.513855 0.114915 0.291021 0.174232
C41   C     C_R   0.500179 0.104590 0.763697 -0.150248
H16   H     H_    0.520890 0.189247 0.784280 0.174932
C42   C     C_R   0.481610 0.039229 0.876423 -0.125922
H17   H     H_    0.485722 0.078072 0.976458 0.145200
C43   C     C_R   0.456941 0.925408 0.859817 -0.120468
H18   H     H_    0.440747 0.876772 0.946184 0.132545
C44   C     C_R   0.455340 0.871259 0.732682 -0.106433
H19   H     H_    0.436468 0.781607 0.723302 0.145126
C45   C     C_R   0.478280 0.931818 0.620295 0.118940
C46   C     C_R   0.494096 0.056519 0.631273 0.094125
C47   C     C_R   0.503265 0.125374 0.508690 -0.119449
C48   C     C_R   0.506119 0.064611 0.384986 -0.208815
H20   H     H_    0.506635 0.891871 0.285696 0.173749
C49   C     C_R   0.500323 0.937552 0.380789 -0.212696
C50   C     C_R   0.488084 0.870515 0.498578 -0.125695
H21   H     H_    0.556881 0.632564 0.126389 0.150883
C51   C     C_R   0.434658 0.340292 0.142449 -0.160330
H22   H     H_    0.433262 0.332181 0.249798 0.207642
C52   C     C_R   0.402049 0.263053 0.073021 -0.204484
H23   H     H_    0.377041 0.201462 0.128387 0.162441
C53   C     C_R   0.402102 0.263201 0.932981 -0.213263
H24   H     H_    0.377365 0.201173 0.879136 0.157639
C54   C     C_R   0.434749 0.340579 0.861629 -0.166522
H25   H     H_    0.433974 0.331662 0.754552 0.209300
C55   C     C_R   0.467597 0.421930 0.928588 0.127652
C56   C     C_R   0.467612 0.421853 0.073368 0.168247
N3    N     N_R   0.499540 0.498800 0.142780 -0.126698
C57   C     C_R   0.531393 0.573210 0.071672 -0.170577
C58   C     C_R   0.531581 0.573757 0.928606 -0.000927
N4    N     N_R   0.499520 0.498720 0.857170 -0.170869
C59   C     C_3   0.750499 0.548704 0.242036 -0.431039
C60   C     C_3   0.720328 0.572646 0.114029 -0.349951
C61   C     C_3   0.752490 0.593943 0.989969 -0.814768
H26   H     H_    0.777558 0.675826 0.004839 0.267068
H27   H     H_    0.773711 0.510015 0.971161 0.254553
H28   H     H_    0.729736 0.612214 0.899722 0.264163
H29   H     H_    0.695559 0.490814 0.095124 0.240344
H30   H     H_    0.698747 0.656982 0.127468 0.237378
H31   H     H_    0.775080 0.631428 0.258051 0.224885
H32   H     H_    0.773130 0.467170 0.223509 0.219281
C62   C     C_3   0.249299 0.444520 0.756326 -0.416092
C63   C     C_3   0.279323 0.414306 0.882921 -0.375764
C64   C     C_3   0.247095 0.387318 0.005755 -0.829054
H33   H     H_    0.225858 0.470206 0.029069 0.257925
H34   H     H_    0.222046 0.306258 0.986517 0.269736
H35   H     H_    0.269832 0.364887 0.094894 0.256422
H36   H     H_    0.300751 0.330649 0.864475 0.231193
H37   H     H_    0.304166 0.494823 0.906579 0.230164
H38   H     H_    0.227932 0.527768 0.777330 0.224970
H39   H     H_    0.223550 0.364405 0.738761 0.215810
C65   C     C_2   0.568164 0.654427 0.860171 0.963844
O13   O     O_2   0.557427 0.756163 0.814241 -0.613466
O14   O     O_R   0.616111 0.618969 0.859327 -0.841662
H40   H     H_    0.638387 0.683316 0.812828 0.342413

loop_
_geom_bond_atom_site_label_1
_geom_bond_atom_site_label_2
_geom_bond_distance
_ccdc_geom_bond_type
C12   C13   1.408717 A    
N2    C27   1.364297 A    
C7    C8    1.385108 A    
C12   C15   1.408466 A    
C4    C17   1.460616 S    
C61   H27   1.110899 S    
C64   H33   1.110886 S    
C40   H14   1.076192 S    
C49   C50   1.393879 A    
Zn1   O7    2.012821 S    
C25   C39   1.393986 A    
C31   C59   1.524545 S    
N1    C11   1.424607 S    
C42   C43   1.388361 A    
C53   H24   1.082670 S    
C22   C23   1.394174 A    
C43   C44   1.392156 A    
C37   C40   1.385599 A    
O4    C2    1.297089 A    
O7    C4    1.298170 A    
C44   C45   1.417239 A    
C5    C13   1.398539 A    
C5    O9    1.350075 S    
C56   N3    1.377237 A    
O5    C3    1.287002 A    
N1    C6    1.364457 A    
C23   C27   1.398440 A    
Zn2   N3    2.016981 S    
C61   H26   1.110823 S    
C45   C50   1.411224 A    
C63   H37   1.111815 S    
C29   H3    1.082137 S    
C6    O11   1.350197 S    
C2    C16   1.460366 S    
C21   C22   1.385981 A    
C3    C50   1.433205 S    
C60   H29   1.111938 S    
C8    H8    1.083298 S    
H21   C57   1.083159 S    
C41   C46   1.421435 A    
Zn2   O8    2.011225 S    
O1    Zn1   2.005877 S    
C55   N4    1.374548 A    
C59   H32   1.111906 S    
C54   H25   1.064016 S    
C30   H12   1.080177 S    
O3    Zn1   2.011228 S    
C62   C63   1.538152 S    
C34   C35   1.420765 A    
H15   C48   1.083991 S    
C12   C34   1.417041 A    
C38   H11   1.076215 S    
C17   C29   1.398558 A    
C18   C21   1.415479 A    
C43   H18   1.082489 S    
C41   C42   1.395471 A    
C42   H17   1.082890 S    
C25   C26   1.397990 A    
C62   H38   1.111278 S    
C44   H19   1.082286 S    
C41   H16   1.077774 S    
C8    C16   1.399357 A    
C13   C14   1.394128 A    
C30   C31   1.402606 A    
C9    H1    1.079715 S    
C47   C48   1.397854 A    
C46   C47   1.426601 A    
C38   C39   1.385656 A    
O1    C1    1.279390 A    
C35   C40   1.415424 A    
C18   C20   1.420694 A    
C7    C11   1.397195 A    
C28   C29   1.385231 A    
C23   C24   1.408688 A    
C14   C36   1.386033 A    
C28   H4    1.082979 S    
C52   C53   1.383792 A    
C57   C58   1.413649 A    
C19   C38   1.415515 A    
C33   C36   1.415503 A    
C55   C56   1.430641 A    
C1    C47   1.440030 S    
C53   C54   1.390362 A    
C19   C20   1.420702 A    
N2    C32   1.424391 S    
C27   O10   1.350043 S    
C39   H13   1.083708 S    
H20   C49   1.083867 S    
C54   C55   1.409167 A    
O3    C2    1.294868 A    
C26   N2    1.364337 A    
C48   C49   1.366409 A    
C9    C16   1.404383 A    
C51   C52   1.390936 A    
C33   C34   1.420591 A    
C10   C62   1.524614 S    
C26   O12   1.350166 S    
Zn1   N4    2.016122 S    
C59   H31   1.111503 S    
C65   O14   1.396281 S    
C63   C64   1.526304 S    
C5    N1    1.364333 A    
C31   C32   1.411003 A    
C37   H10   1.083692 S    
C21   H6    1.076340 S    
C20   C24   1.417019 A    
O2    Zn2   1.993949 S    
C6    C15   1.397913 A    
C51   C56   1.410634 A    
O8    C4    1.293789 A    
C45   C46   1.396908 A    
O6    C3    1.290938 A    
O4    Zn2   2.012824 S    
C64   H34   1.110809 S    
C14   H2    1.083691 S    
C19   C35   1.416997 A    
C60   H30   1.111826 S    
O2    C1    1.302042 A    
C62   H39   1.112013 S    
C22   H5    1.083683 S    
C15   C37   1.393974 A    
C52   H23   1.082736 S    
C24   C25   1.408598 A    
C7    H9    1.082839 S    
C58   N4    1.378028 A    
C58   C65   1.467505 S    
C59   C60   1.538606 S    
C18   C33   1.417103 A    
C64   H35   1.110628 S    
C36   H7    1.076327 S    
C63   H36   1.111081 S    
Zn1   O5    1.993951 S    
C51   H22   1.063607 S    
Zn2   O6    2.005877 S    
N3    C57   1.357478 A    
C17   C30   1.404647 A    
C60   C61   1.526653 S    
C10   C11   1.411224 A    
C65   O13   1.220869 D    
C9    C10   1.402721 A    
C28   C32   1.397180 A    
C61   H28   1.110498 S    
O14   H40   1.013901 S    
