data_mof_unit_34093.cif
_audit_creation_date              2013-03-05T15:46:35-0500
_audit_creation_method            fapswitch 2.2
_symmetry_space_group_name_H-M    P1
_symmetry_Int_Tables_number       1
_space_group_crystal_system       triclinic
_cell_length_a                    17.476506
_cell_length_b                    24.251637
_cell_length_c                    15.033838
_cell_angle_alpha                 89.662453
_cell_angle_beta                  125.472835
_cell_angle_gamma                 90.665926
_cell_volume                      5188.82226462

loop_
_atom_site_label
_atom_site_type_symbol
_atom_site_description
_atom_site_fract_x
_atom_site_fract_y
_atom_site_fract_z
_atom_type_partial_charge
C1    C     C_R   0.358707 0.345962 0.909368 0.262849
C2    C     C_R   0.641297 0.346267 0.089064 0.283264
C3    C     C_R   0.860435 0.845525 0.909965 0.293306
C4    C     C_R   0.158499 0.852010 0.089733 0.305338
N1    N     N_R   0.394180 0.396910 0.943210 -0.089900
N2    N     N_R   0.605820 0.396910 0.056790 -0.089302
N3    N     N_R   0.894180 0.896910 0.943210 -0.085483
N4    N     N_R   0.105820 0.896910 0.056790 -0.095636
C5    C     C_R   0.403940 0.629669 0.088544 -0.046410
C6    C     C_R   0.597781 0.623613 0.907805 -0.059773
C7    C     C_R   0.904210 0.128835 0.089513 -0.063982
C8    C     C_R   0.097756 0.123451 0.907678 -0.041990
H1    H     H_    0.433382 0.646425 0.168577 0.117343
H2    H     H_    0.567805 0.630983 0.823030 0.144946
H3    H     H_    0.934863 0.142962 0.171237 0.129929
H4    H     H_    0.067818 0.130703 0.822862 0.143651
N5    N     N_R   0.450950 0.603070 0.056740 -0.047973
N6    N     N_R   0.549050 0.603070 0.943260 -0.059263
N7    N     N_R   0.950950 0.103070 0.056740 -0.058227
N8    N     N_R   0.049050 0.103070 0.943260 -0.051293
C9    C     C_R   0.487982 0.452987 0.256296 -0.090862
C10   C     C_R   0.453921 0.453699 0.699007 -0.077842
C11   C     C_R   0.994636 0.953019 0.263405 -0.079264
C12   C     C_R   0.951273 0.953930 0.697618 -0.090300
H5    H     H_    0.478338 0.410106 0.266702 0.105830
H6    H     H_    0.438153 0.411103 0.673569 0.134110
H7    H     H_    0.986401 0.910107 0.275672 0.106879
H8    H     H_    0.935585 0.911390 0.671629 0.135481
N9    N     N_R   0.525650 0.471570 0.206150 -0.044036
N10   N     N_R   0.474350 0.471570 0.793850 -0.046994
N11   N     N_R   0.025650 0.971570 0.206150 -0.045650
N12   N     N_R   0.974350 0.971570 0.793850 -0.046781
C13   C     C_R   0.242021 0.545864 0.702225 0.235482
C14   C     C_R   0.744831 0.546518 0.306150 0.260011
C15   C     C_R   0.754082 0.046568 0.694685 0.250677
C16   C     C_R   0.257541 0.046263 0.298637 0.229466
N13   N     N_R   0.319480 0.528420 0.793810 -0.100782
N14   N     N_R   0.680520 0.528420 0.206190 -0.102185
N15   N     N_R   0.819480 0.028420 0.793810 -0.099508
N16   N     N_R   0.180520 0.028420 0.206190 -0.099160
C17   C     C_R   0.495681 0.545012 0.265168 -0.043694
C18   C     C_R   0.453243 0.545466 0.697683 -0.008275
C19   C     C_R   0.003818 0.045223 0.272376 0.002059
C20   C     C_R   0.951161 0.045642 0.697378 -0.040906
H9    H     H_    0.500208 0.586556 0.292405 0.116888
H10   H     H_    0.436444 0.587633 0.669968 0.141969
H11   H     H_    0.011630 0.086902 0.300472 0.121035
H12   H     H_    0.934541 0.087920 0.670749 0.148175
N17   N     N_R   0.525640 0.528390 0.206120 -0.051332
N18   N     N_R   0.474360 0.528390 0.793880 -0.062754
N19   N     N_R   0.025640 0.028390 0.206120 -0.054539
N20   N     N_R   0.974360 0.028390 0.793880 -0.060272
C21   C     C_R   0.236144 0.454279 0.707856 -0.103811
C22   C     C_R   0.757280 0.456179 0.303629 -0.107554
C23   C     C_R   0.741331 0.955951 0.697058 -0.103367
C24   C     C_R   0.261039 0.954795 0.295822 -0.122992
H13   H     H_    0.213323 0.411982 0.686628 0.171518
H14   H     H_    0.781119 0.414605 0.327433 0.182269
H15   H     H_    0.717357 0.914191 0.673060 0.182158
H16   H     H_    0.280711 0.912713 0.321323 0.191849
N21   N     N_R   0.319490 0.471590 0.793840 -0.069049
N22   N     N_R   0.680510 0.471590 0.206160 -0.062669
N23   N     N_R   0.819490 0.971590 0.793840 -0.061630
N24   N     N_R   0.180510 0.971590 0.206160 -0.075850
C25   C     C_R   0.309859 0.621208 0.907010 -0.127254
C26   C     C_R   0.691473 0.620802 0.090104 -0.047514
C27   C     C_R   0.809837 0.122472 0.907944 -0.037722
C28   C     C_R   0.191446 0.120880 0.089876 -0.089890
H17   H     H_    0.250721 0.625150 0.822910 0.154481
H18   H     H_    0.750973 0.623035 0.173997 0.143788
H19   H     H_    0.750733 0.124226 0.823862 0.144028
H20   H     H_    0.251610 0.123522 0.173465 0.137248
N25   N     N_R   0.394130 0.603080 0.943110 -0.046136
N26   N     N_R   0.605870 0.603080 0.056890 -0.039581
N27   N     N_R   0.894130 0.103080 0.943110 -0.041747
N28   N     N_R   0.105870 0.103080 0.056890 -0.043123
C29   C     C_R   0.437009 0.348964 0.090237 -0.116083
C30   C     C_R   0.564236 0.350885 0.907864 -0.085286
C31   C     C_R   0.939350 0.848409 0.090805 -0.144235
C32   C     C_R   0.069514 0.854249 0.906723 -0.086570
H21   H     H_    0.477560 0.335801 0.174329 0.165605
H22   H     H_    0.525614 0.339376 0.822855 0.156038
H23   H     H_    0.981088 0.835305 0.175021 0.155444
H24   H     H_    0.030063 0.841389 0.822195 0.173943
N29   N     N_R   0.450990 0.396900 0.056840 -0.067357
N30   N     N_R   0.549010 0.396900 0.943160 -0.068316
N31   N     N_R   0.950990 0.896900 0.056840 -0.066456
N32   N     N_R   0.049010 0.896900 0.943160 -0.068515
C33   C     C_R   0.378317 0.316078 0.999323 -0.051130
C34   C     C_R   0.622646 0.317959 0.998046 -0.052021
C35   C     C_R   0.881061 0.815366 0.000116 -0.057394
C36   C     C_R   0.136968 0.825032 0.997133 -0.092879
C37   C     C_R   0.314335 0.638854 0.995864 0.102872
C38   C     C_R   0.689510 0.633309 0.998193 0.029624
C39   C     C_R   0.812877 0.137928 0.998347 0.036222
C40   C     C_R   0.189399 0.133172 0.998049 0.025601
C41   C     C_R   0.464800 0.498681 0.290584 0.026303
C42   C     C_R   0.438372 0.499350 0.635584 0.033587
C43   C     C_R   0.976615 0.999008 0.302427 0.029077
C44   C     C_R   0.934009 0.999787 0.634293 0.021266
C45   C     C_R   0.183488 0.500242 0.653456 0.048211
C46   C     C_R   0.797350 0.502777 0.368601 -0.096848
C47   C     C_R   0.700456 0.002645 0.632741 -0.092026
C48   C     C_R   0.314536 0.000832 0.349936 0.040604
Ni1   Ni    Ni4+2 0.434860 0.434850 0.869700 0.284663
Ni2   Ni    Ni4+2 0.565140 0.434850 0.130300 0.283733
Ni3   Ni    Ni4+2 0.934860 0.934850 0.869700 0.276275
Ni4   Ni    Ni4+2 0.065140 0.934850 0.130300 0.276288
Ni5   Ni    Ni4+2 0.565130 0.565140 0.130240 0.313588
Ni6   Ni    Ni4+2 0.434870 0.565140 0.869760 0.292815
Ni7   Ni    Ni4+2 0.065130 0.065140 0.130240 0.306543
Ni8   Ni    Ni4+2 0.934870 0.065140 0.869760 0.300262
C49   C     C_R   0.035908 0.547889 0.533615 -0.091347
C50   C     C_R   0.942458 0.554564 0.481332 0.095499
C51   C     C_R   0.557214 0.054961 0.518209 0.108225
C52   C     C_R   0.463289 0.049013 0.465098 -0.099346
C53   C     C_R   0.083156 0.503651 0.602249 0.017209
C54   C     C_R   0.888661 0.509018 0.471614 0.022575
C55   C     C_R   0.609175 0.008737 0.529597 0.026931
C56   C     C_R   0.414672 0.004004 0.399261 0.015468
C57   C     C_R   0.032011 0.470028 0.630755 0.163825
C58   C     C_R   0.931572 0.468407 0.555067 0.139697
C59   C     C_R   0.564724 0.967813 0.446675 0.144333
C60   C     C_R   0.464283 0.969356 0.371446 0.162746
C61   C     C_3   0.938579 0.594464 0.401393 -0.012077
C62   C     C_3   0.042124 0.583679 0.456296 0.131604
C63   C     C_3   0.457596 0.085653 0.540841 0.109852
C64   C     C_3   0.561765 0.096022 0.596361 0.005685
H25   H     H_    0.892686 0.581611 0.314284 0.076089
H26   H     H_    0.087219 0.621038 0.493148 0.163840
H27   H     H_    0.413845 0.122963 0.502809 0.163000
H28   H     H_    0.606669 0.084095 0.683961 0.078764
C65   C     C_R   0.232354 0.722390 0.913296 -0.159005
C66   C     C_R   0.843776 0.681390 0.096492 -0.114556
C67   C     C_R   0.661929 0.187929 0.897756 -0.146809
C68   C     C_R   0.342570 0.182225 0.096931 -0.179920
H29   H     H_    0.255825 0.722074 0.860536 0.167929
H30   H     H_    0.866520 0.663319 0.173796 0.174826
H31   H     H_    0.639956 0.170799 0.820288 0.176896
H32   H     H_    0.364868 0.165001 0.174886 0.159823
C69   C     C_R   0.617856 0.235030 0.897901 -0.057782
C70   C     C_R   0.385836 0.230582 0.097162 -0.063441
C71   C     C_R   0.191480 0.769056 0.915628 -0.132556
C72   C     C_R   0.887913 0.729572 0.097307 -0.100136
H33   H     H_    0.561880 0.252004 0.820247 0.158441
H34   H     H_    0.441889 0.247702 0.175008 0.161788
H35   H     H_    0.182741 0.803423 0.864062 0.139014
H36   H     H_    0.944470 0.746380 0.175242 0.153012
C73   C     C_R   0.652732 0.262087 0.996850 0.105518
C74   C     C_R   0.349645 0.258801 0.998923 0.115558
C75   C     C_R   0.168861 0.772951 0.989714 0.117237
C76   C     C_R   0.852213 0.757996 0.999373 0.095427
C77   C     C_R   0.721653 0.236496 0.095452 -0.200200
C78   C     C_R   0.280281 0.233050 0.899867 -0.202805
C79   C     C_R   0.178410 0.728375 0.054848 -0.130893
C80   C     C_R   0.782555 0.732498 0.900086 -0.189650
H37   H     H_    0.750225 0.255737 0.173386 0.194133
H38   H     H_    0.250623 0.253226 0.822432 0.191930
H39   H     H_    0.153755 0.731252 0.106133 0.196143
H40   H     H_    0.753926 0.752565 0.822771 0.193458
C81   C     C_R   0.221447 0.680537 0.054636 0.319168
C82   C     C_R   0.746136 0.681075 0.898942 0.326116
C83   C     C_R   0.756184 0.185551 0.094928 0.346158
C84   C     C_R   0.245734 0.181109 0.899204 0.327802
C85   C     C_R   0.251512 0.679321 0.985753 -0.047651
C86   C     C_R   0.764872 0.660891 0.997682 -0.019635
C87   C     C_R   0.738773 0.166829 0.996618 -0.020161
C88   C     C_R   0.264657 0.160964 0.998003 -0.009404
C89   C     C_R   0.399637 0.548393 0.470043 -0.043389
C90   C     C_R   0.406860 0.548117 0.383350 -0.052942
C91   C     C_R   0.909504 0.050231 0.479294 -0.068538
C92   C     C_R   0.928648 0.049741 0.403013 -0.009776
H41   H     H_    0.397159 0.587824 0.501322 0.153081
H42   H     H_    0.408642 0.587303 0.349940 0.150867
H43   H     H_    0.911107 0.089718 0.513173 0.155852
H44   H     H_    0.944333 0.088830 0.382442 0.173578
C93   C     C_R   0.422876 0.498239 0.350387 0.112740
C94   C     C_R   0.407776 0.498708 0.522726 0.121622
C95   C     C_R   0.936839 0.999516 0.364113 0.106718
C96   C     C_R   0.904907 0.000270 0.522621 0.091722
C97   C     C_R   0.410220 0.448247 0.387462 -0.140386
C98   C     C_R   0.402510 0.448480 0.473712 -0.122170
C99   C     C_R   0.911649 0.950182 0.390220 -0.127567
C100  C     C_R   0.895669 0.950533 0.470101 -0.158166
H45   H     H_    0.415392 0.408859 0.358208 0.127038
H46   H     H_    0.402360 0.409187 0.507801 0.132843
H47   H     H_    0.911632 0.910985 0.356360 0.130206
H48   H     H_    0.885857 0.911482 0.497437 0.136409
N33   N     N_R   0.354844 0.321088 0.819931 0.220331
O1    O     O_R   0.393486 0.273335 0.833225 -0.378311
O2    O     O_R   0.337446 0.351258 0.738625 -0.446917
N34   N     N_R   0.644315 0.319450 0.176871 0.219662
O3    O     O_R   0.606080 0.270822 0.161386 -0.381375
O4    O     O_R   0.660559 0.348247 0.258782 -0.450869
N35   N     N_R   0.858364 0.820785 0.821616 0.219159
O5    O     O_R   0.899006 0.773598 0.836400 -0.382110
O6    O     O_R   0.839867 0.850677 0.739573 -0.461427
N36   N     N_R   0.205534 0.829079 0.196866 0.209608
O7    O     O_R   0.168350 0.832782 0.250528 -0.417029
O8    O     O_R   0.286228 0.805073 0.241924 -0.412418
N37   N     N_R   0.922395 0.651036 0.420746 0.275272
O9    O     O_R   0.965779 0.670353 0.519661 -0.330212
O10   O     O_R   0.865156 0.682869 0.338923 -0.380154
N38   N     N_R   0.056863 0.553358 0.383361 0.271574
O11   O     O_R   0.074334 0.500763 0.395372 -0.351726
O12   O     O_R   0.052681 0.579648 0.305006 -0.323680
N39   N     N_R   0.440425 0.055712 0.612767 0.270742
O13   O     O_R   0.461581 0.003809 0.635304 -0.367731
O14   O     O_R   0.416256 0.083125 0.666804 -0.289842
N40   N     N_R   0.580126 0.152089 0.575082 0.274692
O15   O     O_R   0.537304 0.170380 0.475514 -0.346007
O16   O     O_R   0.639457 0.184309 0.655669 -0.373926
N41   N     N_R   0.234813 0.634842 0.123963 0.231108
O17   O     O_R   0.241961 0.584765 0.099051 -0.410071
O18   O     O_R   0.230986 0.642375 0.206960 -0.349056
N42   N     N_R   0.691134 0.650224 0.798707 0.229892
O19   O     O_R   0.694510 0.596599 0.801009 -0.386248
O20   O     O_R   0.647472 0.675195 0.704738 -0.371131
N43   N     N_R   0.804972 0.152448 0.191925 0.220492
O21   O     O_R   0.795791 0.099051 0.182848 -0.422948
O22   O     O_R   0.843233 0.174955 0.287471 -0.397082
N44   N     N_R   0.191751 0.149893 0.799319 0.232487
O23   O     O_R   0.195753 0.096284 0.802381 -0.374964
O24   O     O_R   0.148272 0.174539 0.705036 -0.364209
N45   N     N_R   0.248340 0.589350 0.641853 0.213375
O25   O     O_R   0.244379 0.576855 0.555234 -0.377377
O26   O     O_R   0.285854 0.636450 0.688998 -0.426454
N46   N     N_R   0.733921 0.596640 0.348360 0.246070
O27   O     O_R   0.773011 0.602177 0.452467 -0.330702
O28   O     O_R   0.673759 0.633400 0.281896 -0.390502
N47   N     N_R   0.764673 0.097040 0.651746 0.235815
O29   O     O_R   0.727629 0.101684 0.547940 -0.358142
O30   O     O_R   0.823672 0.134888 0.717690 -0.399269
N48   N     N_R   0.250528 0.089949 0.357029 0.218416
O31   O     O_R   0.247283 0.077579 0.439095 -0.336653
O32   O     O_R   0.219823 0.137829 0.310967 -0.413191
C101  C     C_3   0.080860 0.441912 0.742219 -0.420081
C102  C     C_3   0.129303 0.483893 0.835566 -0.768486
H49   H     H_    0.186631 0.506331 0.839360 0.239531
H50   H     H_    0.077465 0.514219 0.825026 0.275028
H51   H     H_    0.160216 0.462271 0.914624 0.257909
H52   H     H_    0.031168 0.419089 0.751915 0.215040
H53   H     H_    0.130816 0.410207 0.754232 0.184080
C103  C     C_3   0.871146 0.425753 0.563059 -0.391305
C104  C     C_3   0.892024 0.366847 0.547247 -0.757997
H54   H     H_    0.890794 0.363682 0.472881 0.257453
H55   H     H_    0.961876 0.353260 0.617945 0.241222
H56   H     H_    0.838205 0.338158 0.538868 0.280920
H57   H     H_    0.880584 0.429464 0.642382 0.205964
H58   H     H_    0.795250 0.433399 0.501266 0.220149
C105  C     C_3   0.623693 0.925261 0.438236 -0.418588
C106  C     C_3   0.602351 0.866363 0.455903 -0.736393
H59   H     H_    0.603157 0.863712 0.530092 0.256963
H60   H     H_    0.532537 0.851876 0.385534 0.253305
H61   H     H_    0.656138 0.838015 0.465543 0.274621
H62   H     H_    0.613193 0.928560 0.358216 0.205421
H63   H     H_    0.699898 0.933487 0.498770 0.212492
C107  C     C_3   0.413993 0.940194 0.260861 -0.374607
C108  C     C_3   0.367633 0.981407 0.166380 -0.837996
H64   H     H_    0.312747 0.005502 0.163262 0.245090
H65   H     H_    0.421308 0.010373 0.175048 0.274320
H66   H     H_    0.334079 0.958908 0.087796 0.261566
H67   H     H_    0.462310 0.916325 0.251617 0.212873
H68   H     H_    0.362513 0.909199 0.249935 0.211238

loop_
_geom_bond_atom_site_label_1
_geom_bond_atom_site_label_2
_geom_bond_distance
_ccdc_geom_bond_type
C11   C43   1.384762 A    
C91   C92   1.368510 A    
C60   C107  1.529746 S    
C6    C38   1.392272 A    
C65   H29   1.084079 S    
C10   C42   1.379318 A    
N7    N27   1.391220 A    
C23   H15   1.072544 S    
N11   Ni4   1.873315 S    
C70   H34   1.080427 S    
C15   N15   1.322089 A    
C107  H67   1.102700 S    
C4    N4    1.329026 A    
C108  H66   1.110605 S    
C48   C56   1.452507 S    
C38   C86   1.474226 S    
N26   Ni5   1.858391 S    
N46   O28   1.300237 A    
C98   H46   1.080025 S    
C69   C73   1.401729 A    
N25   Ni6   1.872962 S    
C8    C40   1.391418 A    
C82   N42   1.438723 S    
C97   C98   1.379290 A    
C30   C34   1.384802 A    
C71   H35   1.084836 S    
C102  H51   1.110602 S    
C7    N7    1.335307 A    
N27   Ni8   1.872962 S    
C14   C46   1.363806 A    
C1    N33   1.442091 S    
C103  H58   1.109185 S    
C101  H52   1.102997 S    
C77   C83   1.383352 A    
C13   C45   1.385978 A    
C78   C84   1.388100 A    
C50   C54   1.394151 A    
C19   C43   1.384633 A    
C78   H38   1.078036 S    
N42   O20   1.301629 A    
C3    N3    1.341140 A    
C18   C42   1.383430 A    
C54   C58   1.420250 A    
C35   C76   1.472226 S    
C5    H1    1.076998 S    
C93   C97   1.399415 A    
N20   Ni8   1.874037 S    
N28   Ni7   1.858391 S    
C16   N48   1.430713 S    
C51   C52   1.351838 A    
C26   N26   1.338936 A    
C23   C47   1.389906 A    
C25   H17   1.077083 S    
N18   Ni6   1.874037 S    
C32   N32   1.319657 A    
C25   N25   1.319621 A    
C103  C104  1.532058 S    
N8    N28   1.391222 A    
C21   N21   1.332572 A    
C3    C35   1.388952 A    
C18   H10   1.079585 S    
N33   O2    1.298149 A    
C73   C77   1.402726 A    
N12   N20   1.377979 A    
C16   N16   1.324004 A    
C68   C70   1.386888 A    
C64   N40   1.469028 S    
N8    Ni8   1.859890 S    
C7    H3    1.072687 S    
N3    N31   1.391221 A    
N31   Ni4   1.859761 S    
C8    H4    1.075062 S    
C21   C45   1.377601 A    
C25   C37   1.363213 A    
N12   Ni3   1.859248 S    
C23   N23   1.347013 A    
C1    C33   1.388485 A    
C40   C88   1.471264 S    
N36   O7    1.300733 A    
C75   C79   1.399064 A    
C91   C96   1.395696 A    
C42   C94   1.453285 S    
N21   Ni1   1.876381 S    
C52   C56   1.381347 A    
C31   C35   1.385877 A    
C46   C54   1.447993 S    
C68   H32   1.080640 S    
C26   C38   1.393833 A    
N1    N29   1.391221 A    
C30   N30   1.332457 A    
C4    N36   1.429162 S    
N10   N18   1.377979 A    
C72   C76   1.401452 A    
C29   N29   1.338719 A    
N6    N26   1.391222 A    
C82   C86   1.407631 A    
C101  C102  1.529900 S    
C81   N41   1.441789 S    
N3    Ni3   1.859592 S    
C27   C39   1.382833 A    
N37   O10   1.299385 A    
C2    N2    1.337817 A    
N48   O32   1.299815 A    
C34   C73   1.463073 S    
C67   C87   1.401715 A    
C64   H28   1.111388 S    
C17   N17   1.331639 A    
N46   O27   1.301435 A    
C94   C98   1.401597 A    
C66   C86   1.403804 A    
N24   Ni4   1.860441 S    
N16   Ni7   1.876377 S    
C95   C99   1.400744 A    
C11   H7    1.078343 S    
N41   O18   1.301765 A    
C102  H50   1.110959 S    
C65   C71   1.356710 A    
C57   C58   1.434644 A    
C103  H57   1.109084 S    
C101  H53   1.103185 S    
C90   C93   1.401080 A    
C79   H39   1.082552 S    
N39   O13   1.302424 A    
C89   C90   1.380480 A    
C76   C80   1.405979 A    
C59   C60   1.434794 A    
C63   N39   1.465902 S    
N42   O19   1.301870 A    
C24   C48   1.373362 A    
C105  C106  1.532327 S    
C6    H2    1.074842 S    
N11   N19   1.377977 A    
C32   H24   1.081805 S    
N5    N25   1.391220 A    
C50   C61   1.509463 S    
C97   H45   1.080351 S    
C14   N14   1.322953 A    
C4    C36   1.380106 A    
N1    Ni1   1.859592 S    
C49   C62   1.499600 S    
C22   N22   1.345493 A    
C62   N38   1.466657 S    
N41   O17   1.301509 A    
C91   H43   1.079744 S    
C52   C63   1.497185 S    
C3    N35   1.441725 S    
C51   C64   1.510577 S    
C100  H48   1.081037 S    
C39   C87   1.466613 S    
N4    N32   1.391220 A    
C11   N11   1.329801 A    
C32   C36   1.373890 A    
C15   C47   1.362267 A    
C83   C87   1.402102 A    
C99   C100  1.381924 A    
C12   N12   1.328459 A    
C43   C95   1.446359 S    
C65   C85   1.400379 A    
N43   O22   1.301671 A    
C9    C41   1.384697 A    
C30   H22   1.079565 S    
C41   C93   1.452409 S    
C84   C88   1.406888 A    
C28   H20   1.074558 S    
C61   N37   1.468403 S    
C8    N8    1.330644 A    
C36   C75   1.417247 S    
C24   N24   1.329897 A    
N45   O25   1.300744 A    
N2    Ni2   1.874155 S    
C79   C81   1.390971 A    
C28   C40   1.390710 A    
N9    N17   1.377977 A    
N14   Ni5   1.876377 S    
N44   O24   1.301637 A    
C90   H42   1.080834 S    
N13   Ni6   1.860446 S    
C31   N31   1.339025 A    
C18   N18   1.332757 A    
C106  H61   1.110402 S    
C49   C53   1.384259 A    
C1    N1    1.339161 A    
C92   C95   1.398473 A    
C5    N5    1.338495 A    
N15   Ni8   1.860446 S    
N38   O12   1.300689 A    
N40   O15   1.302772 A    
N7    Ni7   1.876318 S    
N47   O30   1.300316 A    
C61   H25   1.111470 S    
C10   H6    1.079393 S    
C61   C62   1.516330 S    
C12   H8    1.079823 S    
C17   C41   1.385615 A    
N9    Ni2   1.873315 S    
N30   Ni1   1.876197 S    
C27   N27   1.334199 A    
N48   O31   1.300708 A    
N22   Ni2   1.860441 S    
N23   Ni3   1.876381 S    
C108  H64   1.106462 S    
C44   C96   1.444375 S    
C5    C37   1.383954 A    
C89   C94   1.400512 A    
N43   O21   1.301205 A    
C96   C100  1.401125 A    
N15   N23   1.378218 A    
N13   N21   1.378218 A    
C66   C72   1.388795 A    
C106  H60   1.107973 S    
C49   C50   1.351299 A    
C22   H14   1.072693 S    
C13   N45   1.431948 S    
C7    C39   1.392983 A    
N32   Ni3   1.876197 S    
C9    H5    1.076556 S    
C102  H49   1.106585 S    
C33   C74   1.470038 S    
N19   Ni7   1.859965 S    
C10   N10   1.327099 A    
C12   C44   1.376981 A    
C22   C46   1.386453 A    
C47   C55   1.450157 S    
N29   Ni2   1.859761 S    
N6    Ni6   1.859890 S    
C2    N34   1.441595 S    
C107  H68   1.102563 S    
C108  H65   1.110985 S    
C21   H13   1.076921 S    
C20   N20   1.326019 A    
C66   H30   1.078245 S    
C58   C103  1.523169 S    
C63   C64   1.517360 S    
C29   C33   1.386704 A    
C80   H40   1.078061 S    
C55   C59   1.419597 A    
C28   N28   1.340035 A    
C15   N47   1.439895 S    
C68   C88   1.405048 A    
C67   H31   1.076741 S    
C51   C55   1.396973 A    
N2    N30   1.391220 A    
N37   O9    1.302702 A    
C16   C48   1.387359 A    
C45   C53   1.452586 S    
N34   O3    1.302254 A    
C70   C74   1.401301 A    
C63   H27   1.110339 S    
C104  H55   1.108080 S    
C107  C108  1.529510 S    
N17   Ni5   1.859965 S    
N10   Ni1   1.859248 S    
C20   H12   1.078430 S    
C17   H9    1.074445 S    
C105  H63   1.109473 S    
C31   H23   1.079260 S    
C20   C44   1.378685 A    
C89   H41   1.080439 S    
C19   N19   1.324230 A    
C105  H62   1.109188 S    
C26   H18   1.073433 S    
N5    Ni5   1.876318 S    
C6    N6    1.330981 A    
C84   N44   1.438981 S    
C57   C101  1.530192 S    
N16   N24   1.378219 A    
C71   C75   1.385235 A    
C69   H33   1.080527 S    
N45   O26   1.299903 A    
C27   H19   1.073114 S    
C9    N9    1.330375 A    
C77   H37   1.077895 S    
N33   O1    1.302276 A    
C14   N46   1.439252 S    
C13   N13   1.323045 A    
C37   C85   1.421707 S    
N35   O5    1.302361 A    
C92   H44   1.076255 S    
C67   C69   1.385802 A    
C24   H16   1.075774 S    
N38   O11   1.301963 A    
C2    C34   1.392172 A    
C29   H21   1.078454 S    
C74   C78   1.405471 A    
C104  H56   1.110370 S    
N47   O29   1.301649 A    
N39   O14   1.300574 A    
C62   H26   1.109717 S    
N4    Ni4   1.874155 S    
C59   C105  1.523524 S    
N36   O8    1.300875 A    
C53   C57   1.439117 A    
N40   O16   1.299155 A    
N35   O6    1.297489 A    
C104  H54   1.108762 S    
C19   H11   1.074079 S    
N44   O23   1.301901 A    
C80   C82   1.389153 A    
C81   C85   1.407701 A    
C99   H47   1.080878 S    
C56   C60   1.440323 A    
N34   O4    1.297892 A    
C106  H59   1.108731 S    
N14   N22   1.378219 A    
C72   H36   1.080775 S    
C83   N43   1.434220 S    
