data_mof_unit_12067.cif
_audit_creation_date              2012-10-26T21:24:50-0400
_audit_creation_method            fapswitch 2.2
_symmetry_space_group_name_H-M    P1
_symmetry_Int_Tables_number       1
_space_group_crystal_system       triclinic
_cell_length_a                    9.570335
_cell_length_b                    10.851689
_cell_length_c                    15.453746
_cell_angle_alpha                 88.532251
_cell_angle_beta                  74.019813
_cell_angle_gamma                 90.402619
_cell_volume                      1542.24652436

loop_
_atom_site_label
_atom_site_type_symbol
_atom_type_description
_atom_site_fract_x
_atom_site_fract_y
_atom_site_fract_z
_atom_type_partial_charge
C1    C     C_R   0.999164 0.262490 0.500919 0.552884
C2    C     C_R   0.225700 0.503095 0.036844 -0.065824
C3    C     C_R   0.325646 0.530459 0.087029 0.000317
C4    C     C_R   0.918179 0.501800 0.672135 0.572062
C5    C     C_R   0.077148 0.487742 0.081943 -0.056613
C6    C     C_R   0.026719 0.493516 0.175180 0.240747
C7    C     C_R   0.275394 0.518641 0.181771 -0.111124
C8    C     C_R   0.124513 0.064475 0.497540 0.013698
C9    C     C_R   0.997404 0.129097 0.502164 -0.035468
C10   C     C_R   0.866026 0.064106 0.515322 -0.082314
C11   C     C_R   0.860640 0.936630 0.527934 0.209199
C12   C     C_R   0.674612 0.544588 0.904517 -0.059648
C13   C     C_R   0.992143 0.870683 0.516329 -0.005627
C14   C     C_R   0.122791 0.936615 0.503696 -0.010509
C15   C     C_3   0.216422 0.939198 0.567402 -0.261729
C16   C     C_R   0.996938 0.737112 0.507009 0.535742
C17   C     C_3   0.220251 0.077840 0.558243 -0.245429
C18   C     C_R   0.605065 0.554650 0.430259 0.132222
C19   C     C_R   0.542310 0.435530 0.564554 0.348987
C20   C     C_R   0.394696 0.437698 0.564525 0.072823
C21   C     C_R   0.457609 0.554369 0.430424 0.147919
C22   C     C_3   0.463901 0.686564 0.402412 -0.269099
C23   C     C_R   0.768587 0.608017 0.944984 0.016454
C24   C     C_3   0.622560 0.687572 0.401470 -0.275698
C25   C     C_R   0.082082 0.500730 0.327104 0.554474
C26   C     C_R   0.874518 0.523918 0.769045 0.036136
C27   C     C_R   0.127045 0.504571 0.226926 -0.016861
C28   C     C_R   0.913429 0.632361 0.895328 -0.097026
C29   C     C_R   0.963592 0.595489 0.806718 -0.161269
C30   C     C_R   0.736381 0.486534 0.821637 0.235633
C31   C     C_R   0.522725 0.542958 0.947008 -0.101337
C32   C     C_R   0.473196 0.563011 0.040795 0.004784
C33   C     C_R   0.570808 0.621573 0.082744 0.254966
C34   C     C_R   0.715658 0.650809 0.032457 0.258418
C35   C     C_R   0.418536 0.527674 0.897667 0.300286
C36   C     C_R   0.274597 0.498583 0.942147 0.277348
Cu1   Cu    Cu3+1 0.140670 0.499980 0.500000 0.950097
Cu2   Cu    Cu3+1 0.859330 0.500020 0.500000 0.994926
H1    H     H_    0.158454 0.904111 0.636329 0.141096
H2    H     H_    0.748870 0.777818 0.111789 0.344717
H3    H     H_    0.996472 0.477197 0.045409 0.162867
H4    H     H_    0.764920 0.112657 0.523124 0.164742
H5    H     H_    0.729596 0.814831 0.600952 0.338621
H6    H     H_    0.325524 0.900084 0.539745 0.152761
H7    H     H_    0.166016 0.123783 0.622066 0.149073
H8    H     H_    0.670134 0.334318 0.611011 0.374277
H9    H     H_    0.351312 0.514621 0.221779 0.197199
H10   H     H_    0.851335 0.558572 0.249029 0.334341
H11   H     H_    0.118200 0.400446 0.921085 0.312636
H12   H     H_    0.329184 0.116348 0.521892 0.156577
H13   H     H_    0.599750 0.348791 0.845028 0.342645
H14   H     H_    0.599103 0.648601 0.199107 0.325211
H15   H     H_    0.529543 0.610745 0.787596 0.327191
H16   H     H_    0.313919 0.388396 0.617174 0.160060
H17   H     H_    0.444631 0.701276 0.335607 0.178617
H18   H     H_    0.395553 0.743055 0.455618 0.156823
H19   H     H_    0.697259 0.702944 0.333022 0.119301
H20   H     H_    0.644576 0.746977 0.453411 0.215872
H21   H     H_    0.986884 0.684319 0.923299 0.200059
H22   H     H_    0.071626 0.624014 0.767406 0.174483
N1    N     N_R   0.648210 0.500930 0.499430 -0.247945
N2    N     N_R   0.352300 0.500890 0.499430 -0.275718
O1    O     O_R   0.118810 0.319640 0.500000 -0.498448
O2    O     O_3   0.724978 0.881841 0.557083 -0.715291
O3    O     O_3   0.572530 0.368097 0.633369 -0.629305
O4    O     O_3   0.879185 0.484050 0.213090 -0.678727
O5    O     O_3   0.184497 0.467970 0.889779 -0.665312
O6    O     O_3   0.667973 0.390303 0.792054 -0.625283
O7    O     O_3   0.521030 0.662252 0.169156 -0.745982
O8    O     O_3   0.451445 0.547044 0.805516 -0.586494
O9    O     O_R   0.881230 0.319680 0.499990 -0.535868
O10   O     O_R   0.055580 0.499970 0.629840 -0.521126
O11   O     O_R   0.818000 0.500010 0.629830 -0.453063
O12   O     O_R   0.118770 0.680320 0.500010 -0.504894
O13   O     O_R   0.881190 0.680360 0.500000 -0.501725
O14   O     O_R   0.182000 0.499990 0.370170 -0.501727
O15   O     O_R   0.944420 0.500030 0.370160 -0.475935
O16   O     O_3   0.807430 0.721140 0.067264 -0.720871

loop_
_geom_bond_atom_site_label_1
_geom_bond_atom_site_label_2
_ccdc_geom_bond_type
Cu1   O12   S    
C10   H4    S    
C16   O13   A    
C35   C36   A    
Cu1   N2    S    
C36   O5    S    
C12   C23   A    
C1    O9    A    
C16   O12   A    
C22   C24   S    
C28   C29   A    
C17   H7    S    
C15   H6    S    
C3    C7    A    
C5    C6    A    
C18   C21   A    
C7    C27   A    
H14   O7    S    
C31   C32   A    
C35   O8    S    
C8    C9    A    
C18   C24   S    
C9    C10   A    
C33   O7    S    
Cu2   N1    S    
C21   C22   S    
H15   O8    S    
C1    O1    A    
Cu1   O1    S    
H5    O2    S    
Cu2   O13   S    
C1    C9    S    
H8    O3    S    
C20   H16   S    
C11   O2    S    
C24   H19   S    
C22   H18   S    
C7    H9    S    
Cu1   Cu2   S    
C6    C27   A    
C29   H22   S    
C23   C34   A    
C33   C34   A    
C4    O11   A    
C23   C28   A    
C15   H1    S    
C21   N2    A    
H2    O16   S    
Cu1   O14   S    
C26   C30   A    
C12   C31   A    
C25   O15   A    
Cu1   O10   S    
C2    C5    A    
C4    O10   A    
C28   H21   S    
C2    C36   A    
C15   C17   S    
C5    H3    S    
Cu2   O9    S    
C8    C14   A    
H11   O5    S    
C12   C30   A    
C17   H12   S    
C4    C26   S    
C18   N1    A    
C22   H17   S    
Cu2   O15   S    
C25   C27   S    
C8    C17   S    
C25   O14   A    
C32   C33   A    
C19   C20   A    
C2    C3    A    
C34   O16   S    
C11   C13   A    
C19   N1    A    
C19   O3    S    
C31   C35   A    
H13   O6    S    
C20   N2    A    
C3    C32   A    
C10   C11   A    
C6    O4    S    
C26   C29   A    
C24   H20   S    
C13   C16   S    
C14   C15   S    
H10   O4    S    
C13   C14   A    
C30   O6    S    
Cu2   O11   S    
