data_mof_unit_56273.cif
_audit_creation_date              2012-12-10T19:56:31-0500
_audit_creation_method            fapswitch 2.2
_symmetry_space_group_name_H-M    P1
_symmetry_Int_Tables_number       1
_space_group_crystal_system       triclinic
_cell_length_a                    28.455811
_cell_length_b                    18.234969
_cell_length_c                    18.202841
_cell_angle_alpha                 89.830573
_cell_angle_beta                  129.909259
_cell_angle_gamma                 90.032809
_cell_volume                      7245.07361161

loop_
_atom_site_label
_atom_site_type_symbol
_atom_type_description
_atom_site_fract_x
_atom_site_fract_y
_atom_site_fract_z
_atom_type_partial_charge
C1    C     C_R   0.498190 0.000032 0.356943 0.988930
C2    C     C_R   0.501897 0.999866 0.643141 0.976117
C3    C     C_R   0.998166 0.500031 0.356921 0.989324
C4    C     C_R   0.001829 0.499855 0.643075 0.973877
C5    C     C_R   0.813058 0.997535 0.812654 -0.321837
C6    C     C_R   0.187030 0.997038 0.187659 -0.309242
C7    C     C_R   0.313062 0.497447 0.812632 -0.321715
C8    C     C_R   0.686818 0.497319 0.187858 -0.309150
C9    C     C_R   0.781433 0.038318 0.726077 -0.113942
C10   C     C_R   0.218693 0.037039 0.274578 -0.120545
C11   C     C_R   0.281388 0.538072 0.725929 -0.113394
C12   C     C_R   0.718294 0.538971 0.273463 -0.120416
C13   C     C_R   0.717491 0.036310 0.659372 0.391861
C14   C     C_R   0.282606 0.036040 0.340557 0.390320
C15   C     C_R   0.217450 0.536033 0.659321 0.392684
C16   C     C_R   0.782275 0.537781 0.339763 0.390534
C17   C     C_R   0.686182 0.997543 0.683505 -0.263223
C18   C     C_R   0.313894 0.998376 0.315842 -0.273786
C19   C     C_R   0.186187 0.497523 0.683727 -0.262580
C20   C     C_R   0.813680 0.498528 0.316232 -0.276985
C21   C     C_R   0.717221 0.954891 0.767817 -0.002851
C22   C     C_R   0.282966 0.956386 0.231396 -0.012808
C23   C     C_R   0.217274 0.454925 0.768117 -0.001516
C24   C     C_R   0.782665 0.455474 0.232581 -0.008207
C25   C     C_R   0.839875 0.062780 0.668182 -0.111578
C26   C     C_R   0.160856 0.052589 0.334366 -0.129511
C27   C     C_R   0.339901 0.562193 0.668027 -0.113110
C28   C     C_R   0.660546 0.558609 0.333076 -0.117655
C29   C     C_R   0.867965 0.111081 0.646780 0.321748
C30   C     C_R   0.129363 0.096158 0.353523 0.339301
C31   C     C_R   0.368214 0.610347 0.646874 0.327844
C32   C     C_R   0.630436 0.604269 0.353030 0.331008
C33   C     C_R   0.868594 0.187086 0.662628 0.283697
C34   C     C_R   0.125790 0.172795 0.338753 0.283221
C35   C     C_R   0.368861 0.686372 0.662547 0.283371
C36   C     C_R   0.626718 0.680399 0.335357 0.280205
C37   C     C_R   0.844063 0.212780 0.705013 0.334877
C38   C     C_R   0.150494 0.203745 0.298587 0.361235
C39   C     C_R   0.344159 0.712271 0.704597 0.333336
C40   C     C_R   0.651137 0.709017 0.293924 0.366056
C41   C     C_R   0.817212 0.163432 0.727478 -0.289466
C42   C     C_R   0.179931 0.158764 0.276873 -0.263035
C43   C     C_R   0.317117 0.663075 0.726871 -0.287996
C44   C     C_R   0.679678 0.662224 0.272138 -0.268819
C45   C     C_R   0.620209 0.999613 0.619439 1.012102
C46   C     C_R   0.379825 0.999812 0.380363 1.022984
C47   C     C_R   0.120214 0.499606 0.619657 1.011464
C48   C     C_R   0.879756 0.499846 0.380710 1.020770
C49   C     C_R   0.814526 0.088649 0.708638 0.077830
C50   C     C_R   0.185341 0.083453 0.294735 0.067767
C51   C     C_R   0.314432 0.588255 0.708231 0.077424
C52   C     C_R   0.684649 0.587159 0.291694 0.062688
C53   C     C_1   0.498885 0.000049 0.281098 -0.089627
C54   C     C_1   0.501186 0.999717 0.718967 -0.090207
C55   C     C_1   0.998871 0.500053 0.281087 -0.090304
C56   C     C_1   0.001143 0.499662 0.718925 -0.090671
C57   C     C_1   0.499743 0.999965 0.217092 -0.052931
C58   C     C_1   0.500273 0.999964 0.782916 -0.043955
C59   C     C_1   0.999742 0.499986 0.217093 -0.052298
C60   C     C_1   0.000268 0.499861 0.782913 -0.044894
C61   C     C_R   0.000022 0.141366 0.999921 0.885037
C62   C     C_R   0.500030 0.641366 0.999931 0.884961
C63   C     C_R   0.879460 0.999336 0.879460 0.966529
C64   C     C_R   0.120565 0.999054 0.120625 0.968357
C65   C     C_R   0.379461 0.499342 0.879452 0.968165
C66   C     C_R   0.620493 0.499288 0.120627 0.973487
C67   C     C_R   0.999960 0.858707 0.000051 0.987585
C68   C     C_R   0.499866 0.358707 0.999958 0.994056
C69   C     C_R   0.499954 0.140811 0.000018 0.889950
C70   C     C_R   0.999957 0.640811 0.000020 0.890120
C71   C     C_R   0.499995 0.999903 0.140821 0.967803
C72   C     C_R   0.500002 0.000247 0.859176 0.970178
C73   C     C_R   0.999996 0.499937 0.140823 0.968960
C74   C     C_R   0.000003 0.500144 0.859177 0.968874
C75   C     C_R   0.500040 0.859178 0.999903 1.051688
C76   C     C_R   0.000041 0.359178 0.999854 1.051887
C77   C     C_1   0.000078 0.217853 0.999759 -0.104425
C78   C     C_1   0.500093 0.717854 0.999790 -0.107028
C79   C     C_R   0.636888 0.797520 0.784908 0.259736
C80   C     C_R   0.366352 0.797544 0.224811 0.206502
C81   C     C_R   0.136539 0.296925 0.783275 0.257808
C82   C     C_R   0.871357 0.301118 0.230673 0.209739
C83   C     C_1   0.500112 0.782674 0.999796 0.045518
C84   C     C_1   0.000100 0.282673 0.999741 0.049018
C85   C     C_1   0.999896 0.782186 0.000144 -0.109860
C86   C     C_1   0.499832 0.282184 0.000084 -0.107436
C87   C     C_1   0.499858 0.217339 0.000065 -0.143792
C88   C     C_1   0.999881 0.717340 0.000085 -0.144935
C89   C     C_R   0.666358 0.838959 0.759161 0.405273
C90   C     C_R   0.332712 0.839202 0.242827 0.382777
C91   C     C_R   0.166078 0.338864 0.758039 0.405940
C92   C     C_R   0.834774 0.339922 0.245349 0.375725
C93   C     C_R   0.682378 0.912484 0.788714 -0.082791
C94   C     C_R   0.318300 0.912833 0.212611 -0.064225
C95   C     C_R   0.182495 0.412101 0.788862 -0.083068
C96   C     C_R   0.817922 0.412913 0.212960 -0.059637
C97   C     C_R   0.670437 0.944720 0.845012 0.316623
C98   C     C_R   0.334456 0.943839 0.160854 0.271574
C99   C     C_R   0.171060 0.443467 0.846236 0.317553
C100  C     C_R   0.832991 0.444945 0.160230 0.264973
C101  C     C_R   0.646789 0.901602 0.879102 0.250790
C102  C     C_R   0.357297 0.898406 0.127800 0.256001
C103  C     C_R   0.147140 0.399780 0.879519 0.250079
C104  C     C_R   0.856631 0.400714 0.127647 0.247788
C105  C     C_R   0.625597 0.829546 0.843372 0.194553
C106  C     C_R   0.375740 0.825747 0.162675 0.255076
C107  C     C_R   0.125470 0.328142 0.842356 0.194934
C108  C     C_R   0.878139 0.329332 0.165522 0.263750
C109  C     C_R   0.781389 0.954689 0.834201 0.364016
C110  C     C_R   0.218736 0.954693 0.166008 0.375401
C111  C     C_R   0.281453 0.454545 0.834242 0.365529
C112  C     C_R   0.718493 0.453354 0.167638 0.381954
H1    H     H_    0.797111 0.183132 0.757955 0.197082
H2    H     H_    0.199410 0.182188 0.246925 0.218718
H3    H     H_    0.296950 0.682911 0.757189 0.197554
H4    H     H_    0.699266 0.684158 0.241681 0.219762
H5    H     H_    0.836996 0.004899 0.652466 0.210363
H6    H     H_    0.165441 0.994132 0.348066 0.217012
H7    H     H_    0.337056 0.504276 0.652504 0.210948
H8    H     H_    0.665427 0.500599 0.349672 0.212639
O1    O     O_R   0.500010 0.939400 0.392680 -0.675105
O2    O     O_R   0.499990 0.939400 0.607320 -0.642252
O3    O     O_R   0.000010 0.439400 0.392680 -0.678919
O4    O     O_R   0.999990 0.439400 0.607320 -0.643749
O5    O     O_R   0.551700 0.999990 0.159040 -0.601680
O6    O     O_R   0.448300 0.999990 0.840960 -0.592388
O7    O     O_R   0.051700 0.499990 0.159040 -0.605299
O8    O     O_R   0.948300 0.499990 0.840960 -0.590977
O9    O     O_R   0.448260 0.000000 0.055600 -0.591178
O10   O     O_R   0.551740 1.000000 0.944400 -0.591830
O11   O     O_R   0.948260 0.500000 0.055600 -0.588565
O12   O     O_R   0.051740 0.500000 0.944400 -0.592702
O13   O     O_R   0.551720 0.892660 0.051710 -0.588735
O14   O     O_R   0.448280 0.892660 0.948290 -0.557262
O15   O     O_R   0.051720 0.392660 0.051710 -0.593401
O16   O     O_R   0.948280 0.392660 0.948290 -0.555182
O17   O     O_R   0.499990 0.060580 0.392690 -0.579988
O18   O     O_R   0.500010 0.060580 0.607310 -0.585249
O19   O     O_R   0.999990 0.560580 0.392690 -0.579179
O20   O     O_R   0.000010 0.560580 0.607310 -0.584671
O21   O     O_R   0.591620 0.939400 0.591620 -0.627019
O22   O     O_R   0.408380 0.939400 0.408380 -0.652690
O23   O     O_R   0.091620 0.439400 0.591620 -0.626168
O24   O     O_R   0.908380 0.439400 0.408380 -0.658200
O25   O     O_R   0.591600 0.060580 0.591620 -0.568962
O26   O     O_R   0.408400 0.060580 0.408380 -0.566598
O27   O     O_R   0.091600 0.560580 0.591620 -0.569759
O28   O     O_R   0.908400 0.560580 0.408380 -0.563313
O29   O     O_R   0.999970 0.107360 0.060570 -0.627929
O30   O     O_R   0.000030 0.107360 0.939430 -0.623827
O31   O     O_R   0.499970 0.607360 0.060570 -0.630911
O32   O     O_R   0.500030 0.607360 0.939430 -0.625156
O33   O     O_R   0.908370 0.000030 0.968970 -0.531689
O34   O     O_R   0.091630 0.000030 0.031030 -0.533642
O35   O     O_R   0.408370 0.500030 0.968970 -0.533610
O36   O     O_R   0.591630 0.500030 0.031030 -0.538172
O37   O     O_R   0.908380 1.000000 0.847800 -0.649856
O38   O     O_R   0.091620 1.000000 0.152200 -0.653071
O39   O     O_R   0.408380 0.500000 0.847800 -0.649626
O40   O     O_R   0.591620 0.500000 0.152200 -0.648693
O41   O     O_R   0.000000 0.892710 0.060610 -0.585665
O42   O     O_R   1.000000 0.892710 0.939390 -0.585328
O43   O     O_R   0.500000 0.392710 0.060610 -0.584453
O44   O     O_R   0.500000 0.392710 0.939390 -0.585164
O45   O     O_R   0.551710 0.107310 0.051740 -0.630892
O46   O     O_R   0.448290 0.107310 0.948260 -0.633615
O47   O     O_R   0.051710 0.607310 0.051740 -0.631694
O48   O     O_R   0.948290 0.607310 0.948260 -0.632610
Zn1   Zn    Zn3+2 0.500000 0.919080 0.500000 0.963280
Zn2   Zn    Zn3+2 0.000000 0.419080 0.500000 0.955626
Zn3   Zn    Zn3+2 0.500000 0.080900 0.500000 1.129372
Zn4   Zn    Zn3+2 0.000000 0.580900 0.500000 1.131431
Zn5   Zn    Zn3+2 0.999980 0.000040 0.080910 1.126265
Zn6   Zn    Zn3+2 0.000020 0.000040 0.919090 1.117530
Zn7   Zn    Zn3+2 0.499980 0.500040 0.080910 1.121056
Zn8   Zn    Zn3+2 0.500020 0.500040 0.919090 1.114717
Zn9   Zn    Zn3+2 0.569060 0.999980 0.069070 1.023645
Zn10  Zn    Zn3+2 0.430940 0.999980 0.930930 1.055190
Zn11  Zn    Zn3+2 0.069060 0.499980 0.069070 1.019885
Zn12  Zn    Zn3+2 0.930940 0.499980 0.930930 1.061500
S1    S     S_3+6 0.579529 0.783547 0.863362 0.041207
O49   O     O_2   0.619782 0.738858 0.953805 -0.386699
O50   O     O_2   0.544408 0.838107 0.873233 -0.266102
O51   O     O_3   0.529483 0.727531 0.771477 -0.430619
H9    H     H_    0.516298 0.692712 0.797007 0.397196
S2    S     S_3+6 0.410918 0.771387 0.128913 0.075831
O52   O     O_2   0.361851 0.734454 0.035400 -0.335688
O53   O     O_2   0.448436 0.819356 0.116667 -0.264705
O54   O     O_3   0.456624 0.706621 0.211201 -0.452400
H10   H     H_    0.472778 0.679072 0.184737 0.398344
S3    S     S_3+6 0.079006 0.281753 0.861281 0.042703
O55   O     O_2   0.118833 0.235753 0.950603 -0.386016
O56   O     O_2   0.044356 0.336075 0.872457 -0.264219
O57   O     O_3   0.028496 0.227028 0.768058 -0.430184
H11   H     H_    0.015502 0.191302 0.793038 0.397878
S4    S     S_3+6 0.913903 0.276498 0.131775 0.083267
O58   O     O_2   0.865326 0.236178 0.040990 -0.339132
O59   O     O_2   0.948135 0.325922 0.114340 -0.266034
O60   O     O_3   0.962998 0.215060 0.216710 -0.432688
H12   H     H_    0.976690 0.185384 0.187981 0.402254
O61   O     O_3   0.896720 0.235766 0.643316 -0.520128
C113  C     C_3   0.853706 0.260447 0.547689 0.148595
H13   H     H_    0.809053 0.275886 0.528277 0.154455
H14   H     H_    0.845662 0.217158 0.497953 0.173244
C114  C     C_3   0.879239 0.327838 0.534577 -0.583914
H15   H     H_    0.921476 0.313130 0.546263 0.253301
H16   H     H_    0.844808 0.350042 0.460984 0.220729
H17   H     H_    0.890295 0.370939 0.586542 0.283131
O62   O     O_3   0.094174 0.216420 0.356270 -0.540939
C115  C     C_3   0.135762 0.248831 0.447823 0.121867
H18   H     H_    0.181980 0.259121 0.470259 0.152768
H19   H     H_    0.141523 0.212688 0.502201 0.181219
C116  C     C_3   0.109901 0.321843 0.447962 -0.583495
H20   H     H_    0.065542 0.312913 0.431572 0.234832
H21   H     H_    0.142110 0.348113 0.519287 0.227704
H22   H     H_    0.102738 0.359446 0.393519 0.292669
O63   O     O_3   0.397344 0.734781 0.643629 -0.519867
C117  C     C_3   0.354510 0.759910 0.548190 0.143305
H23   H     H_    0.310354 0.776861 0.529515 0.156147
H24   H     H_    0.345321 0.716377 0.497867 0.171891
C118  C     C_3   0.381076 0.826137 0.535127 -0.568919
H25   H     H_    0.422343 0.809730 0.544811 0.253754
H26   H     H_    0.346535 0.849486 0.462250 0.221782
H27   H     H_    0.393981 0.868961 0.588452 0.282471
O64   O     O_3   0.596088 0.726328 0.352633 -0.528896
C119  C     C_3   0.637728 0.753594 0.447075 0.141238
H28   H     H_    0.684132 0.764503 0.470436 0.147828
H29   H     H_    0.642381 0.713692 0.497638 0.186895
C120  C     C_3   0.613114 0.825418 0.453065 -0.588286
H30   H     H_    0.569341 0.815662 0.438443 0.231955
H31   H     H_    0.646512 0.849367 0.525647 0.227364
H32   H     H_    0.605237 0.865325 0.399942 0.287218
S5    S     S_3+6 0.844629 0.306899 0.727722 0.053065
O65   O     O_2   0.903563 0.341236 0.761739 -0.219883
O66   O     O_2   0.792206 0.344612 0.636972 -0.292168
O67   O     O_3   0.837261 0.317702 0.811674 -0.553448
H33   H     H_    0.792557 0.319129 0.776105 0.357824
S6    S     S_3+6 0.145156 0.298502 0.274458 0.038680
O68   O     O_2   0.082525 0.326322 0.231486 -0.257154
O69   O     O_2   0.192411 0.338643 0.366258 -0.299689
O70   O     O_3   0.158391 0.313748 0.198044 -0.565018
H34   H     H_    0.170762 0.365846 0.207703 0.381619
S7    S     S_3+6 0.344954 0.806386 0.727540 0.052481
O71   O     O_2   0.403917 0.840596 0.761506 -0.219165
O72   O     O_2   0.292533 0.844280 0.636967 -0.291876
O73   O     O_3   0.337742 0.817089 0.811672 -0.553869
H35   H     H_    0.293056 0.818773 0.776203 0.357778
S8    S     S_3+6 0.648638 0.803768 0.272378 0.044800
O74   O     O_2   0.587191 0.834483 0.231701 -0.257877
O75   O     O_2   0.697628 0.841604 0.365240 -0.291794
O76   O     O_3   0.661463 0.818196 0.195386 -0.564322
H36   H     H_    0.671651 0.870914 0.202166 0.380446
O77   O     O_3   0.613846 0.729147 0.743692 -0.528250
C121  C     C_3   0.651543 0.673488 0.811674 0.138507
H37   H     H_    0.642391 0.666731 0.861846 0.209174
H38   H     H_    0.701243 0.684760 0.854056 0.082114
C122  C     C_3   0.636730 0.600818 0.760071 -0.752625
H39   H     H_    0.644933 0.604566 0.708232 0.254464
H40   H     H_    0.666260 0.556816 0.812928 0.194628
H41   H     H_    0.587962 0.586420 0.720889 0.295997
O78   O     O_3   0.385908 0.727543 0.262352 -0.567062
C123  C     C_3   0.437646 0.732396 0.360905 0.154706
H42   H     H_    0.432375 0.774276 0.399687 0.133450
H43   H     H_    0.478818 0.746321 0.369195 0.195588
C124  C     C_3   0.448269 0.658704 0.408921 -0.647984
H44   H     H_    0.450356 0.614334 0.369490 0.291547
H45   H     H_    0.492077 0.659901 0.483884 0.233904
H46   H     H_    0.410413 0.646831 0.409916 0.245821
O79   O     O_3   0.113138 0.228948 0.740925 -0.533044
C125  C     C_3   0.150711 0.172680 0.807861 0.136357
H47   H     H_    0.141913 0.165280 0.858417 0.210465
H48   H     H_    0.200417 0.183681 0.849979 0.082139
C126  C     C_3   0.135347 0.100599 0.754892 -0.749969
H49   H     H_    0.164824 0.056112 0.806847 0.196426
H50   H     H_    0.086573 0.086391 0.715942 0.296353
H51   H     H_    0.143194 0.105116 0.702672 0.254153
O80   O     O_3   0.899370 0.235436 0.277763 -0.553832
C127  C     C_3   0.943633 0.248421 0.377671 0.114013
H52   H     H_    0.921483 0.252302 0.410191 0.164182
H53   H     H_    0.970060 0.299664 0.394104 0.140146
C128  C     C_3   0.988899 0.185067 0.425962 -0.613342
H54   H     H_    0.015890 0.183454 0.401531 0.312215
H55   H     H_    0.020962 0.192705 0.504865 0.213638
H56   H     H_    0.964199 0.132353 0.408476 0.272292
O81   O     O_3   0.673699 0.811111 0.696174 -0.590660
C129  C     C_3   0.722948 0.760491 0.743022 0.130301
H57   H     H_    0.704102 0.704651 0.715969 0.169358
H58   H     H_    0.752105 0.759355 0.822347 0.181845
C130  C     C_3   0.764513 0.778214 0.719917 -0.774750
H59   H     H_    0.739150 0.772758 0.642198 0.227780
H60   H     H_    0.782249 0.834940 0.742040 0.263596
H61   H     H_    0.803908 0.739601 0.758693 0.226901
O82   O     O_3   0.318074 0.811578 0.297143 -0.624215
C131  C     C_3   0.280103 0.748929 0.253856 0.180372
H62   H     H_    0.308096 0.698939 0.291383 0.175203
H63   H     H_    0.256503 0.743153 0.176235 0.191496
C132  C     C_3   0.231158 0.752577 0.264184 -0.779300
H64   H     H_    0.252636 0.751901 0.340891 0.227264
H65   H     H_    0.204032 0.803762 0.231160 0.283939
H66   H     H_    0.199995 0.704747 0.228206 0.223600
O83   O     O_3   0.173000 0.311914 0.694219 -0.591581
C133  C     C_3   0.222055 0.261095 0.739843 0.125854
H67   H     H_    0.202949 0.205583 0.711225 0.166119
H68   H     H_    0.251141 0.258638 0.819124 0.182558
C134  C     C_3   0.263800 0.280020 0.717419 -0.776233
H69   H     H_    0.238115 0.277986 0.639362 0.229750
H70   H     H_    0.283088 0.335752 0.743422 0.265284
H71   H     H_    0.302140 0.240005 0.753163 0.225027
O84   O     O_3   0.818760 0.310569 0.297188 -0.627359
C135  C     C_3   0.788216 0.242478 0.259040 0.168987
H72   H     H_    0.820844 0.197048 0.303104 0.178003
H73   H     H_    0.767848 0.233521 0.183211 0.183883
C136  C     C_3   0.736679 0.238153 0.263469 -0.764609
H74   H     H_    0.755315 0.242117 0.338632 0.227792
H75   H     H_    0.703879 0.283837 0.221901 0.291970
H76   H     H_    0.712036 0.185242 0.233062 0.219078
O85   O     O_3   0.674492 0.020452 0.854546 -0.610215
C137  C     C_3   0.721697 0.041935 0.950150 0.151083
H77   H     H_    0.754492 0.997250 0.997380 0.184799
H78   H     H_    0.700298 0.063065 0.979660 0.177437
C138  C     C_3   0.757755 0.104417 0.951656 -0.712843
H79   H     H_    0.726824 0.151293 0.908310 0.248188
H80   H     H_    0.793917 0.122926 0.026530 0.250821
H81   H     H_    0.779713 0.085886 0.921956 0.262509
O86   O     O_3   0.336898 0.019425 0.155525 -0.597271
C139  C     C_3   0.281753 0.047446 0.070840 0.124889
H82   H     H_    0.242230 0.009640 0.036239 0.184405
H83   H     H_    0.288633 0.059932 0.018626 0.160189
C140  C     C_3   0.265605 0.118449 0.093913 -0.785678
H84   H     H_    0.303182 0.158891 0.124809 0.261188
H85   H     H_    0.222924 0.141858 0.027706 0.221522
H86   H     H_    0.258394 0.107815 0.146144 0.256323
O87   O     O_3   0.175911 0.519044 0.857689 -0.609565
C141  C     C_3   0.223136 0.539096 0.953921 0.146926
H87   H     H_    0.255779 0.493931 0.999843 0.183809
H88   H     H_    0.201834 0.559020 0.984060 0.178034
C142  C     C_3   0.259447 0.602198 0.957248 -0.701268
H89   H     H_    0.228723 0.649583 0.915394 0.248438
H90   H     H_    0.295760 0.619459 0.032663 0.252944
H91   H     H_    0.281231 0.584838 0.926849 0.262642
O88   O     O_3   0.834112 0.520622 0.154126 -0.593805
C143  C     C_3   0.778178 0.547572 0.069882 0.122104
H92   H     H_    0.739308 0.508924 0.036663 0.182348
H93   H     H_    0.783983 0.560340 0.016465 0.160217
C144  C     C_3   0.761661 0.618084 0.093243 -0.784029
H94   H     H_    0.798122 0.659681 0.121432 0.261631
H95   H     H_    0.717827 0.640093 0.027783 0.223705
H96   H     H_    0.756426 0.607315 0.147721 0.255526
O89   O     O_3   0.642887 0.931842 0.944770 -0.556809
C145  C     C_3   0.690115 0.902068 0.036868 0.157039
H97   H     H_    0.732707 0.888521 0.048402 0.126720
H98   H     H_    0.673608 0.851572 0.047738 0.235754
C146  C     C_3   0.707487 0.956147 0.114388 -0.819096
H99   H     H_    0.666420 0.972498 0.105004 0.272957
H100  H     H_    0.741066 0.930140 0.185877 0.225179
H101  H     H_    0.729211 0.005725 0.112677 0.221600
O90   O     O_3   0.362452 0.926318 0.062580 -0.539164
C147  C     C_3   0.307026 0.912295 0.969082 0.147880
H102  H     H_    0.265769 0.925816 0.961128 0.117119
H103  H     H_    0.304357 0.853651 0.950556 0.201935
C148  C     C_3   0.304345 0.958472 0.896760 -0.744737
H104  H     H_    0.341404 0.941811 0.895934 0.304205
H105  H     H_    0.259631 0.950225 0.824058 0.196707
H106  H     H_    0.309552 0.017493 0.915307 0.222809
O91   O     O_3   0.143198 0.429132 0.945527 -0.555399
C149  C     C_3   0.190312 0.398583 0.037141 0.152515
H107  H     H_    0.233465 0.387462 0.049421 0.123610
H108  H     H_    0.174464 0.346568 0.046241 0.233016
C150  C     C_3   0.205919 0.450459 0.115435 -0.810325
H109  H     H_    0.164248 0.463689 0.105722 0.275657
H110  H     H_    0.239905 0.423996 0.186489 0.221260
H111  H     H_    0.226319 0.501909 0.114805 0.220726
O92   O     O_3   0.860948 0.429230 0.061770 -0.538310
C151  C     C_3   0.805840 0.413514 0.968691 0.146593
H112  H     H_    0.764375 0.426231 0.960498 0.116142
H113  H     H_    0.804287 0.354686 0.951625 0.200271
C152  C     C_3   0.802440 0.459272 0.895418 -0.739814
H114  H     H_    0.840120 0.443752 0.895561 0.302386
H115  H     H_    0.758090 0.449400 0.822790 0.198956
H116  H     H_    0.806154 0.518501 0.912331 0.222123
S9    S     S_3+6 0.822233 0.901035 0.943492 -0.015402
O93   O     O_2   0.870296 0.856073 0.953461 -0.327635
O94   O     O_2   0.852869 0.952134 0.027411 -0.278382
O95   O     O_3   0.779302 0.843349 0.950800 -0.676692
H117  H     H_    0.808434 0.818516 0.013622 0.383884
S10   S     S_3+6 0.177832 0.898903 0.058783 -0.018270
O96   O     O_2   0.131159 0.853551 0.052197 -0.330851
O97   O     O_2   0.145192 0.947853 0.972106 -0.303026
O98   O     O_3   0.221456 0.841545 0.052841 -0.652062
H118  H     H_    0.192536 0.815535 0.991113 0.385957
S11   S     S_3+6 0.322419 0.400025 0.942852 -0.017034
O99   O     O_2   0.370326 0.355456 0.951941 -0.329144
O100  O     O_2   0.353279 0.450394 0.027503 -0.284313
O101  O     O_3   0.279512 0.341767 0.949550 -0.675892
H119  H     H_    0.308648 0.316621 0.012138 0.383129
S12   S     S_3+6 0.677526 0.395173 0.062610 -0.014047
O102  O     O_2   0.630636 0.351755 0.057510 -0.335121
O103  O     O_2   0.645081 0.441933 0.974070 -0.305879
O104  O     O_3   0.721193 0.335603 0.059485 -0.643356
H120  H     H_    0.692269 0.307900 0.999187 0.384996
S13   S     S_3+6 0.675772 0.078579 0.543406 0.027989
O105  O     O_2   0.628578 0.025227 0.469452 -0.348351
O106  O     O_2   0.644342 0.146318 0.539992 -0.276245
O107  O     O_3   0.718763 0.102394 0.513715 -0.557841
H121  H     H_    0.690103 0.126901 0.450545 0.388344
S14   S     S_3+6 0.324334 0.077484 0.456743 0.029737
O108  O     O_2   0.371295 0.023500 0.530473 -0.350865
O109  O     O_2   0.356067 0.145110 0.460599 -0.271539
O110  O     O_3   0.281421 0.101316 0.486528 -0.558511
H122  H     H_    0.310302 0.124658 0.550240 0.388030
S15   S     S_3+6 0.175681 0.577694 0.543004 0.028566
O111  O     O_2   0.128734 0.523912 0.469520 -0.346264
O112  O     O_2   0.143951 0.645421 0.538832 -0.276379
O113  O     O_3   0.218683 0.601340 0.513278 -0.557937
H123  H     H_    0.189956 0.625382 0.449794 0.388276
S16   S     S_3+6 0.823883 0.581763 0.454388 0.032106
O114  O     O_2   0.871697 0.529407 0.530040 -0.348071
O115  O     O_2   0.854569 0.649225 0.455161 -0.269960
O116  O     O_3   0.780992 0.606646 0.483845 -0.556488
H124  H     H_    0.809568 0.632133 0.546073 0.388814
S17   S     S_3+6 0.899622 0.074323 0.597176 0.027667
O117  O     O_2   0.849171 0.064949 0.491227 -0.301564
O118  O     O_2   0.948024 0.123801 0.614295 -0.261434
O119  O     O_3   0.930642 0.991865 0.646963 -0.554924
H125  H     H_    0.946043 0.973763 0.614582 0.391082
S18   S     S_3+6 0.092573 0.052937 0.391537 0.040122
O120  O     O_2   0.120238 0.078588 0.490238 -0.327428
O121  O     O_2   0.025621 0.072063 0.323054 -0.278830
O122  O     O_3   0.100300 0.961327 0.393563 -0.542535
H126  H     H_    0.077641 0.941699 0.413728 0.395341
S19   S     S_3+6 0.400391 0.573499 0.598124 0.022357
O123  O     O_2   0.350581 0.565572 0.491761 -0.312503
O124  O     O_2   0.449874 0.622306 0.617722 -0.265374
O125  O     O_3   0.430053 0.490307 0.646443 -0.554533
H127  H     H_    0.445944 0.472360 0.614725 0.389944
S20   S     S_3+6 0.599687 0.564597 0.402635 0.033111
O126  O     O_2   0.648194 0.563974 0.509878 -0.308917
O127  O     O_2   0.545379 0.607774 0.374538 -0.276347
O128  O     O_3   0.578018 0.477908 0.363489 -0.548394
H128  H     H_    0.562733 0.458850 0.395751 0.392064

loop_
_geom_bond_atom_site_label_1
_geom_bond_atom_site_label_2
_ccdc_geom_bond_type
S11   O101  S    
C99   C103  A    
C89   O81   S    
O90   C147  S    
C55   C59   T    
S15   O112  D    
C132  H65   S    
C142  H89   S    
O83   C133  S    
C128  H56   S    
C62   O32   A    
S12   O103  D    
C26   C50   A    
C95   C99   A    
C116  H22   S    
O33   Zn5   S    
C100  C104  A    
C126  H51   S    
C48   O24   A    
C147  C148  S    
C9    C13   A    
C69   O46   A    
C152  H116  S    
C121  H38   S    
S13   O106  D    
S6    O68   D    
C11   C15   A    
C12   C16   A    
C139  H82   S    
O8    Zn12  S    
C59   C73   S    
C137  C138  S    
C103  O91   S    
C150  H111  S    
O60   H12   S    
C4    C56   S    
C111  S11   S    
C41   C49   A    
C146  H100  S    
C3    O3    A    
C110  S10   S    
C47   O27   A    
C116  H21   S    
C25   C29   A    
C148  H106  S    
S6    O69   D    
C67   C85   S    
C113  H13   S    
C27   C31   A    
S3    O55   D    
C2    O18   A    
C28   C32   A    
C63   O33   A    
C125  H47   S    
O34   Zn6   S    
C143  H92   S    
S1    O49   D    
C17   C21   A    
S10   O97   D    
C120  H30   S    
O10   Zn9   S    
C16   C20   A    
C99   O87   S    
C139  C140  S    
C97   O85   S    
C79   O77   S    
C57   C71   S    
C144  H96   S    
C10   C14   A    
O98   H118  S    
C125  H48   S    
C100  O88   S    
S10   O98   S    
C142  H91   S    
S20   O126  D    
C29   S17   S    
C114  H15   S    
C30   S18   S    
C129  C130  S    
O18   Zn3   S    
C47   O23   A    
C41   H1    S    
S4    O58   D    
C143  C144  S    
C39   C43   A    
C37   S5    S    
O9    Zn10  S    
C77   C84   T    
S16   O114  D    
C24   C96   S    
S3    O57   S    
C70   O47   A    
C129  H58   S    
C141  C142  S    
C46   O26   A    
C21   C93   S    
C23   C95   S    
O6    Zn10  S    
C145  H97   S    
O101  H119  S    
C44   H4    S    
C138  H79   S    
C101  O89   S    
C103  C107  A    
O110  H122  S    
O91   C149  S    
C61   O29   A    
S17   O117  D    
C29   C33   A    
O45   Zn9   S    
O116  H124  S    
C24   C112  A    
O43   Zn7   S    
C14   S14   S    
S13   O105  D    
C75   O14   A    
S19   O124  D    
O122  H126  S    
C118  H25   S    
C45   O25   A    
C32   C36   A    
C109  S9    S    
C17   C45   S    
C120  H32   S    
O77   C121  S    
C19   C47   S    
C136  H75   S    
O104  H120  S    
C80   C106  A    
C92   C96   A    
O67   H33   S    
C4    O4    A    
C122  H39   S    
C1    C53   S    
C151  H112  S    
C137  H78   S    
C3    C55   S    
C42   H2    S    
C61   C77   S    
C134  H70   S    
C25   C49   A    
S9    O95   S    
C82   C108  A    
S5    O65   D    
S20   O128  S    
O37   Zn6   S    
S7    O73   S    
O80   C127  S    
C22   C94   S    
O86   C139  S    
S4    O60   S    
C35   O63   S    
C76   O15   A    
C27   C51   A    
C126  H49   S    
C39   S7    S    
C92   O84   S    
C114  H16   S    
C133  H68   S    
C30   C34   A    
S16   O116  S    
C9    C49   S    
O107  H121  S    
C28   H8    S    
C141  H87   S    
C121  C122  S    
O63   C117  S    
C127  C128  S    
C151  C152  S    
C5    C9    A    
O82   C131  S    
C38   S6    S    
C117  H24   S    
S19   O123  D    
C8    C12   A    
C138  H81   S    
O62   C115  S    
O13   Zn9   S    
C31   S19   S    
O28   Zn4   S    
C147  H103  S    
C124  H45   S    
C149  C150  S    
C42   C50   A    
O119  H125  S    
C26   C30   A    
S17   O119  S    
C115  H19   S    
O39   Zn8   S    
O40   Zn7   S    
C3    O19   A    
C63   O37   A    
C93   C97   A    
S13   O107  S    
C1    O17   A    
O27   Zn4   S    
C117  C118  S    
C85   C88   T    
S11   O100  D    
O73   H35   S    
S1    O51   S    
C18   C22   A    
C62   C78   S    
C67   O42   A    
C26   H6    S    
O23   Zn2   S    
C21   C109  A    
O11   Zn12  S    
C123  H42   S    
C128  H55   S    
C115  C116  S    
C23   C111  A    
O61   C113  S    
C13   C17   A    
C122  H41   S    
O7    Zn11  S    
S2    O52   D    
C65   O35   A    
C66   O36   A    
C96   C100  A    
C126  H50   S    
C37   C41   A    
S5    O67   S    
C69   O45   A    
C152  H115  S    
O3    Zn2   S    
C91   C95   A    
C40   C44   A    
C91   O83   S    
C119  H28   S    
C64   O38   A    
C127  H52   S    
C139  H83   S    
C105  S1    S    
C150  H110  S    
O47   Zn11  S    
C81   C107  A    
C76   C84   S    
C123  C124  S    
O25   Zn3   S    
O125  H127  S    
C117  H23   S    
O76   H36   S    
C46   O22   A    
C146  H99   S    
C116  H20   S    
C15   C19   A    
C148  H105  S    
S6    O70   S    
O89   C145  S    
C113  H14   S    
O87   C141  S    
C118  H27   S    
C8    C112  A    
C131  H62   S    
C143  H93   S    
S18   O120  D    
C94   C98   A    
S7    O71   D    
O24   Zn2   S    
C130  H61   S    
C82   C92   A    
C5    C63   S    
C140  H84   S    
C6    C64   S    
C149  H107  S    
C12   C52   S    
C78   C83   T    
S8    O75   D    
C22   C110  A    
C113  C114  S    
O46   Zn10  S    
C108  S4    S    
C69   C87   S    
C68   O44   A    
O57   H11   S    
O79   C125  S    
S15   O113  S    
C45   O21   A    
C125  C126  S    
C18   C46   S    
C142  H90   S    
S20   O127  D    
C90   C94   A    
C135  H73   S    
C2    O2    A    
C90   O82   S    
O31   Zn7   S    
C62   O31   A    
S12   O102  D    
C131  C132  S    
S4    O59   D    
C2    C54   S    
S1    O50   D    
C53   C57   T    
C86   C87   T    
C145  C146  S    
C73   O7    A    
C33   C37   A    
C56   C60   T    
C72   O6    A    
S16   O115  D    
C102  O90   S    
C35   C39   A    
O128  H128  S    
S3    O56   D    
C121  H37   S    
C70   O48   A    
C16   S16   S    
O41   Zn5   S    
C67   O41   A    
O38   Zn5   S    
O2    Zn1   S    
C81   O79   S    
O19   Zn4   S    
O14   Zn10  S    
C145  H98   S    
C106  S2    S    
C20   C48   S    
O22   Zn1   S    
C58   C72   S    
O113  H123  S    
C31   C35   A    
S2    O53   D    
C10   C50   S    
C104  C108  A    
C146  H101  S    
S8    O74   D    
C68   O43   A    
O35   Zn7   S    
C135  H72   S    
O36   Zn8   S    
C6    C10   A    
C75   O13   A    
C36   O64   S    
S2    O54   S    
S10   O96   D    
C120  H31   S    
O48   Zn12  S    
C75   C83   S    
C136  H74   S    
O78   C123  S    
C5    C109  A    
C43   C51   A    
C7    C111  A    
O44   Zn8   S    
O54   H10   S    
C151  H113  S    
C98   C102  A    
C81   C91   A    
C134  H69   S    
S15   O111  D    
S9    O94   D    
S14   O108  D    
C71   O5    A    
C135  C136  S    
O1    Zn1   S    
C73   O11   A    
C8    C66   S    
C74   O12   A    
C68   C86   S    
C132  H64   S    
C14   C18   A    
C19   C23   A    
S12   O104  S    
C65   O39   A    
C70   C88   S    
O95   H117  S    
C66   O40   A    
C76   O16   A    
S11   O99   D    
O84   C135  S    
O51   H9    S    
C7    C11   A    
C133  C134  S    
O81   C129  S    
C38   C42   A    
C129  H57   S    
C141  H88   S    
C7    C65   S    
C64   O34   A    
O70   H34   S    
C124  H44   S    
C79   C105  A    
C104  O92   S    
C60   C74   S    
C43   H3    S    
C74   O8    A    
C20   C24   A    
S7    O72   D    
S14   O110  S    
C61   O30   A    
O29   Zn5   S    
S8    O76   S    
S17   O118  D    
C89   C93   A    
C6    C110  A    
C147  H102  S    
O21   Zn1   S    
C40   S8    S    
S19   O125  S    
C1    O1    A    
C101  C105  A    
C79   C89   A    
C36   C40   A    
C32   S20   S    
C136  H76   S    
C123  H43   S    
C132  H66   S    
C98   O86   S    
C138  H80   S    
C128  H54   S    
C71   O9    A    
C122  H40   S    
C137  H77   S    
C34   O62   S    
C4    O20   A    
C112  S12   S    
C13   S13   S    
C134  H71   S    
O64   C119  S    
C140  H85   S    
S5    O66   D    
C152  H114  S    
O30   Zn6   S    
C119  H29   S    
O5    Zn9   S    
C140  H86   S    
C127  H53   S    
C82   O80   S    
C107  S3    S    
C130  H59   S    
C150  H109  S    
C54   C58   T    
C114  H17   S    
C133  H67   S    
C34   C38   A    
C80   O78   S    
C25   H5    S    
C72   O10   A    
O42   Zn6   S    
C27   H7    S    
C119  C120  S    
C148  H104  S    
O16   Zn12  S    
C15   S15   S    
O15   Zn11  S    
C118  H26   S    
O92   C151  S    
C131  H63   S    
C28   C52   A    
C44   C52   A    
C144  H95   S    
S9    O93   D    
S18   O121  D    
C48   O28   A    
C33   O61   S    
C130  H60   S    
C102  C106  A    
S14   O109  D    
C80   C90   A    
O85   C137  S    
C124  H46   S    
C149  H108  S    
O17   Zn3   S    
C11   C51   S    
O12   Zn11  S    
O32   Zn8   S    
O4    Zn2   S    
O20   Zn4   S    
C115  H18   S    
O88   C143  S    
C144  H94   S    
O26   Zn3   S    
C97   C101  A    
S18   O122  S    
