data_mof_unit_7963.cif
_audit_creation_date              2012-12-10T17:53:22-0500
_audit_creation_method            fapswitch 2.2
_symmetry_space_group_name_H-M    P1
_symmetry_Int_Tables_number       1
_space_group_crystal_system       triclinic
_cell_length_a                    23.190365
_cell_length_b                    10.638297
_cell_length_c                    9.97223
_cell_angle_alpha                 93.331215
_cell_angle_beta                  90.582075
_cell_angle_gamma                 91.966627
_cell_volume                      2454.4231271

loop_
_atom_site_label
_atom_site_type_symbol
_atom_type_description
_atom_site_fract_x
_atom_site_fract_y
_atom_site_fract_z
_atom_type_partial_charge
C1    C     C_R   0.506533 0.260510 0.496309 0.910473
C2    C     C_R   0.122629 0.684361 0.447727 0.575445
C3    C     C_R   0.236965 0.552298 0.383514 -0.076653
C4    C     C_R   0.389385 0.506915 0.500167 0.958665
C5    C     C_R   0.295707 0.530064 0.381516 -0.296740
C6    C     C_R   0.327680 0.533020 0.502159 -0.198419
C7    C     C_R   0.300732 0.569040 0.623955 0.620488
C8    C     C_R   0.242392 0.593362 0.624945 -0.161771
C9    C     C_R   0.210079 0.581736 0.505685 0.188165
C10   C     C_R   0.765237 0.514328 0.404789 -0.177375
C11   C     C_R   0.706449 0.486009 0.403848 -0.233382
C12   C     C_R   0.965451 0.428800 0.663624 0.604671
C13   C     C_R   0.671651 0.542820 0.501972 -0.104087
C14   C     C_R   0.695155 0.634644 0.595248 -0.324180
C15   C     C_R   0.754718 0.662419 0.597982 0.590564
C16   C     C_R   0.494256 0.739636 0.504429 0.884057
C17   C     C_R   0.789360 0.600765 0.502386 0.193794
C18   C     C_R   0.583785 0.111233 0.673627 0.333332
C19   C     C_R   0.588719 0.075196 0.805756 0.446807
C20   C     C_R   0.552797 0.977766 0.850651 0.280790
C21   C     C_R   0.514379 0.912796 0.759378 0.550384
C22   C     C_R   0.510829 0.948595 0.624785 -0.221684
C23   C     C_R   0.025220 0.423151 0.660403 0.596946
C24   C     C_R   0.535759 0.064454 0.595979 -0.142642
C25   C     C_R   0.513352 0.125367 0.486478 -0.072381
C26   C     C_R   0.481974 0.056609 0.385208 -0.287981
C27   C     C_R   0.469118 0.929564 0.397039 0.478646
C28   C     C_R   0.610017 0.513920 0.500950 0.831220
C29   C     C_R   0.486095 0.874123 0.515048 -0.072930
C30   C     C_R   0.406237 0.375598 0.126352 0.581642
C31   C     C_R   0.354133 0.357677 0.051845 -0.437974
C32   C     C_R   0.355479 0.356064 0.914423 -0.181624
C33   C     C_R   0.407198 0.379373 0.851979 0.744346
C34   C     C_R   0.057978 0.509592 0.588211 -0.245507
C35   C     C_R   0.454028 0.442647 0.922947 -0.120752
C36   C     C_R   0.453798 0.441750 0.067250 -0.013096
C37   C     C_R   0.544146 0.551997 0.076368 -0.230011
C38   C     C_R   0.545680 0.547245 0.932836 0.628623
C39   C     C_R   0.880843 0.699909 0.450581 0.619193
C40   C     C_R   0.876834 0.523841 0.589246 0.613593
C41   C     C_R   0.937021 0.520326 0.593756 -0.231063
C42   C     C_R   0.969445 0.609221 0.523285 -0.160133
C43   C     C_R   0.941383 0.701791 0.452927 -0.125944
C44   C     C_3   0.768927 0.725644 0.820266 -0.230199
C45   C     C_R   0.030044 0.604150 0.521322 -0.087010
C46   C     C_3   0.649407 0.254114 0.599550 -0.113127
C47   C     C_3   0.608868 0.887008 0.006127 -0.154426
C48   C     C_3   0.457189 0.860373 0.175239 -0.097258
C49   C     C_3   0.368945 0.235163 0.283869 -0.287747
C50   C     C_3   0.643357 0.528987 0.912386 -0.387436
C51   C     C_R   0.062556 0.692479 0.450702 -0.058474
C52   C     C_R   0.034470 0.786095 0.384310 -0.209452
C53   C     C_R   0.974535 0.790902 0.384833 0.692747
C54   C     C_R   0.118042 0.503664 0.579524 0.605926
F1    F     F_    0.935764 0.342673 0.733868 -0.543029
F2    F     F_    0.631728 0.128015 0.885803 -0.644389
F3    F     F_    0.477294 0.824789 0.806741 -0.611519
F4    F     F_    0.050551 0.332143 0.728106 -0.548593
F5    F     F_    0.412708 0.314520 0.733598 -0.653905
F6    F     F_    0.949476 0.882333 0.317351 -0.582689
F7    F     F_    0.330486 0.583348 0.742017 -0.651814
H1    H     H_    0.688369 0.417355 0.329117 0.179818
H2    H     H_    0.221734 0.618484 0.719217 0.180152
H3    H     H_    0.792580 0.465954 0.332665 0.178108
H4    H     H_    0.776888 0.625195 0.837970 0.164769
H5    H     H_    0.724421 0.750208 0.849115 0.150742
H6    H     H_    0.798931 0.784161 0.887232 0.229149
H7    H     H_    0.628663 0.284604 0.507393 0.115235
H8    H     H_    0.696747 0.265523 0.587226 0.210623
H9    H     H_    0.637836 0.312559 0.691046 0.170895
H10   H     H_    0.603344 0.822526 0.088798 0.146268
H11   H     H_    0.641818 0.960272 0.040350 0.227911
H12   H     H_    0.667121 0.685275 0.663958 0.189674
H13   H     H_    0.624863 0.830265 0.917549 0.167112
H14   H     H_    0.434053 0.786165 0.110632 0.207610
H15   H     H_    0.503448 0.836120 0.177189 0.181221
H16   H     H_    0.451387 0.951426 0.128558 0.180294
H17   H     H_    0.358244 0.156054 0.208987 0.183148
H18   H     H_    0.330838 0.291817 0.308033 0.161106
H19   H     H_    0.381139 0.194080 0.379272 0.202395
H20   H     H_    0.675866 0.527042 0.832105 0.201636
H21   H     H_    0.662974 0.581862 0.001751 0.165982
H22   H     H_    0.634126 0.428681 0.934455 0.201507
H23   H     H_    0.465594 0.102273 0.299676 0.201398
H24   H     H_    0.579765 0.595592 0.134688 0.153420
H25   H     H_    0.314308 0.324120 0.094787 0.190232
H26   H     H_    0.318488 0.317794 0.856491 0.208284
H27   H     H_    0.058750 0.855261 0.330199 0.222968
H28   H     H_    0.212115 0.544072 0.290703 0.175041
H29   H     H_    0.315784 0.509073 0.285826 0.195733
N1    N     N_R   0.850497 0.610696 0.516308 -0.358710
N2    N     N_R   0.148840 0.590564 0.510815 -0.353490
N3    N     N_R   0.499460 0.498800 0.142780 -0.108411
N4    N     N_R   0.499440 0.498720 0.857170 -0.117826
O1    O     O_R   0.500000 0.316780 0.614690 -0.563992
O2    O     O_R   0.583850 0.500050 0.614640 -0.595030
O3    O     O_R   0.583840 0.500030 0.385310 -0.628588
O4    O     O_2   0.852294 0.784561 0.382045 -0.443061
O5    O     O_3   0.779866 0.754324 0.686370 -0.575775
O6    O     O_3   0.635402 0.126381 0.607914 -0.570209
O7    O     O_3   0.555480 0.942214 0.981729 -0.599889
O8    O     O_3   0.433117 0.861818 0.304587 -0.626392
O9    O     O_3   0.416061 0.310304 0.240634 -0.566658
O10   O     O_3   0.594135 0.590426 0.867572 -0.608563
O11   O     O_2   0.844398 0.439964 0.654943 -0.473676
O12   O     O_2   0.145720 0.410904 0.637522 -0.461994
O13   O     O_2   0.154675 0.769448 0.382875 -0.530093
O14   O     O_R   0.500000 0.316750 0.385360 -0.556552
O15   O     O_R   0.416160 0.499970 0.614690 -0.511075
O16   O     O_R   0.416150 0.499950 0.385360 -0.583056
O17   O     O_R   0.500000 0.683250 0.614640 -0.548023
O18   O     O_R   0.500000 0.683220 0.385310 -0.614281
Zn1   Zn    Zn3+2 0.500000 0.500020 0.653130 1.091573
Zn2   Zn    Zn3+2 0.500000 0.499980 0.346870 1.008221

loop_
_geom_bond_atom_site_label_1
_geom_bond_atom_site_label_2
_ccdc_geom_bond_type
C28   O3    A    
C19   F2    S    
C23   F4    S    
C4    O15   A    
C50   O10   S    
C47   O7    S    
C22   C29   A    
C27   C29   A    
C41   C42   A    
C48   H15   S    
C44   H5    S    
C35   C36   A    
C17   N1    S    
C11   H1    S    
O18   Zn2   S    
C7    C8    A    
C21   F3    S    
C12   C23   A    
C16   O18   A    
C26   C27   A    
C37   C38   A    
C18   C24   A    
C37   H24   S    
C30   C31   A    
C44   O5    S    
C45   C51   A    
C10   C17   A    
C2    O13   S    
C49   H17   S    
C18   C19   A    
O14   Zn2   S    
C7    F7    S    
C46   H8    S    
C38   O10   S    
C46   H7    S    
C36   N3    A    
C43   C53   A    
C19   C20   A    
C8    C9    A    
C30   O9    S    
C13   C28   S    
O16   Zn2   S    
C5    H29   S    
O15   Zn1   S    
C33   F5    S    
C31   H25   S    
C13   C14   A    
C1    C25   S    
C48   H14   S    
C44   H4    S    
C18   O6    S    
C9    N2    S    
C39   N1    A    
N4    Zn1   S    
C50   H22   S    
C54   O12   S    
C51   C52   A    
C14   H12   S    
C52   H27   S    
C24   C25   A    
C4    C6    S    
C2    C51   A    
C39   O4    S    
C39   C43   A    
C20   O7    S    
C8    H2    S    
C16   C29   S    
C32   H26   S    
C49   H18   S    
C42   C45   A    
C48   H16   S    
C54   N2    A    
C12   C41   A    
C3    C9    A    
C46   O6    S    
C31   C32   A    
C1    O1    A    
C23   C34   A    
C48   O8    S    
C38   N4    A    
C53   F6    S    
C3    H28   S    
C37   N3    A    
O17   Zn1   S    
C34   C45   A    
C2    N2    A    
C47   H10   S    
C40   C41   A    
C34   C54   A    
C22   C24   A    
O2    Zn1   S    
C42   C43   A    
C52   C53   A    
C50   H21   S    
C35   N4    A    
C15   C17   A    
C4    O16   A    
C26   H23   S    
C10   H3    S    
C47   H13   S    
C15   O5    S    
C3    C5    A    
C49   O9    S    
C6    C7    A    
C27   O8    S    
C49   H19   S    
C30   C36   A    
C28   O2    A    
C32   C33   A    
C25   C26   A    
C11   C13   A    
C5    C6    A    
O1    Zn1   S    
C33   C35   A    
N3    Zn2   S    
C40   N1    A    
C47   H11   S    
C46   H9    S    
C12   F1    S    
C10   C11   A    
C1    O14   A    
C20   C21   A    
C16   O17   A    
C14   C15   A    
C44   H6    S    
O3    Zn2   S    
C21   C22   A    
C50   H20   S    
C40   O11   S    
