data_mof_unit_32765.cif
_audit_creation_date              2012-12-10T18:10:52-0500
_audit_creation_method            fapswitch 2.2
_symmetry_space_group_name_H-M    P1
_symmetry_Int_Tables_number       1
_space_group_crystal_system       triclinic
_cell_length_a                    12.76619
_cell_length_b                    13.164841
_cell_length_c                    15.720299
_cell_angle_alpha                 93.53377
_cell_angle_beta                  102.689252
_cell_angle_gamma                 81.651397
_cell_volume                      2548.97551314

loop_
_atom_site_label
_atom_site_type_symbol
_atom_type_description
_atom_site_fract_x
_atom_site_fract_y
_atom_site_fract_z
_atom_type_partial_charge
C1    C     C_R   0.439325 0.691007 0.490327 0.874431
C2    C     C_3   0.384432 0.560751 0.029711 0.767718
C3    C     C_3   0.493994 0.502675 0.081981 -0.040943
C4    C     C_3   0.514501 0.390542 0.046685 -0.425345
C5    C     C_3   0.510905 0.389046 0.947798 0.318795
C6    C     C_1   0.493348 0.500982 0.173501 0.018290
C7    C     C_1   0.504301 0.501977 0.826186 -0.009256
C8    C     C_1   0.504341 0.501706 0.750782 -0.134471
C9    C     C_R   0.719744 0.053883 0.489822 0.515374
C10   C     C_R   0.598360 0.200419 0.526859 -0.238572
C11   C     C_R   0.324030 0.831218 0.547543 -0.332620
C12   C     C_R   0.501360 0.500750 0.661261 0.858924
C13   C     C_R   0.328136 0.919959 0.601313 0.366488
C14   C     C_R   0.412381 0.979627 0.604347 0.524361
C15   C     C_R   0.477096 0.961884 0.540221 0.006961
C16   C     C_R   0.474918 0.869822 0.489869 -0.046223
C17   C     C_R   0.549029 0.029601 0.527883 -0.066476
C18   C     C_R   0.637559 0.992052 0.487630 -0.041223
C19   C     C_R   0.636619 0.897895 0.440303 0.492557
C20   C     C_R   0.549279 0.843495 0.435204 -0.274502
C21   C     C_R   0.527553 0.135814 0.544348 0.482083
C22   C     C_R   0.699254 0.158642 0.510722 -0.388498
C23   C     C_R   0.560700 0.309510 0.513934 0.913245
C24   C     C_R   0.404633 0.800841 0.500201 -0.116660
C25   C     C_R   0.108582 0.315390 0.410877 -0.138608
C26   C     C_R   0.796647 0.634428 0.601172 -0.223202
C27   C     C_R   0.903001 0.651767 0.637773 0.399036
C28   C     C_R   0.988959 0.588050 0.612177 0.556105
C29   C     C_R   0.967736 0.516254 0.540809 -0.247642
C30   C     C_R   0.859557 0.493793 0.513034 0.078308
C31   C     C_R   0.048865 0.464292 0.497171 -0.093469
C32   C     C_R   0.029133 0.372123 0.449025 -0.090262
C33   C     C_R   0.928075 0.339900 0.433937 0.326485
C34   C     C_R   0.498444 0.499661 0.338707 0.902005
C35   C     C_R   0.841259 0.407263 0.455131 0.354202
C36   C     C_R   0.147039 0.501718 0.495843 0.482069
C37   C     C_R   0.203835 0.353081 0.413379 0.499322
C38   C     C_3   0.393342 0.565921 0.932371 0.115300
C39   C     C_3   0.596627 0.555063 0.973480 0.287012
C40   C     C_3   0.589638 0.557765 0.070800 -0.408209
C41   C     C_1   0.494715 0.499977 0.249098 -0.161619
C42   C     C_3   0.501589 0.501649 0.917436 -0.063914
H1    H     H_    0.439080 0.352486 0.913755 0.059332
N1    N     N_R   0.222200 0.444690 0.455710 -0.216790
N2    N     N_R   0.776960 0.554780 0.543830 -0.102555
O1    O     O_R   0.366740 0.627160 0.478850 -0.613904
O2    O     O_R   0.544830 0.662520 0.507140 -0.619601
O3    O     O_R   0.410920 0.482310 0.608710 -0.637659
O4    O     O_R   0.589010 0.517670 0.637000 -0.610249
O5    O     O_R   0.455170 0.337480 0.492860 -0.582442
O6    O     O_R   0.633260 0.372840 0.521150 -0.544457
O7    O     O_R   0.410990 0.482330 0.363000 -0.634100
O8    O     O_R   0.589080 0.517690 0.391290 -0.547095
Zn1   Zn    Zn3+2 0.381090 0.476390 0.481110 0.978328
Zn2   Zn    Zn3+2 0.618910 0.523610 0.518890 0.991832
O9    O     O_3   0.368873 0.662527 0.063029 -0.748822
H2    H     H_    0.344518 0.660938 0.118669 0.369642
O10   O     O_3   0.299631 0.541620 0.872770 -0.668378
H3    H     H_    0.301927 0.466201 0.867026 0.328904
O11   O     O_3   0.294831 0.512499 0.036996 -0.697936
H4    H     H_    0.300769 0.443288 0.008658 0.315753
H5    H     H_    0.595173 0.353523 0.081948 0.253982
H6    H     H_    0.757668 0.208686 0.506177 0.194483
O12   O     O_3   0.715959 0.864379 0.393744 -0.671482
H7    H     H_    0.703339 0.796535 0.365363 0.330855
O13   O     O_3   0.816141 0.012401 0.467296 -0.658923
H8    H     H_    0.865369 0.065594 0.475616 0.344308
O14   O     O_3   0.429361 0.176775 0.563693 -0.680440
H9    H     H_    0.443258 0.232962 0.608071 0.344055
H10   H     H_    0.267623 0.779069 0.552644 0.212160
O15   O     O_3   0.441122 0.046544 0.674316 -0.744737
H11   H     H_    0.393391 0.046270 0.716109 0.383629
O16   O     O_3   0.256832 0.945027 0.656358 -0.743008
H12   H     H_    0.203465 0.895453 0.645968 0.373986
H13   H     H_    0.398319 0.647241 0.919561 0.191874
H14   H     H_    0.542899 0.776765 0.391395 0.153373
O17   O     O_3   0.277407 0.295236 0.371981 -0.719039
H15   H     H_    0.322543 0.341857 0.355572 0.377576
O18   O     O_3   0.913228 0.247138 0.389323 -0.763692
H16   H     H_    0.845159 0.225061 0.396865 0.343830
H17   H     H_    0.095891 0.243479 0.375278 0.242445
O19   O     O_3   0.162813 0.598672 0.528420 -0.722558
H18   H     H_    0.240355 0.595903 0.555377 0.374963
H19   H     H_    0.729419 0.679651 0.623372 0.165724
O20   O     O_3   0.090245 0.589651 0.665497 -0.642271
H20   H     H_    0.132260 0.520467 0.662592 0.335643
O21   O     O_3   0.925638 0.725503 0.703008 -0.666370
H21   H     H_    0.856476 0.763333 0.713784 0.330883
O22   O     O_3   0.739616 0.389743 0.414968 -0.725202
H22   H     H_    0.739217 0.365594 0.353797 0.329990
O23   O     O_3   0.698092 0.503372 0.963921 -0.653057
H23   H     H_    0.712627 0.527390 0.909533 0.347109
H24   H     H_    0.588835 0.636116 0.953057 0.082874
H25   H     H_    0.578752 0.638923 0.095306 0.182823
H26   H     H_    0.667135 0.520387 0.110929 0.238922
O24   O     O_3   0.604774 0.328628 0.930504 -0.657905
H27   H     H_    0.587052 0.303196 0.868937 0.339850
H28   H     H_    0.454716 0.343399 0.060094 0.156188

loop_
_geom_bond_atom_site_label_1
_geom_bond_atom_site_label_2
_ccdc_geom_bond_type
O21   H21   S    
C4    H28   S    
C14   O15   S    
C30   N2    A    
C19   C20   A    
C5    C42   S    
C3    C6    S    
C12   O4    A    
C11   H10   S    
C7    C8    T    
O17   H15   S    
C10   C22   A    
O3    Zn1   S    
C26   C27   A    
O5    Zn1   S    
C30   C35   A    
C28   C29   A    
C38   C42   S    
O20   H20   S    
C2    O11   S    
C1    O1    A    
C15   C16   A    
C4    H5    S    
C11   C24   A    
O9    H2    S    
C20   H14   S    
C18   C19   A    
O16   H12   S    
C7    C42   S    
C9    O13   S    
C39   H24   S    
C26   N2    A    
C25   C37   A    
C22   H6    S    
C38   O10   S    
C36   O19   S    
O14   H9    S    
C6    C41   T    
C16   C20   A    
C25   C32   A    
O13   H8    S    
C5    H1    S    
C16   C24   A    
C13   C14   A    
C25   H17   S    
C34   C41   S    
C39   O23   S    
O7    Zn1   S    
C39   C42   S    
C38   H13   S    
O8    Zn2   S    
C10   C21   A    
C39   C40   S    
C1    O2    A    
C23   O5    A    
O10   H3    S    
O4    Zn2   S    
C37   O17   S    
C17   C21   A    
O11   H4    S    
C29   C30   A    
C2    C38   S    
C23   O6    A    
C31   C32   A    
C19   O12   S    
C8    C12   S    
O24   H27   S    
O1    Zn1   S    
C17   C18   A    
C27   O21   S    
C34   O8    A    
C35   O22   S    
C13   O16   S    
C3    C40   S    
C21   O14   S    
C36   N1    A    
C40   H26   S    
C3    C4    S    
O23   H23   S    
C5    O24   S    
O2    Zn2   S    
C15   C17   A    
C26   H19   S    
C14   C15   A    
C33   O18   S    
C40   H25   S    
C4    C5    S    
C10   C23   S    
C34   O7    A    
O12   H7    S    
C37   N1    A    
C2    C3    S    
O15   H11   S    
C29   C31   A    
C2    O9    S    
C32   C33   A    
C11   C13   A    
C33   C35   A    
C12   O3    A    
O6    Zn2   S    
C9    C22   A    
O18   H16   S    
N1    Zn1   S    
C9    C18   A    
N2    Zn2   S    
C1    C24   S    
O19   H18   S    
C28   O20   S    
C31   C36   A    
O22   H22   S    
C27   C28   A    
