data_mof_unit_44412.cif
_audit_creation_date              2012-12-11T16:48:32-0500
_audit_creation_method            fapswitch 2.2
_symmetry_space_group_name_H-M    P1
_symmetry_Int_Tables_number       1
_space_group_crystal_system       triclinic
_cell_length_a                    17.274167
_cell_length_b                    24.294574
_cell_length_c                    14.909812
_cell_angle_alpha                 90.551219
_cell_angle_beta                  125.479781
_cell_angle_gamma                 89.58915
_cell_volume                      5095.10286245

loop_
_atom_site_label
_atom_site_type_symbol
_atom_type_description
_atom_site_fract_x
_atom_site_fract_y
_atom_site_fract_z
_atom_type_partial_charge
C1    C     C_R   0.309706 0.378070 0.907492 -0.147370
C2    C     C_R   0.548761 0.498159 0.722682 0.073889
C3    C     C_R   0.056545 0.846983 0.908018 -0.146629
C4    C     C_R   0.311429 0.362825 0.997342 0.070544
C5    C     C_R   0.617812 0.315070 0.999590 0.084258
C6    C     C_R   0.811428 0.862826 0.997341 0.070549
C7    C     C_R   0.117811 0.815070 0.999590 0.084257
C8    C     C_3   0.360522 0.658553 0.303720 -0.961953
C9    C     C_3   0.707293 0.680833 0.848818 -0.935743
C10   C     C_3   0.860525 0.158554 0.303720 -0.961968
C11   C     C_3   0.207312 0.180822 0.848858 -0.935609
C12   C     C_R   0.064478 0.998926 0.367076 0.083303
C13   C     C_R   0.048759 0.998159 0.722680 0.073887
C14   C     C_R   0.202552 0.498412 0.630710 0.145137
C15   C     C_R   0.825468 0.499279 0.282735 0.130856
C16   C     C_R   0.702552 0.998412 0.630710 0.145137
C17   C     C_R   0.325468 0.999279 0.282735 0.130855
C18   C     C_2   0.980458 0.456043 0.362872 -0.112581
C19   C     C_2   0.080072 0.453402 0.458779 -0.113950
C20   C     C_2   0.480458 0.956043 0.362872 -0.112581
C21   C     C_R   0.646238 0.347339 0.090388 -0.152810
C22   C     C_2   0.580072 0.953402 0.458779 -0.113950
C23   C     C_2   0.927952 0.501227 0.343149 -0.183780
C24   C     C_2   0.129740 0.498867 0.512539 -0.194441
C25   C     C_2   0.427952 0.001227 0.343149 -0.183781
C26   C     C_2   0.629740 0.998867 0.512539 -0.194442
C27   C     C_R   0.251092 0.682805 0.101356 0.141045
C28   C     C_R   0.630146 0.755992 0.895750 0.084218
C29   C     C_R   0.751093 0.182806 0.101356 0.141047
C30   C     C_R   0.130147 0.255989 0.895747 0.084196
C31   C     C_R   0.235654 0.663528 0.002872 0.001295
C32   C     C_R   0.809706 0.878070 0.907492 -0.147375
C33   C     C_R   0.648930 0.737044 0.994618 0.046661
C34   C     C_R   0.735654 0.163528 0.002872 0.001294
C35   C     C_R   0.148924 0.237045 0.994614 0.046638
C36   C     C_R   0.151479 0.680582 0.903339 -0.182527
C37   C     C_R   0.697504 0.771804 0.087641 -0.201450
C38   C     C_R   0.651479 0.180582 0.903340 -0.182527
C39   C     C_R   0.197494 0.271807 0.087635 -0.201449
C40   C     C_R   0.602949 0.227242 0.902249 -0.205682
C41   C     C_R   0.241801 0.319316 0.085493 -0.199538
C42   C     C_R   0.102949 0.727243 0.902248 -0.205679
C43   C     C_R   0.146238 0.847339 0.090388 -0.152811
C44   C     C_R   0.741807 0.819315 0.085498 -0.199538
C45   C     C_R   0.638013 0.256318 0.000899 0.043441
C46   C     C_R   0.236303 0.331898 0.989992 0.064338
C47   C     C_R   0.138012 0.756318 0.000899 0.043440
C48   C     C_R   0.736301 0.831901 0.989993 0.064336
C49   C     C_R   0.400550 0.622517 0.091683 -0.156571
C50   C     C_R   0.558859 0.650290 0.909210 -0.151363
C51   C     C_R   0.900550 0.122517 0.091683 -0.156577
C52   C     C_R   0.058858 0.150290 0.909209 -0.151322
C53   C     C_R   0.703528 0.229216 0.099760 0.109728
C54   C     C_R   0.311044 0.636769 0.000764 0.069867
C55   C     C_R   0.169370 0.303976 0.891831 0.101606
C56   C     C_R   0.203527 0.729216 0.099760 0.109729
C57   C     C_R   0.669361 0.803981 0.891831 0.101598
C58   C     C_3   0.786661 0.249644 0.208586 -0.573700
C59   C     C_3   0.175151 0.281701 0.801289 -0.561226
C60   C     C_3   0.286658 0.749642 0.208587 -0.573703
C61   C     C_3   0.675119 0.781713 0.801268 -0.561237
C62   C     C_3   0.338944 0.698388 0.212474 0.076063
C63   C     C_3   0.634890 0.728159 0.808390 0.086899
C64   C     C_3   0.838945 0.198389 0.212473 0.076066
C65   C     C_R   0.624479 0.680982 0.999971 0.089741
C66   C     C_3   0.134911 0.228150 0.808405 0.086873
C67   C     C_R   0.600889 0.446809 0.621428 0.165759
C68   C     C_R   0.604608 0.447266 0.531557 0.160467
C69   C     C_R   0.100884 0.946808 0.621423 0.165761
C70   C     C_R   0.104604 0.947265 0.531553 0.160467
C71   C     C_R   0.594895 0.496336 0.665978 0.033939
C72   C     C_R   0.601573 0.497175 0.483387 0.031729
C73   C     C_R   0.094892 0.996336 0.665975 0.033937
C74   C     C_R   0.101574 0.997174 0.483387 0.031729
C75   C     C_R   0.617913 0.545362 0.636771 -0.200429
C76   C     C_R   0.811044 0.136768 0.000764 0.069866
C77   C     C_R   0.620686 0.545861 0.544806 -0.200230
C78   C     C_R   0.117914 0.045361 0.636771 -0.200429
C79   C     C_R   0.120689 0.045860 0.544807 -0.200228
C80   C     C_3   0.543717 0.396989 0.482324 -0.523811
C81   C     C_3   0.539065 0.396602 0.580055 -0.523040
C82   C     C_3   0.043707 0.896991 0.482315 -0.523817
C83   C     C_3   0.039053 0.896605 0.580044 -0.523044
C84   C     C_R   0.549837 0.453621 0.303025 -0.156991
C85   C     C_R   0.520923 0.452785 0.752971 -0.144735
C86   C     C_R   0.049839 0.953621 0.303025 -0.156992
C87   C     C_R   0.124476 0.180982 0.999970 0.089748
C88   C     C_R   0.020922 0.952785 0.752970 -0.144734
C89   C     C_R   0.247522 0.544436 0.694623 -0.161410
C90   C     C_R   0.768746 0.545395 0.254418 -0.145824
C91   C     C_R   0.747522 0.044436 0.694623 -0.161410
C92   C     C_R   0.268746 0.045395 0.254418 -0.145824
C93   C     C_R   0.548382 0.544902 0.304031 -0.147722
C94   C     C_R   0.518252 0.544841 0.748757 -0.127458
C95   C     C_R   0.048383 0.044901 0.304032 -0.147720
C96   C     C_R   0.018250 0.044841 0.748755 -0.127454
C97   C     C_R   0.248651 0.453170 0.695764 -0.136725
C98   C     C_R   0.564475 0.498927 0.367075 0.083304
C99   C     C_R   0.768315 0.453060 0.252877 -0.120950
C100  C     C_R   0.748651 0.953170 0.695763 -0.136726
C101  C     C_R   0.268315 0.953060 0.252877 -0.120949
C102  C     C_R   0.309088 0.624212 0.907862 -0.117611
C103  C     C_R   0.652451 0.650643 0.092162 -0.141324
C104  C     C_R   0.809088 0.124211 0.907862 -0.117610
C105  C     C_R   0.152448 0.150643 0.092161 -0.141337
C106  C     C_R   0.401669 0.374614 0.091303 -0.128226
C107  C     C_R   0.556545 0.346983 0.908018 -0.146630
C108  C     C_R   0.901668 0.874615 0.091303 -0.128226
H1    H     H_    0.250054 0.377017 0.822159 0.114473
H2    H     H_    0.709303 0.759893 0.164416 0.124058
H3    H     H_    0.630326 0.163371 0.825048 0.124615
H4    H     H_    0.209288 0.259898 0.164408 0.124059
H5    H     H_    0.546582 0.243766 0.823282 0.122614
H6    H     H_    0.288484 0.342113 0.161348 0.125892
H7    H     H_    0.046583 0.743766 0.823281 0.122615
H8    H     H_    0.788493 0.842110 0.161354 0.125891
H9    H     H_    0.817998 0.287853 0.201804 0.175081
H10   H     H_    0.125513 0.303424 0.722168 0.165802
H11   H     H_    0.317996 0.787852 0.201807 0.175080
H12   H     H_    0.679341 0.333493 0.173668 0.102714
H13   H     H_    0.625468 0.803438 0.722155 0.165809
H14   H     H_    0.771484 0.251357 0.271579 0.203014
H15   H     H_    0.249066 0.278025 0.824990 0.213283
H16   H     H_    0.271479 0.751355 0.271579 0.203015
H17   H     H_    0.749026 0.778039 0.824944 0.213281
H18   H     H_    0.401497 0.708793 0.212475 0.128241
H19   H     H_    0.563778 0.718497 0.731986 0.117337
H20   H     H_    0.901498 0.208793 0.212472 0.128240
H21   H     H_    0.063806 0.218489 0.731990 0.117335
H22   H     H_    0.621335 0.584292 0.674639 0.133333
H23   H     H_    0.750053 0.877019 0.822159 0.114474
H24   H     H_    0.626013 0.585138 0.515281 0.127080
H25   H     H_    0.121336 0.084291 0.674638 0.133331
H26   H     H_    0.126019 0.085136 0.515285 0.127081
H27   H     H_    0.473351 0.405094 0.403679 0.200188
H28   H     H_    0.575507 0.360419 0.634190 0.190675
H29   H     H_    0.973343 0.905100 0.403671 0.200191
H30   H     H_    0.075488 0.860420 0.634176 0.190675
H31   H     H_    0.583320 0.361186 0.480650 0.188662
H32   H     H_    0.465886 0.404623 0.556105 0.201015
H33   H     H_    0.083304 0.861186 0.480639 0.188664
H34   H     H_    0.179341 0.833493 0.173668 0.102714
H35   H     H_    0.965874 0.904629 0.556094 0.201018
H36   H     H_    0.426898 0.623967 0.176628 0.113184
H37   H     H_    0.511072 0.664579 0.825473 0.090275
H38   H     H_    0.926897 0.123966 0.176628 0.113189
H39   H     H_    0.011072 0.164578 0.825471 0.090264
H40   H     H_    0.572411 0.411918 0.330855 0.101000
H41   H     H_    0.536206 0.410141 0.749484 0.110158
H42   H     H_    0.072413 0.911918 0.330856 0.101000
H43   H     H_    0.036205 0.910141 0.749483 0.110158
H44   H     H_    0.238450 0.586033 0.664644 0.090638
H45   H     H_    0.959498 0.540311 0.382824 0.125998
H46   H     H_    0.790998 0.587883 0.267284 0.098383
H47   H     H_    0.738450 0.086033 0.664644 0.090637
H48   H     H_    0.290997 0.087884 0.267283 0.098382
H49   H     H_    0.567011 0.586892 0.333296 0.089723
H50   H     H_    0.527463 0.587309 0.736454 0.093774
H51   H     H_    0.067012 0.086892 0.333297 0.089724
H52   H     H_    0.027458 0.087309 0.736448 0.093753
H53   H     H_    0.242106 0.411171 0.667587 0.083578
H54   H     H_    0.789692 0.410357 0.264679 0.090453
H55   H     H_    0.742106 0.911171 0.667587 0.083580
H56   H     H_    0.108991 0.538890 0.473674 0.126848
H57   H     H_    0.289692 0.910357 0.264679 0.090452
H58   H     H_    0.250520 0.629116 0.822489 0.092622
H59   H     H_    0.692111 0.665310 0.176327 0.085386
H60   H     H_    0.750520 0.129116 0.822489 0.092622
H61   H     H_    0.192108 0.165312 0.176326 0.085389
H62   H     H_    0.427977 0.368046 0.176111 0.094146
H63   H     H_    0.509604 0.332665 0.823873 0.085078
H64   H     H_    0.927977 0.868047 0.176111 0.094146
H65   H     H_    0.009604 0.832665 0.823873 0.085078
H66   H     H_    0.946378 0.417306 0.322834 0.116355
H67   H     H_    0.459498 0.040312 0.382824 0.125997
H68   H     H_    0.104928 0.413193 0.496157 0.114047
H69   H     H_    0.446378 0.917306 0.322835 0.116355
H70   H     H_    0.604928 0.913193 0.496157 0.114047
H71   H     H_    0.418009 0.675845 0.385120 0.248954
H72   H     H_    0.296592 0.651733 0.303013 0.258452
H73   H     H_    0.384270 0.618045 0.293088 0.243499
H74   H     H_    0.677274 0.641926 0.854008 0.241383
H75   H     H_    0.725497 0.674076 0.789322 0.243630
H76   H     H_    0.773587 0.690373 0.930995 0.261999
H77   H     H_    0.918025 0.175841 0.385117 0.248954
H78   H     H_    0.608991 0.038890 0.473674 0.126848
H79   H     H_    0.796600 0.151742 0.303027 0.258453
H80   H     H_    0.884254 0.118043 0.293075 0.243503
H81   H     H_    0.177244 0.141908 0.853947 0.241338
H82   H     H_    0.225599 0.174088 0.789426 0.243628
H83   H     H_    0.273570 0.190341 0.931091 0.261977
H84   H     H_    0.130326 0.663372 0.825048 0.124615
N1    N     N_R   0.395410 0.396350 0.944340 -0.040146
N2    N     N_R   0.474920 0.471030 0.794350 -0.039696
N3    N     N_R   0.025080 0.971030 0.205650 -0.036627
N4    N     N_R   0.974920 0.971030 0.794350 -0.039696
N5    N     N_R   0.320260 0.527820 0.794570 -0.038483
N6    N     N_R   0.679740 0.527820 0.205430 -0.040816
N7    N     N_R   0.820260 0.027820 0.794570 -0.038483
N8    N     N_R   0.179740 0.027820 0.205430 -0.040816
N9    N     N_R   0.524590 0.527840 0.205200 -0.036860
N10   N     N_R   0.475410 0.527840 0.794800 -0.039023
N11   N     N_R   0.024590 0.027840 0.205200 -0.036861
N12   N     N_R   0.604590 0.396350 0.055660 -0.038278
N13   N     N_R   0.975410 0.027840 0.794800 -0.039022
N14   N     N_R   0.320750 0.471000 0.795020 -0.041944
N15   N     N_R   0.679250 0.471000 0.204980 -0.043719
N16   N     N_R   0.820750 0.971000 0.795020 -0.041944
N17   N     N_R   0.179250 0.971000 0.204980 -0.043719
N18   N     N_R   0.393620 0.602490 0.942710 -0.040799
N19   N     N_R   0.606380 0.602490 0.057290 -0.037463
N20   N     N_R   0.893620 0.102490 0.942710 -0.040799
N21   N     N_R   0.106380 0.102490 0.057290 -0.037462
N22   N     N_R   0.451720 0.396350 0.057510 -0.039096
N23   N     N_R   0.895410 0.896350 0.944340 -0.040146
N24   N     N_R   0.548280 0.396350 0.942490 -0.037530
N25   N     N_R   0.951720 0.896350 0.057510 -0.039096
N26   N     N_R   0.048280 0.896350 0.942490 -0.037530
N27   N     N_R   0.104590 0.896350 0.055660 -0.038278
N28   N     N_R   0.449930 0.602500 0.055880 -0.040083
N29   N     N_R   0.550070 0.602500 0.944120 -0.038946
N30   N     N_R   0.949930 0.102500 0.055880 -0.040083
N31   N     N_R   0.050070 0.102500 0.944120 -0.038949
N32   N     N_R   0.525080 0.471030 0.205650 -0.036626
Ni1   Ni    Ni4+2 0.435420 0.434270 0.870230 0.207256
Ni2   Ni    Ni4+2 0.564580 0.434270 0.129770 0.207838
Ni3   Ni    Ni4+2 0.935420 0.934270 0.870230 0.207256
Ni4   Ni    Ni4+2 0.064580 0.934270 0.129770 0.207838
Ni5   Ni    Ni4+2 0.563430 0.564580 0.128740 0.209954
Ni6   Ni    Ni4+2 0.436570 0.564580 0.871260 0.209852
Ni7   Ni    Ni4+2 0.063430 0.064580 0.128740 0.209954
Ni8   Ni    Ni4+2 0.936570 0.064580 0.871260 0.209851

loop_
_geom_bond_atom_site_label_1
_geom_bond_atom_site_label_2
_ccdc_geom_bond_type
C8    H73   S    
C76   C104  A    
C81   H32   S    
C83   H35   S    
C78   C79   A    
C50   N29   A    
C103  H59   S    
C55   C59   S    
N28   Ni5   S    
N21   N31   A    
C88   N4    A    
C36   C42   A    
C41   H6    S    
C22   H70   S    
C8    H72   S    
C100  N16   A    
N6    Ni5   S    
C33   C65   S    
C48   C57   A    
C39   C41   A    
C71   C75   A    
C72   C98   S    
C28   C57   A    
N20   N30   A    
C104  N20   A    
C80   H27   S    
C105  H61   S    
N3    Ni4   S    
C2    C85   A    
C95   H51   S    
N2    Ni1   S    
C60   C62   S    
N11   Ni7   S    
C21   H12   S    
C12   C74   S    
N23   N25   A    
C59   C66   S    
N20   Ni8   S    
C85   N2    A    
N3    N11   A    
C20   C25   D    
C51   N30   A    
C95   N11   A    
C49   C54   A    
N2    N10   A    
C49   H36   S    
C10   H77   S    
N18   N28   A    
C60   H11   S    
C61   H13   S    
C18   C19   S    
C14   C24   S    
N4    N13   A    
C61   C63   S    
C17   C101  A    
C19   H68   S    
C9    H74   S    
C1    H1    S    
C32   N23   A    
C35   C87   S    
C3    H65   S    
C89   H44   S    
C107  N24   A    
C93   H49   S    
C64   H20   S    
C11   H83   S    
N29   Ni6   S    
C70   C74   A    
C10   H80   S    
C41   C46   A    
C12   C95   A    
C69   C73   A    
C94   N10   A    
N8    Ni7   S    
C7    C43   A    
C97   N14   A    
C90   H46   S    
C93   N9    A    
N23   Ni3   S    
N21   Ni7   S    
C75   H22   S    
C82   H29   S    
N10   Ni6   S    
C66   H21   S    
C91   N7    A    
C15   C23   S    
N4    Ni3   S    
C45   C53   A    
C16   C100  A    
C102  H58   S    
C34   C38   A    
C59   H15   S    
C106  H62   S    
C21   N12   A    
N5    N14   A    
C24   H56   S    
C17   C92   A    
C82   H33   S    
N22   Ni2   S    
C50   C65   A    
C29   C53   A    
C14   C97   A    
C84   H40   S    
C36   H84   S    
C16   C26   S    
C40   C45   A    
C106  N22   A    
C10   C64   S    
C58   H14   S    
C105  N21   A    
C49   N28   A    
C27   C31   A    
C18   C23   D    
C2    C94   A    
C51   C76   A    
C84   N32   A    
C103  N19   A    
C62   H18   S    
C27   C56   A    
C102  N18   A    
C107  H63   S    
C13   C96   A    
C58   C64   S    
C101  N17   A    
N5    Ni6   S    
C73   C78   A    
C4    C106  A    
C29   C34   A    
C58   H9    S    
C33   C37   A    
C56   C60   S    
C99   N15   A    
C11   H81   S    
C77   H24   S    
C7    C47   S    
C46   C55   A    
C35   C39   A    
N7    Ni8   S    
C14   C89   A    
C91   H47   S    
C72   C77   A    
C69   C83   S    
C27   C62   S    
C86   N3    A    
C104  H60   S    
C99   H54   S    
C25   H67   S    
N15   Ni2   S    
C40   H5    S    
C87   C105  A    
C68   C72   A    
N26   N27   A    
N14   Ni1   S    
C10   H79   S    
N18   Ni6   S    
C92   H48   S    
C67   C68   A    
C101  H57   S    
C75   C77   A    
C37   H2    S    
C30   C66   S    
C6    C48   S    
C16   C91   A    
C108  N25   A    
C18   H66   S    
C50   H37   S    
C9    H75   S    
C96   H52   S    
C20   C22   S    
C28   C33   A    
C67   C81   S    
C59   H10   S    
C97   H53   S    
C74   C79   A    
C23   H45   S    
N17   Ni4   S    
N27   Ni4   S    
C88   H43   S    
C60   H16   S    
C65   C103  A    
N12   Ni2   S    
C2    C71   S    
N26   Ni3   S    
C89   N5    A    
N31   Ni8   S    
C81   H28   S    
C1    N1    A    
C5    C107  A    
C79   H26   S    
C39   H4    S    
C6    C32   A    
N19   Ni5   S    
N1    N22   A    
N6    N15   A    
C9    C63   S    
C54   C102  A    
C52   C87   A    
C43   N27   A    
N8    N17   A    
C15   C99   A    
C80   C81   S    
N13   Ni8   S    
N32   Ni2   S    
N30   Ni7   S    
C53   C58   S    
C11   C66   S    
C57   C61   S    
C20   H69   S    
C90   N6    A    
C96   N13   A    
C52   H39   S    
C80   H31   S    
C30   C35   A    
C30   C55   A    
N12   N24   A    
C3    C7    A    
N24   Ni1   S    
C51   H38   S    
C12   C86   A    
C11   H82   S    
C84   C98   A    
C1    C4    A    
C37   C44   A    
C86   H42   S    
C19   C24   D    
C17   C25   S    
N16   Ni3   S    
C9    H76   S    
C68   C80   S    
C38   C40   A    
C26   H78   S    
C8    H71   S    
C4    C46   S    
C5    C45   S    
C108  H64   S    
C13   C88   A    
N9    Ni5   S    
N7    N16   A    
C100  H55   S    
C67   C71   A    
C42   C47   A    
C83   H30   S    
C31   C54   S    
C69   C70   A    
C70   C82   S    
C78   H25   S    
C85   H41   S    
C29   C64   S    
N25   Ni4   S    
N1    Ni1   S    
C28   C63   S    
C42   H7    S    
C5    C21   A    
C44   H8    S    
C52   N31   A    
C94   H50   S    
C82   C83   S    
C22   C26   D    
C8    C62   S    
C6    C108  A    
C31   C36   A    
C43   H34   S    
C61   H17   S    
C13   C73   S    
N9    N32   A    
C38   H3    S    
C92   N8    A    
C93   C98   A    
C32   H23   S    
C63   H19   S    
C3    N26   A    
C44   C48   A    
C34   C76   S    
C47   C56   A    
C15   C90   A    
N19   N29   A    
