data_mof_unit_11979.cif
_audit_creation_date              2012-10-26T21:02:39-0400
_audit_creation_method            fapswitch 2.2
_symmetry_space_group_name_H-M    P1
_symmetry_Int_Tables_number       1
_space_group_crystal_system       triclinic
_cell_length_a                    12.352149
_cell_length_b                    13.216941
_cell_length_c                    15.037926
_cell_angle_alpha                 76.685852
_cell_angle_beta                  101.000613
_cell_angle_gamma                 116.960676
_cell_volume                      2118.82637174

loop_
_atom_site_label
_atom_site_type_symbol
_atom_type_description
_atom_site_fract_x
_atom_site_fract_y
_atom_site_fract_z
_atom_type_partial_charge
C1    C     C_R   0.854094 0.284647 0.515147 0.565070
C2    C     C_R   0.013777 0.405682 0.834938 0.253619
C3    C     C_R   0.992083 0.490491 0.768030 -0.005275
C4    C     C_R   0.997432 0.496781 0.670996 0.532173
C5    C     C_R   0.967810 0.572451 0.793041 -0.134972
C6    C     C_R   0.268412 0.035338 0.456185 0.124057
C7    C     C_R   0.226516 0.836236 0.464239 -0.023544
C8    C     C_R   0.816537 0.073162 0.545730 0.044819
C9    C     C_R   0.737972 0.957827 0.535805 0.318560
C10   C     C_R   0.612294 0.923259 0.514405 0.315420
C11   C     C_R   0.563388 0.006131 0.490660 -0.023466
C12   C     C_R   0.977591 0.584789 0.071051 0.032420
C13   C     C_R   0.643557 0.121173 0.502660 -0.038052
C14   C     C_R   0.435697 0.978752 0.467702 0.008565
C15   C     C_R   0.394180 0.064765 0.462886 0.044953
C16   C     C_R   0.144921 0.713450 0.481923 0.552669
C17   C     C_R   0.480653 0.176461 0.470492 0.122898
C18   C     C_R   0.590273 0.186676 0.520504 0.099508
C19   C     C_R   0.347327 0.871024 0.448518 0.086000
C20   C     C_R   0.186098 0.919565 0.464232 -0.114649
C21   C     C_R   0.771192 0.158086 0.521903 -0.029508
C22   C     C_R   0.370055 0.375264 0.671464 -0.091091
C23   C     C_R   0.079500 0.352710 0.091411 0.246743
C24   C     C_R   0.752758 0.632089 0.366352 0.080144
C25   C     C_R   0.650747 0.654872 0.332213 0.250435
C26   C     C_R   0.550208 0.604628 0.382974 -0.007039
C27   C     C_R   0.551438 0.535118 0.469185 -0.020047
C28   C     C_R   0.002864 0.503569 0.328879 0.542656
C29   C     C_R   0.657265 0.514417 0.500377 0.155125
C30   C     C_R   0.451076 0.483282 0.524921 0.004271
C31   C     C_R   0.466182 0.426134 0.615525 0.053631
C32   C     C_R   0.576120 0.418157 0.647892 0.070617
C33   C     C_R   0.660335 0.446683 0.586614 -0.053940
C34   C     C_R   0.070640 0.343829 0.998978 0.211468
C35   C     C_R   0.337032 0.488007 0.496088 0.090105
C36   C     C_R   0.260566 0.381842 0.638650 0.083557
C37   C     C_R   0.983646 0.591378 0.163741 0.244557
C38   C     C_R   0.008985 0.509626 0.231864 0.004892
C39   C     C_R   0.039185 0.430484 0.207628 -0.143215
C40   C     C_R   0.043060 0.429001 0.115632 -0.018223
C41   C     C_R   0.006897 0.503342 0.046691 -0.030552
C42   C     C_R   0.028687 0.414374 0.928831 0.023731
C43   C     C_R   0.000416 0.496941 0.953495 -0.043034
C44   C     C_R   0.964941 0.573163 0.884987 0.018531
C45   C     C_R   0.932630 0.651990 0.910247 0.249042
C46   C     C_R   0.942675 0.658917 0.002358 0.004757
Cu1   Cu    Cu3+1 0.098270 0.475420 0.521130 1.010505
Cu2   Cu    Cu3+1 0.901730 0.524580 0.478870 0.976635
H1    H     H_    0.187957 0.345256 0.682911 0.181269
H2    H     H_    0.091087 0.895030 0.470326 0.162075
H3    H     H_    0.012585 0.698468 0.244702 0.336827
H4    H     H_    0.476033 0.793762 0.568427 0.333061
H5    H     H_    0.866253 0.908731 0.544324 0.341347
H6    H     H_    0.723629 0.753002 0.221782 0.343566
H7    H     H_    0.180001 0.332898 0.203653 0.340643
H8    H     H_    0.964444 0.296738 0.750555 0.343267
H9    H     H_    0.838100 0.681255 0.797263 0.348847
H10   H     H_    0.377661 0.329215 0.740025 0.170436
H11   H     H_    0.055860 0.367652 0.261652 0.165007
H12   H     H_    0.319166 0.532514 0.429619 0.137486
H13   H     H_    0.830672 0.669626 0.327207 0.144309
H14   H     H_    0.472894 0.622316 0.353571 0.161451
H15   H     H_    0.724299 0.410883 0.608438 0.195913
H16   H     H_    0.953690 0.637054 0.739522 0.158003
H17   H     H_    0.918902 0.720975 0.019799 0.215078
I1    I     I_    0.495009 0.301076 0.350542 -0.260840
I2    I     I_    0.198028 0.156543 0.451114 -0.290536
I3    I     I_    0.375740 0.794247 0.350075 -0.272802
I4    I     I_    0.985850 0.102625 0.629439 -0.228301
I5    I     I_    0.577938 0.148042 0.664092 -0.306609
I6    I     I_    0.627594 0.374844 0.790363 -0.302118
I7    I     I_    0.140632 0.231304 0.974883 -0.070887
N1    N     N_R   0.246280 0.438190 0.553160 -0.236186
N2    N     N_R   0.754320 0.561190 0.447410 -0.257751
O1    O     O_R   0.972510 0.318130 0.526570 -0.468466
O2    O     O_3   0.540229 0.806530 0.530866 -0.623612
O3    O     O_3   0.779163 0.873102 0.555393 -0.617534
O4    O     O_3   0.645956 0.724551 0.249167 -0.646504
O5    O     O_3   0.125413 0.285850 0.156653 -0.634891
O6    O     O_3   0.015075 0.312195 0.809785 -0.654326
O7    O     O_3   0.890240 0.723416 0.847544 -0.647697
O8    O     O_R   0.806530 0.359650 0.490890 -0.493764
O9    O     O_R   0.082980 0.479210 0.647590 -0.494967
O10   O     O_R   0.917000 0.520730 0.611900 -0.527863
O11   O     O_R   0.193470 0.640350 0.509110 -0.477511
O12   O     O_R   0.027490 0.681870 0.473430 -0.513881
O13   O     O_R   0.083000 0.479270 0.388100 -0.507681
O14   O     O_R   0.917020 0.520790 0.352410 -0.487119
O15   O     O_3   0.965070 0.678202 0.185338 -0.702268

loop_
_geom_bond_atom_site_label_1
_geom_bond_atom_site_label_2
_ccdc_geom_bond_type
C18   I5    S    
C1    C21   S    
C24   H13   S    
C27   C29   A    
C34   C42   A    
C45   C46   A    
C17   I1    S    
C37   C38   A    
C13   C18   A    
Cu1   O11   S    
C30   C31   A    
C11   C14   A    
C23   C40   A    
C29   C33   A    
C12   C37   A    
C20   H2    S    
C6    C15   A    
C10   O2    S    
C35   N1    A    
Cu1   Cu2   S    
C8    C9    A    
C28   O14   A    
Cu2   O14   S    
Cu1   O9    S    
C9    C10   A    
C27   C30   A    
C16   O12   A    
C41   C43   A    
C8    C21   A    
C32   I6    S    
C22   C31   A    
C25   O4    S    
C1    O1    A    
Cu2   N2    S    
C24   C25   A    
Cu1   N1    S    
C46   H17   S    
C12   C46   A    
C36   N1    A    
C39   C40   A    
C8    I4    S    
C29   N2    A    
H4    O2    S    
C1    O8    A    
Cu2   O10   S    
C5    H16   S    
C35   H12   S    
Cu1   O13   S    
H5    O3    S    
C43   C44   A    
C12   C41   A    
H7    O5    S    
C31   C32   A    
C4    O10   A    
C28   C38   S    
C33   H15   S    
C23   C34   A    
C39   H11   S    
C28   O13   A    
C17   C18   A    
C26   C27   A    
C13   C21   A    
C19   I3    S    
C9    O3    S    
C30   C35   A    
C7    C16   S    
C5    C44   A    
C7    C19   A    
C16   O11   A    
Cu2   O12   S    
C42   C43   A    
C3    C4    S    
C34   I7    S    
C22   C36   A    
C44   C45   A    
C15   C17   A    
C6    I2    S    
C14   C19   A    
C45   O7    S    
C3    C5    A    
C22   H10   S    
C6    C20   A    
H8    O6    S    
C37   O15   S    
C32   C33   A    
C2    C3    A    
C25   C26   A    
Cu1   O1    S    
H3    O15   S    
C11   C13   A    
C24   N2    A    
C38   C39   A    
C4    O9    A    
C2    C42   A    
Cu2   O8    S    
H9    O7    S    
C26   H14   S    
C2    O6    S    
C10   C11   A    
C7    C20   A    
C14   C15   A    
C40   C41   A    
C23   O5    S    
C36   H1    S    
H6    O4    S    
