data_mof_unit_38003.cif
_audit_creation_date              2013-03-05T15:57:38-0500
_audit_creation_method            fapswitch 2.2
_symmetry_space_group_name_H-M    P1
_symmetry_Int_Tables_number       1
_space_group_crystal_system       triclinic
_cell_length_a                    15.063487
_cell_length_b                    13.801999
_cell_length_c                    11.680008
_cell_angle_alpha                 89.982253
_cell_angle_beta                  89.69436
_cell_angle_gamma                 90.103746
_cell_volume                      2428.30780376

loop_
_atom_site_label
_atom_site_type_symbol
_atom_site_description
_atom_site_fract_x
_atom_site_fract_y
_atom_site_fract_z
_atom_type_partial_charge
O1    O     O_R   0.370260 0.582280 0.500020 -0.533767
O2    O     O_R   0.629740 0.417720 0.499980 -0.541914
O3    O     O_R   0.629740 0.582280 0.499980 -0.533974
O4    O     O_R   0.370260 0.417720 0.500020 -0.542039
C1    C     C_R   0.329007 0.499822 0.502591 0.804831
C2    C     C_R   0.670999 0.499966 0.497388 0.804756
O5    O     O_R   0.500010 0.582270 0.337200 -0.583998
O6    O     O_R   0.499990 0.417730 0.662800 -0.562072
O7    O     O_R   0.499990 0.582270 0.662800 -0.584090
O8    O     O_R   0.500010 0.417730 0.337200 -0.561864
C3    C     C_R   0.498785 0.499962 0.284070 0.818077
C4    C     C_R   0.501219 0.499943 0.715930 0.818226
Cu1   Cu    Cu3+1 0.500000 0.597420 0.500000 0.979806
Cu2   Cu    Cu3+1 0.500000 0.402580 0.500000 1.002614
C5    C     C_1   0.497791 0.499589 0.162414 -0.188759
C6    C     C_1   0.502215 0.499534 0.837587 -0.188639
C7    C     C_1   0.498692 0.498808 0.059880 -0.028035
C8    C     C_1   0.501317 0.498779 0.940122 -0.028019
C9    C     C_R   0.815092 0.510469 0.390647 -0.005340
C10   C     C_R   0.184981 0.509987 0.609391 -0.005576
C11   C     C_R   0.767615 0.499260 0.494442 -0.079807
C12   C     C_R   0.232404 0.498839 0.505586 -0.079541
C13   C     C_R   0.811830 0.483160 0.597240 -0.251324
C14   C     C_R   0.188127 0.482999 0.402758 -0.250727
C15   C     C_R   0.904279 0.485380 0.601160 0.024709
C16   C     C_R   0.095689 0.485370 0.398853 0.024479
C17   C     C_R   0.953168 0.492789 0.498247 -0.027488
C18   C     C_R   0.046835 0.492673 0.501781 -0.027579
C19   C     C_R   0.908793 0.500523 0.391903 0.035442
C20   C     C_R   0.091248 0.500110 0.608137 0.035068
C21   C     C_R   0.948928 0.479710 0.706147 0.418403
C22   C     C_R   0.051016 0.480046 0.293856 0.418112
C23   C     C_R   0.040370 0.496580 0.709502 -0.328806
C24   C     C_R   0.959670 0.497157 0.290538 -0.328548
H1    H     H_    0.773445 0.472971 0.675123 0.165192
H2    H     H_    0.226469 0.473021 0.324837 0.165350
H3    H     H_    0.070205 0.501798 0.792901 0.178139
H4    H     H_    0.929890 0.502692 0.207142 0.178267
C25   C     C_R   0.421898 0.795837 0.492523 0.481081
C26   C     C_R   0.566484 0.206038 0.446176 0.500099
C27   C     C_R   0.578100 0.796163 0.507228 0.480293
C28   C     C_R   0.433418 0.205770 0.553712 0.499588
N1    N     N_R   0.500000 0.743810 0.500000 -0.266786
N2    N     N_R   0.500000 0.256190 0.500000 -0.266554
C29   C     C_R   0.579780 0.898393 0.485531 -0.146092
C30   C     C_R   0.424012 0.103971 0.534727 -0.165926
C31   C     C_R   0.420112 0.898040 0.514295 -0.145742
C32   C     C_R   0.575862 0.104296 0.465201 -0.165994
C33   C     C_R   0.499943 0.949705 0.499966 -0.018627
C34   C     C_R   0.499940 0.052372 0.499984 -0.013425
C35   C     C_R   0.658542 0.951065 0.456799 -0.038611
C36   C     C_R   0.343553 0.053037 0.554659 -0.055646
C37   C     C_R   0.341282 0.950356 0.542955 -0.038318
C38   C     C_R   0.656286 0.053720 0.445166 -0.055979
C39   C     C_R   0.767254 0.539173 0.284620 0.078615
C40   C     C_R   0.765147 0.478697 0.188158 -0.183505
C41   C     C_R   0.726818 0.511197 0.086209 -0.124105
C42   C     C_R   0.688660 0.603133 0.080671 -0.099059
C43   C     C_R   0.686244 0.661595 0.177934 -0.152867
C44   C     C_R   0.725703 0.629969 0.279256 -0.100967
H5    H     H_    0.795160 0.407575 0.191423 0.137972
H6    H     H_    0.725771 0.465098 0.011565 0.151261
H7    H     H_    0.659111 0.628115 0.001752 0.127286
H8    H     H_    0.654478 0.731738 0.174452 0.119619
H9    H     H_    0.725362 0.676960 0.353234 0.192803
C45   C     C_R   0.232907 0.538839 0.715346 0.078683
C46   C     C_R   0.235013 0.478401 0.811873 -0.184295
C47   C     C_R   0.273486 0.511026 0.913723 -0.123657
C48   C     C_R   0.311705 0.603094 0.919122 -0.099015
C49   C     C_R   0.314069 0.661558 0.821805 -0.152758
C50   C     C_R   0.274570 0.629748 0.720552 -0.100381
H10   H     H_    0.204931 0.407191 0.808723 0.137992
H11   H     H_    0.274596 0.464926 0.988396 0.151024
H12   H     H_    0.341356 0.628172 0.997964 0.127187
H13   H     H_    0.345833 0.731840 0.825164 0.119736
H14   H     H_    0.274962 0.676698 0.646503 0.192655
O9    O     O_3   0.903131 0.459270 0.806327 -0.578387
C51   C     C_3   0.921793 0.362195 0.836961 0.078095
H15   H     H_    0.993315 0.352949 0.857688 0.139752
H16   H     H_    0.903823 0.311357 0.766636 0.122758
C52   C     C_3   0.868079 0.334223 0.942261 -0.832026
H17   H     H_    0.796268 0.333691 0.921499 0.236971
H18   H     H_    0.887436 0.260641 0.971301 0.192546
H19   H     H_    0.881070 0.386533 0.012260 0.252079
O10   O     O_3   0.096699 0.459686 0.193634 -0.578372
C53   C     C_3   0.077446 0.362743 0.162768 0.078342
H20   H     H_    0.005850 0.353744 0.142151 0.139683
H21   H     H_    0.095210 0.311686 0.232923 0.122686
C54   C     C_3   0.130869 0.334881 0.057287 -0.831750
H22   H     H_    0.202694 0.334008 0.077933 0.236842
H23   H     H_    0.111006 0.261458 0.028035 0.192421
H24   H     H_    0.118139 0.387449 0.987490 0.252362
O11   O     O_3   0.347445 0.752183 0.448135 -0.555368
C55   C     C_3   0.349497 0.764602 0.327813 0.075145
H25   H     H_    0.414776 0.743547 0.289883 0.147861
H26   H     H_    0.336162 0.841556 0.305330 0.111417
C56   C     C_3   0.278496 0.701557 0.273186 -0.760099
H27   H     H_    0.213182 0.713734 0.315262 0.250290
H28   H     H_    0.272967 0.719316 0.180778 0.186345
H29   H     H_    0.297109 0.624221 0.281389 0.237356
O12   O     O_3   0.617764 0.252876 0.364713 -0.531350
C57   C     C_3   0.586646 0.223586 0.255612 0.091374
H30   H     H_    0.514815 0.240839 0.245472 0.140080
H31   H     H_    0.596123 0.144447 0.241893 0.116007
C58   C     C_3   0.637654 0.276080 0.162015 -0.804987
H32   H     H_    0.709580 0.260084 0.168387 0.243173
H33   H     H_    0.613688 0.252327 0.076758 0.189394
H34   H     H_    0.626607 0.354864 0.170334 0.266394
O13   O     O_3   0.652831 0.752679 0.550739 -0.555071
C59   C     C_3   0.651741 0.765338 0.671020 0.074946
H35   H     H_    0.586951 0.743382 0.709854 0.147938
H36   H     H_    0.664648 0.842519 0.693088 0.111840
C60   C     C_3   0.723745 0.703424 0.724871 -0.760469
H37   H     H_    0.788765 0.717067 0.682472 0.249898
H38   H     H_    0.729349 0.720906 0.817347 0.186564
H39   H     H_    0.706097 0.625756 0.716352 0.238296
O14   O     O_3   0.382022 0.252428 0.634993 -0.531401
C61   C     C_3   0.413011 0.223322 0.744197 0.091541
H40   H     H_    0.484846 0.240792 0.754432 0.140088
H41   H     H_    0.403454 0.144165 0.758038 0.115912
C62   C     C_3   0.361957 0.275751 0.837608 -0.804991
H42   H     H_    0.290022 0.259550 0.831144 0.243071
H43   H     H_    0.385816 0.252140 0.922952 0.189377
H44   H     H_    0.373085 0.354562 0.829154 0.266297
C63   C     C_R   0.740910 0.899523 0.424514 0.170989
C64   C     C_R   0.756438 0.875373 0.309470 -0.202328
C65   C     C_R   0.834787 0.828225 0.277562 -0.143454
C66   C     C_R   0.896239 0.801716 0.360939 -0.111463
C67   C     C_R   0.881480 0.826899 0.475442 -0.136572
C68   C     C_R   0.805403 0.878268 0.506722 -0.071690
H45   H     H_    0.708012 0.893454 0.244707 0.108741
H46   H     H_    0.846463 0.809477 0.188787 0.140759
H47   H     H_    0.954932 0.761511 0.336519 0.127146
H48   H     H_    0.928505 0.806573 0.540400 0.119344
H49   H     H_    0.795868 0.899480 0.595113 0.107626
C69   C     C_R   0.259724 0.108189 0.573465 0.167199
C70   C     C_R   0.224273 0.163882 0.483946 -0.116921
C71   C     C_R   0.148716 0.220692 0.502362 -0.102835
C72   C     C_R   0.107906 0.222334 0.610008 -0.100362
C73   C     C_R   0.142474 0.166935 0.699398 -0.155211
C74   C     C_R   0.218148 0.110145 0.681444 -0.099178
H50   H     H_    0.255879 0.164152 0.400432 0.103303
H51   H     H_    0.122132 0.263984 0.433454 0.110894
H52   H     H_    0.049827 0.266899 0.624268 0.106893
H53   H     H_    0.111302 0.168981 0.783077 0.112762
H54   H     H_    0.245653 0.070079 0.752480 0.105579
C75   C     C_R   0.258864 0.898345 0.575013 0.168168
C76   C     C_R   0.242638 0.874955 0.690182 -0.202446
C77   C     C_R   0.164641 0.826551 0.721644 -0.142760
C78   C     C_R   0.104464 0.797689 0.637717 -0.114274
C79   C     C_R   0.119975 0.821944 0.523082 -0.136407
C80   C     C_R   0.195354 0.875005 0.492234 -0.068681
H55   H     H_    0.290340 0.894367 0.755357 0.109010
H56   H     H_    0.152446 0.808401 0.810508 0.140906
H57   H     H_    0.046192 0.756302 0.661693 0.128886
H58   H     H_    0.074111 0.799414 0.457713 0.118111
H59   H     H_    0.205332 0.895541 0.403684 0.108214
C81   C     C_R   0.740096 0.109178 0.426013 0.167212
C82   C     C_R   0.775677 0.165168 0.515264 -0.116577
C83   C     C_R   0.851333 0.222056 0.496549 -0.103026
C84   C     C_R   0.892096 0.223502 0.388867 -0.100819
C85   C     C_R   0.857387 0.167821 0.299735 -0.155347
C86   C     C_R   0.781629 0.110926 0.317995 -0.099261
H60   H     H_    0.744130 0.165561 0.598812 0.103299
H61   H     H_    0.878048 0.265535 0.565262 0.110963
H62   H     H_    0.950264 0.268113 0.374389 0.106695
H63   H     H_    0.888539 0.169696 0.216033 0.112888
H64   H     H_    0.754055 0.070551 0.247185 0.106009

loop_
_geom_bond_atom_site_label_1
_geom_bond_atom_site_label_2
_geom_bond_distance
_ccdc_geom_bond_type
C15   C21   1.403957 A    
C70   H50   1.083137 S    
C16   C22   1.403886 A    
O12   C57   1.418799 S    
C17   C19   1.417762 A    
O14   C61   1.418770 S    
Cu2   N2    2.020475 S    
C68   H49   1.082104 S    
C39   C40   1.402846 A    
O3    C2    1.296258 A    
C66   C67   1.398669 A    
C56   H29   1.108348 S    
C55   H26   1.112921 S    
C56   H27   1.110505 S    
C71   C72   1.396806 A    
C77   C78   1.396319 A    
C41   H6    1.079638 S    
C31   C33   1.406147 A    
C10   C20   1.418431 A    
O10   C53   1.415749 S    
C32   C38   1.417682 A    
C58   H33   1.110417 S    
C43   H8    1.081549 S    
C14   H2    1.084249 S    
O1    C1    1.295956 A    
C10   C45   1.489998 S    
C9    C11   1.412582 A    
C14   C16   1.393872 A    
C67   C68   1.395736 A    
C71   H51   1.081279 S    
C82   C83   1.398950 A    
C50   H14   1.080550 S    
C53   H21   1.114581 S    
C29   C35   1.428719 A    
C30   C36   1.418136 A    
C37   C75   1.479369 S    
C40   C41   1.400160 A    
C57   C58   1.516233 S    
C5    C7    1.197652 T    
C46   H10   1.082249 S    
C28   C30   1.429393 A    
O7    Cu1   1.912902 S    
C59   H35   1.115424 S    
C25   O11   1.376068 S    
C62   H44   1.104609 S    
C75   C76   1.403348 A    
C56   H28   1.110334 S    
C26   O12   1.381989 S    
C65   H46   1.082323 S    
C3    C5    1.421116 S    
C63   C68   1.400941 A    
C1    C12   1.455454 S    
C4    C6    1.421125 S    
C47   C48   1.395684 A    
C79   C80   1.395674 A    
C21   C23   1.397307 A    
C21   O9    1.383880 S    
C49   C50   1.397239 A    
C54   H23   1.110586 S    
C26   N2    1.368713 A    
C84   H62   1.082519 S    
O3    Cu1   1.965850 S    
C31   C37   1.429152 A    
C60   H39   1.108607 S    
C32   C34   1.406596 A    
C45   C46   1.402803 A    
C43   C44   1.397319 A    
C27   O13   1.376254 S    
Cu1   Cu2   2.689180 S    
C61   H40   1.115249 S    
C27   N1    1.382510 A    
O2    C2    1.293445 A    
C28   N2    1.369029 A    
C52   H18   1.110580 S    
C84   C85   1.397364 A    
C61   H41   1.113348 S    
C58   H34   1.104571 S    
C46   C47   1.400190 A    
C35   C63   1.478544 S    
C76   C77   1.397910 A    
O8    Cu2   1.912902 S    
C51   H15   1.113049 S    
C69   C70   1.405785 A    
C25   N1    1.382567 A    
C55   C56   1.520652 S    
C42   C43   1.393987 A    
O9    C51   1.415743 S    
C2    C11   1.455644 S    
C19   C24   1.407734 A    
C52   H17   1.109847 S    
C85   H63   1.082450 S    
C61   C62   1.516247 S    
C22   C24   1.397270 A    
O5    C3    1.294771 A    
C77   H56   1.082333 S    
C69   C74   1.405430 A    
C38   C81   1.491006 S    
C72   H52   1.082558 S    
C45   C50   1.403384 A    
C29   C33   1.406164 A    
O6    C4    1.293626 A    
C7    C8    1.399121 S    
C48   H12   1.082283 S    
C40   H5    1.082222 S    
O11   C55   1.415888 S    
C79   H58   1.077929 S    
C73   C74   1.399469 A    
C54   H24   1.108865 S    
C57   H31   1.113354 S    
C59   C60   1.520711 S    
C62   H42   1.108991 S    
C81   C86   1.405445 A    
C74   H54   1.081703 S    
C48   C49   1.394022 A    
C10   C12   1.412528 A    
C44   H9    1.080553 S    
C55   H25   1.115404 S    
C13   H1    1.084264 S    
C78   H57   1.081975 S    
C11   C13   1.394107 A    
C63   C64   1.403064 A    
C36   C69   1.490923 S    
C12   C14   1.394026 A    
O1    Cu1   1.965099 S    
C76   H55   1.083001 S    
C65   C66   1.396343 A    
C9    C19   1.418520 A    
Cu1   N1    2.020475 S    
C52   H19   1.108853 S    
C36   C37   1.424194 A    
C53   H20   1.113038 S    
C25   C31   1.433697 A    
C60   H37   1.110889 S    
C58   H32   1.108993 S    
C9    C39   1.489998 S    
C42   H7    1.082320 S    
C26   C32   1.429022 A    
C80   H59   1.081968 S    
O6    Cu2   1.913031 S    
C20   C23   1.407702 A    
C24   H4    1.077313 S    
O4    C1    1.293648 A    
C53   C54   1.517957 S    
C73   H53   1.082453 S    
C72   C73   1.397374 A    
C28   O14   1.381930 S    
C85   C86   1.399448 A    
C70   C71   1.398996 A    
C30   C34   1.406476 A    
C16   C18   1.409934 A    
C78   C79   1.398403 A    
C35   C38   1.423784 A    
C83   C84   1.396795 A    
C83   H61   1.081231 S    
C86   H64   1.081761 S    
C47   H11   1.079669 S    
C66   H47   1.081713 S    
C51   C52   1.518016 S    
C41   C42   1.395590 A    
C81   C82   1.405747 A    
C64   H45   1.083061 S    
C64   C65   1.397667 A    
C22   O10   1.383876 S    
C18   C20   1.417734 A    
C23   H3    1.077323 S    
C75   C80   1.400986 A    
C51   H16   1.114612 S    
C13   C15   1.393882 A    
O4    Cu2   1.965851 S    
C57   H30   1.115241 S    
O2    Cu2   1.965097 S    
O7    C4    1.294729 A    
C59   H36   1.113087 S    
C62   H43   1.110427 S    
O8    C3    1.293581 A    
C67   H48   1.078154 S    
O5    Cu1   1.913031 S    
C6    C8    1.197656 T    
C33   C34   1.417011 A    
O13   C59   1.415769 S    
C49   H13   1.081652 S    
C27   C29   1.433625 A    
C82   H60   1.083132 S    
C60   H38   1.110441 S    
C54   H22   1.109816 S    
C39   C44   1.403319 A    
C17   C18   1.411788 A    
C15   C17   1.409912 A    
