data_mof_unit_34422.cif
_audit_creation_date              2012-12-10T18:18:28-0500
_audit_creation_method            fapswitch 2.2
_symmetry_space_group_name_H-M    P1
_symmetry_Int_Tables_number       1
_space_group_crystal_system       triclinic
_cell_length_a                    14.046317
_cell_length_b                    15.022853
_cell_length_c                    15.475137
_cell_angle_alpha                 89.635746
_cell_angle_beta                  67.796844
_cell_angle_gamma                 90.28359
_cell_volume                      3023.20389993

loop_
_atom_site_label
_atom_site_type_symbol
_atom_type_description
_atom_site_fract_x
_atom_site_fract_y
_atom_site_fract_z
_atom_type_partial_charge
C1    C     C_R   0.500208 0.673445 0.499885 0.902468
C2    C     C_R   0.500497 0.769275 0.499824 -0.080995
C3    C     C_R   0.410099 0.184651 0.507654 -0.231997
C4    C     C_R   0.589787 0.815326 0.492628 -0.230592
C5    C     C_R   0.408574 0.092061 0.507888 0.061032
C6    C     C_R   0.591289 0.907911 0.492467 0.061091
C7    C     C_R   0.499380 0.046355 0.500314 0.048933
C8    C     C_R   0.500484 0.953616 0.500037 0.048794
C9    C     C_R   0.589267 0.093481 0.492993 0.107353
C10   C     C_R   0.410607 0.906488 0.507331 0.107019
C11   C     C_R   0.319086 0.044009 0.515408 -0.002324
C12   C     C_R   0.499774 0.326550 0.500156 0.902862
C13   C     C_R   0.680762 0.955956 0.484998 -0.002485
C14   C     C_R   0.320978 0.951485 0.514968 -0.254565
C15   C     C_R   0.678880 0.048480 0.485407 -0.255329
C16   C     C_R   0.435956 0.500669 0.676278 0.880386
C17   C     C_R   0.564132 0.502104 0.323714 0.879734
C18   C     C_R   0.176535 0.444709 0.560533 0.057941
C19   C     C_R   0.823191 0.555972 0.440254 0.057982
C20   C     C_R   0.226704 0.555597 0.440937 -0.080215
C21   C     C_R   0.772924 0.445105 0.559864 -0.086059
C22   C     C_R   0.126728 0.557302 0.440251 0.011027
C23   C     C_R   0.393231 0.592484 0.094447 -0.264698
C24   C     C_R   0.872542 0.444143 0.561482 0.016404
C25   C     C_R   0.050207 0.500469 0.501028 0.085695
C26   C     C_R   0.949092 0.500921 0.500689 0.086753
C27   C     C_R   0.074660 0.443374 0.562194 -0.021777
C28   C     C_R   0.924636 0.558094 0.439581 -0.033034
C29   C     C_R   0.101763 0.614742 0.380422 -0.187364
C30   C     C_R   0.897061 0.387728 0.622436 -0.191277
C31   C     C_R   0.002123 0.615353 0.380096 -0.166488
C32   C     C_R   0.996664 0.387190 0.622874 -0.162289
C33   C     C_R   0.397586 0.514612 0.776903 -0.062030
C34   C     C_R   0.629923 0.541407 0.890465 -0.266219
C35   C     C_R   0.604294 0.513934 0.222353 -0.062095
C36   C     C_R   0.270868 0.570667 0.919801 -0.185647
C37   C     C_R   0.743165 0.517830 0.071050 -0.185736
C38   C     C_R   0.297801 0.543995 0.827446 -0.185491
C39   C     C_R   0.709189 0.508173 0.167705 -0.178053
C40   C     C_R   0.468718 0.510221 0.819516 -0.238701
C41   C     C_R   0.534712 0.533930 0.180549 -0.247021
C42   C     C_R   0.446883 0.544419 0.908384 0.089393
C43   C     C_R   0.566833 0.546200 0.084221 0.091024
C44   C     C_R   0.344852 0.571571 0.961348 0.110036
C45   C     C_R   0.319967 0.598963 0.053949 -0.010328
C46   C     C_R   0.672442 0.534006 0.027898 0.110966
C47   C     C_R   0.524015 0.549013 0.946293 0.049570
C48   C     C_R   0.494330 0.562873 0.042717 0.052496
C49   C     C_1   0.219384 0.632860 0.109487 0.144295
C50   C     C_1   0.810552 0.528483 0.868619 0.150276
C51   C     C_1   0.204007 0.388466 0.623267 0.218220
C52   C     C_1   0.795866 0.612156 0.377369 0.212826
C53   C     C_1   0.224357 0.087490 0.523829 0.160750
C54   C     C_1   0.775465 0.912463 0.476646 0.161766
C55   C     C_R   0.703769 0.536087 0.930196 -0.018637
C56   C     C_R   0.588534 0.185434 0.493192 -0.241723
C57   C     C_R   0.411371 0.814537 0.507037 -0.240710
C58   C     C_R   0.499429 0.230706 0.500351 -0.082480
H1    H     H_    0.286247 0.598886 0.394541 0.134833
H2    H     H_    0.241616 0.548135 0.795210 0.164793
H3    H     H_    0.192695 0.592085 0.957577 0.154981
H4    H     H_    0.824451 0.510166 0.030424 0.151743
H5    H     H_    0.370787 0.614479 0.165752 0.143304
H6    H     H_    0.657350 0.542377 0.815095 0.156930
H7    H     H_    0.657718 0.221670 0.487393 0.163625
H8    H     H_    0.342204 0.778299 0.512788 0.163835
H9    H     H_    0.341869 0.221313 0.513261 0.176938
H10   H     H_    0.658016 0.778669 0.487025 0.177079
H11   H     H_    0.252313 0.914385 0.520665 0.156193
H12   H     H_    0.713337 0.401859 0.606250 0.138441
H13   H     H_    0.747542 0.085579 0.479718 0.155669
H14   H     H_    0.159439 0.659408 0.333790 0.151106
H15   H     H_    0.839109 0.343809 0.669898 0.143601
H16   H     H_    0.986234 0.661098 0.333037 0.170796
H17   H     H_    0.011976 0.342418 0.671075 0.155541
H18   H     H_    0.454013 0.535247 0.224000 0.158285
H19   H     H_    0.542086 0.479888 0.781611 0.152122
H20   H     H_    0.764458 0.494226 0.199312 0.162575
N1    N     N_R   0.249980 0.499930 0.499960 -0.120308
N2    N     N_R   0.750020 0.500070 0.500040 -0.119956
N3    N     N_1   0.138815 0.660232 0.153364 -0.221303
N4    N     N_1   0.895934 0.522428 0.819273 -0.204835
N5    N     N_1   0.225296 0.343152 0.673933 -0.216009
N6    N     N_1   0.774717 0.657453 0.326605 -0.212001
N7    N     N_1   0.148579 0.122318 0.530603 -0.201331
N8    N     N_1   0.851215 0.877618 0.469932 -0.198676
O1    O     O_R   0.419720 0.632140 0.499980 -0.629741
O2    O     O_R   0.580280 0.367860 0.500020 -0.628638
O3    O     O_R   0.580270 0.632160 0.499970 -0.616854
O4    O     O_R   0.419730 0.367840 0.500030 -0.616413
O5    O     O_R   0.373870 0.499980 0.632250 -0.610538
O6    O     O_R   0.626130 0.500020 0.367750 -0.611476
O7    O     O_R   0.534420 0.500000 0.632240 -0.622986
O8    O     O_R   0.465580 0.500000 0.367760 -0.622820
Zn1   Zn    Zn3+2 0.392800 0.499980 0.500010 0.956001
Zn2   Zn    Zn3+2 0.607200 0.500020 0.499990 0.954761

loop_
_geom_bond_atom_site_label_1
_geom_bond_atom_site_label_2
_ccdc_geom_bond_type
C1    O1    A    
O2    Zn2   S    
C23   C45   A    
C22   C29   A    
C2    C4    A    
C57   H8    S    
C32   H17   S    
C37   H4    S    
C2    C57   A    
O4    Zn1   S    
C16   O7    A    
C12   O4    A    
C24   C26   A    
C5    C11   A    
C11   C14   A    
C56   H7    S    
O6    Zn2   S    
C1    C2    S    
C49   N3    T    
C52   N6    T    
C19   C52   S    
C18   N1    A    
C22   C25   A    
O1    Zn1   S    
C46   C55   A    
N2    Zn2   S    
C43   C48   A    
C11   C53   S    
C29   H14   S    
C12   C58   S    
C40   C42   A    
C34   C55   A    
C41   C43   A    
O8    Zn1   S    
C17   O6    A    
C42   C44   A    
C18   C51   S    
C33   C40   A    
C12   O2    A    
C39   H20   S    
C7    C8    A    
C10   C57   A    
C4    C6    A    
C10   C14   A    
C54   N8    T    
C30   H15   S    
C31   H16   S    
C6    C8    A    
C25   C26   A    
C4    H10   S    
C35   C39   A    
N1    Zn1   S    
C16   C33   S    
C47   C48   A    
C45   C49   S    
C34   H6    S    
C9    C56   A    
C20   H1    S    
C19   C28   A    
C38   H2    S    
C8    C10   A    
C20   C22   A    
O7    Zn2   S    
C13   C15   A    
C14   H11   S    
C36   C44   A    
C36   H3    S    
C51   N5    T    
C44   C45   A    
C50   N4    T    
C5    C7    A    
C13   C54   S    
C7    C9    A    
C1    O3    A    
C23   C48   A    
C20   N1    A    
C27   C32   A    
C28   C31   A    
C3    H9    S    
C18   C27   A    
C50   C55   S    
C3    C5    A    
C17   O8    A    
C25   C27   A    
C15   H13   S    
C26   C28   A    
C33   C38   A    
C21   H12   S    
O3    Zn2   S    
C36   C38   A    
C9    C15   A    
C29   C31   A    
C41   H18   S    
C30   C32   A    
C21   N2    A    
C23   H5    S    
C56   C58   A    
C42   C47   A    
C19   N2    A    
C35   C41   A    
C43   C46   A    
C24   C30   A    
O5    Zn1   S    
C3    C58   A    
C16   O5    A    
C37   C39   A    
C21   C24   A    
C40   H19   S    
C53   N7    T    
C34   C47   A    
C17   C35   S    
C37   C46   A    
C6    C13   A    
