data_mof_unit_9570.cif
_audit_creation_date              2013-03-05T16:04:42-0500
_audit_creation_method            fapswitch 2.2
_symmetry_space_group_name_H-M    P1
_symmetry_Int_Tables_number       1
_space_group_crystal_system       triclinic
_cell_length_a                    6.974079
_cell_length_b                    23.16681
_cell_length_c                    23.597924
_cell_angle_alpha                 112.626974
_cell_angle_beta                  90.440213
_cell_angle_gamma                 90.336375
_cell_volume                      3518.92213384

loop_
_atom_site_label
_atom_site_type_symbol
_atom_site_description
_atom_site_fract_x
_atom_site_fract_y
_atom_site_fract_z
_atom_type_partial_charge
O1    O     O_R   0.505740 0.453370 0.547760 -0.592992
O2    O     O_R   0.169520 0.427650 0.423350 -0.579906
O3    O     O_R   0.005620 0.546630 0.452240 -0.577295
C1    C     C_R   0.337098 0.409251 0.399394 1.060720
O4    O     O_R   0.175610 0.445960 0.545510 -0.564419
O5    O     O_R   0.011740 0.565080 0.575280 -0.601080
C2    C     C_R   0.344580 0.433061 0.561530 0.999205
O6    O     O_R   0.499610 0.434920 0.424720 -0.591095
O7    O     O_3   0.341310 0.539060 0.509620 -0.291414
V1    V     V_3+5 0.063960 0.492750 0.498220 1.198083
O8    O     O_R   0.682400 0.572350 0.576650 -0.592758
C3    C     C_R   0.851152 0.590355 0.600913 0.983189
O9    O     O_R   0.676320 0.554040 0.454490 -0.598267
C4    C     C_R   0.844594 0.566069 0.437831 1.106785
V2    V     V_3+5 0.564740 0.507250 0.501780 1.178611
O10   O     O_3   0.837250 0.460940 0.490380 -0.269685
C5    C     C_R   0.822898 0.916181 0.150817 -0.325011
C6    C     C_R   0.807772 0.883219 0.189289 -0.096771
C7    C     C_R   0.915683 0.828994 0.178648 0.160538
C8    C     C_R   0.047793 0.811014 0.130060 -0.318128
C9    C     C_R   0.072696 0.846346 0.093421 0.602509
C10   C     C_R   0.953533 0.898041 0.102304 -0.264998
C11   C     C_R   0.060524 0.766965 0.234841 -0.269199
C12   C     C_R   0.049636 0.733458 0.272872 -0.273989
C13   C     C_R   0.872566 0.716960 0.289719 -0.023052
C14   C     C_R   0.704896 0.736094 0.268557 0.534468
C15   C     C_R   0.716201 0.778926 0.238952 0.449988
C16   C     C_R   0.895785 0.791617 0.218225 -0.103349
C17   C     C_R   0.750961 0.697241 0.381525 0.543210
C18   C     C_R   0.735968 0.658552 0.415250 0.342503
C19   C     C_R   0.852774 0.605065 0.400293 -0.531603
C20   C     C_R   0.976489 0.588506 0.349337 0.577912
C21   C     C_R   0.974211 0.624566 0.312557 -0.455743
C22   C     C_R   0.864278 0.678870 0.328371 -0.063833
C23   C     C_R   0.855449 0.644249 0.661063 -0.182038
C24   C     C_R   0.953782 0.855844 0.838350 -0.319602
C25   C     C_R   0.096416 0.798898 0.738057 -0.372642
C26   C     C_R   0.087535 0.852758 0.792500 0.648476
C27   C     C_R   0.825678 0.805405 0.827337 -0.270912
C28   C     C_R   0.833662 0.751435 0.772290 0.022350
C29   C     C_R   0.971346 0.748315 0.727457 0.087131
C30   C     C_R   0.983140 0.694612 0.672656 -0.242398
C31   C     C_R   0.719504 0.647400 0.705811 -0.312402
C32   C     C_R   0.707983 0.700139 0.761132 0.612992
C33   C     C_R   0.341121 0.353915 0.340017 -0.500233
C34   C     C_R   0.465957 0.146171 0.160004 -0.333153
C35   C     C_R   0.608949 0.202909 0.262072 0.689526
C36   C     C_R   0.604911 0.151735 0.204955 -0.503261
C37   C     C_R   0.328080 0.193678 0.171754 0.594098
C38   C     C_R   0.336925 0.247520 0.227488 -0.136970
C39   C     C_R   0.473511 0.251576 0.273852 -0.212213
C40   C     C_R   0.469951 0.304142 0.331098 0.528959
C41   C     C_R   0.208695 0.349401 0.293141 0.538754
C42   C     C_R   0.211861 0.297703 0.237144 -0.264415
H1    H     H_    0.713017 0.115966 0.195038 0.166351
C43   C     C_R   0.304310 0.096404 0.859087 -0.279198
C44   C     C_R   0.289049 0.132515 0.823653 -0.181088
H2    H     H_    0.167291 0.123964 0.792764 0.114441
C45   C     C_R   0.425480 0.179410 0.829069 0.121463
C46   C     C_R   0.575089 0.189879 0.872632 -0.313760
C47   C     C_R   0.589591 0.154080 0.909156 0.613339
C48   C     C_R   0.453589 0.106419 0.901978 -0.277489
C49   C     C_R   0.486831 0.278341 0.809634 -0.395252
C50   C     C_R   0.482547 0.312580 0.771334 0.662961
C51   C     C_R   0.386520 0.287154 0.714198 0.050752
C52   C     C_R   0.305146 0.227131 0.695009 -0.300569
C53   C     C_R   0.321182 0.192005 0.731423 -0.175764
C54   C     C_R   0.410934 0.217074 0.789673 0.106973
C55   C     C_R   0.199688 0.336938 0.654890 -0.383931
H3    H     H_    0.071144 0.323486 0.671830 0.224972
C56   C     C_R   0.186677 0.367724 0.614140 0.677252
C57   C     C_R   0.353880 0.392446 0.597800 -0.418683
C58   C     C_R   0.532254 0.376786 0.615822 -0.383386
C59   C     C_R   0.544614 0.337933 0.649011 0.742425
C60   C     C_R   0.377366 0.321860 0.672809 -0.105672
O11   O     O_R   0.309730 0.065160 0.075230 -0.591364
O12   O     O_R   0.633800 0.053970 0.954410 -0.579678
O13   O     O_R   0.797580 0.934860 0.924760 -0.596116
C61   C     C_R   0.464578 0.066821 0.938650 1.019760
O14   O     O_R   0.639820 0.072410 0.076610 -0.616949
O15   O     O_R   0.803650 0.953440 0.047830 -0.608351
C62   C     C_R   0.471725 0.091309 0.100268 1.027638
O16   O     O_R   0.303670 0.046590 0.952160 -0.594055
O17   O     O_3   0.468000 0.960960 0.990410 -0.270831
V3    V     V_3+5 0.745380 0.007240 0.001780 1.154686
O18   O     O_R   0.132940 0.946010 0.045600 -0.581106
C63   C     C_R   0.964477 0.934424 0.062580 0.975609
O19   O     O_R   0.126920 0.927560 0.923400 -0.552253
C64   C     C_R   0.958258 0.909668 0.898924 1.003353
V4    V     V_3+5 0.244590 0.992720 0.998240 1.194301
O20   O     O_3   0.972110 0.039040 0.009600 -0.289689
H4    H     H_    0.734634 0.957059 0.159890 0.145942
O21   O     O_3   0.626359 0.677597 0.467893 -0.609555
C65   C     C_3   0.431112 0.665054 0.451186 -0.078735
H5    H     H_    0.344622 0.681145 0.493625 0.134833
H6    H     H_    0.403955 0.614061 0.427037 0.139967
H7    H     H_    0.379615 0.690450 0.422551 0.143671
O22   O     O_3   0.082763 0.533853 0.334687 -0.580441
C66   C     C_3   0.252152 0.533744 0.302196 -0.125714
H8    H     H_    0.327999 0.579781 0.320034 0.084817
H9    H     H_    0.219721 0.518719 0.252397 0.132715
H10   H     H_    0.351798 0.499043 0.307674 0.158023
H11   H     H_    0.056095 0.610316 0.270762 0.169843
H12   H     H_    0.087538 0.692803 0.638208 0.138123
H13   H     H_    0.621554 0.608516 0.697924 0.159971
H14   H     H_    0.204893 0.796207 0.704500 0.150290
O23   O     O_3   0.581560 0.699385 0.805674 -0.618639
C67   C     C_3   0.401447 0.719370 0.793291 -0.217749
H15   H     H_    0.410137 0.768123 0.795417 0.148785
H16   H     H_    0.299477 0.719059 0.829021 0.191658
H17   H     H_    0.342805 0.687305 0.748027 0.143106
O24   O     O_3   0.220130 0.900514 0.802941 -0.611666
C68   C     C_3   0.175219 0.932809 0.764688 -0.304990
H18   H     H_    0.037095 0.958001 0.778464 0.129041
H19   H     H_    0.170090 0.901526 0.715214 0.141798
H20   H     H_    0.290154 0.967792 0.769892 0.178995
H21   H     H_    0.723817 0.807694 0.862560 0.192773
O25   O     O_3   0.588601 0.306283 0.379161 -0.581712
C69   C     C_3   0.488041 0.280426 0.415659 -0.145940
H22   H     H_    0.589912 0.273305 0.448545 0.133469
H23   H     H_    0.423304 0.233882 0.387904 0.107248
H24   H     H_    0.375715 0.312888 0.442654 0.070876
H25   H     H_    0.712969 0.901346 0.227808 0.146884
O26   O     O_3   0.085285 0.398299 0.300544 -0.601994
C70   C     C_3   0.895833 0.379055 0.305391 -0.039509
H26   H     H_    0.801469 0.420467 0.318601 0.140932
H27   H     H_    0.884042 0.359707 0.341736 0.167507
H28   H     H_    0.841873 0.344392 0.260745 0.089176
O27   O     O_3   0.758044 0.209731 0.303644 -0.585377
C71   C     C_3   0.775715 0.155860 0.317494 -0.265591
H29   H     H_    0.865120 0.120328 0.282756 0.130775
H30   H     H_    0.634098 0.135460 0.321848 0.113275
H31   H     H_    0.850894 0.169333 0.362410 0.161425
H32   H     H_    0.115407 0.297520 0.200926 0.182574
O28   O     O_3   0.197052 0.190143 0.126115 -0.637840
C72   C     C_3   0.019536 0.168814 0.139353 -0.130461
H33   H     H_    0.032214 0.122377 0.142689 0.129416
H34   H     H_    0.917379 0.163806 0.101473 0.193418
H35   H     H_    0.957098 0.202681 0.182342 0.122970
H36   H     H_    0.197505 0.060509 0.853184 0.153907
H37   H     H_    0.681780 0.225895 0.878876 0.132717
O29   O     O_3   0.722602 0.170339 0.956666 -0.630800
C73   C     C_3   0.906187 0.152646 0.931963 -0.140045
H38   H     H_    0.908650 0.102388 0.900763 0.115188
H39   H     H_    0.008531 0.159063 0.970195 0.189578
H40   H     H_    0.956483 0.182593 0.907771 0.122413
H41   H     H_    0.546600 0.300387 0.855384 0.147697
H42   H     H_    0.130954 0.768948 0.119815 0.153767
O30   O     O_3   0.556338 0.372978 0.790837 -0.621509
C74   C     C_3   0.750746 0.374322 0.808604 -0.149555
H43   H     H_    0.832909 0.333889 0.776664 0.143332
H44   H     H_    0.762816 0.376584 0.856361 0.121199
H45   H     H_    0.818657 0.417398 0.807761 0.181033
H46   H     H_    0.234638 0.206537 0.650562 0.141893
H47   H     H_    0.264940 0.144720 0.713063 0.120043
O31   O     O_3   0.008943 0.373372 0.591029 -0.599597
C75   C     C_3   0.985695 0.323884 0.533121 -0.160572
H48   H     H_    0.004766 0.277382 0.535890 0.092351
H49   H     H_    0.085979 0.328678 0.498864 0.110920
H50   H     H_    0.838655 0.325543 0.515936 0.161305
H51   H     H_    0.662394 0.393225 0.602539 0.240814
O32   O     O_3   0.721102 0.315618 0.657353 -0.609905
C76   C     C_3   0.734852 0.252625 0.615838 -0.349101
H52   H     H_    0.697527 0.246690 0.567895 0.126912
H53   H     H_    0.643602 0.221313 0.630080 0.156921
H54   H     H_    0.884487 0.236811 0.615800 0.168337
O33   O     O_3   0.200747 0.827040 0.045353 -0.631052
C77   C     C_3   0.389111 0.839190 0.069577 -0.119731
H55   H     H_    0.409476 0.889248 0.100379 0.120268
H56   H     H_    0.490455 0.829121 0.031007 0.170378
H57   H     H_    0.427248 0.808411 0.094238 0.145087
H58   H     H_    0.199203 0.774744 0.219307 0.227991
H59   H     H_    0.179437 0.719725 0.289054 0.230902
O34   O     O_3   0.529413 0.711947 0.275458 -0.605041
C78   C     C_3   0.499765 0.655072 0.224626 -0.301923
H60   H     H_    0.617770 0.621365 0.219808 0.144533
H61   H     H_    0.482048 0.663516 0.181541 0.166150
H62   H     H_    0.366278 0.632578 0.231547 0.157633
O35   O     O_3   0.551084 0.805159 0.227110 -0.626857
C79   C     C_3   0.481457 0.848783 0.283442 -0.315433
H63   H     H_    0.595920 0.881149 0.311624 0.116986
H64   H     H_    0.412611 0.824773 0.310776 0.208285
H65   H     H_    0.370824 0.877816 0.273342 0.163940
O36   O     O_3   0.650725 0.752683 0.400300 -0.589692
C80   C     C_3   0.769830 0.800863 0.440023 -0.253595
H66   H     H_    0.901105 0.806980 0.416289 0.126879
H67   H     H_    0.809476 0.792223 0.481854 0.159455
H68   H     H_    0.689729 0.845391 0.455072 0.160940

loop_
_geom_bond_atom_site_label_1
_geom_bond_atom_site_label_2
_geom_bond_distance
_ccdc_geom_bond_type
C24   C64   1.492123 S    
C36   H1    1.081984 S    
C29   C30   1.411316 A    
O21   C65   1.411726 S    
C17   O36   1.382800 S    
C73   H40   1.111415 S    
C58   C59   1.404728 A    
C71   H30   1.114808 S    
C7    C8    1.410767 A    
C4    C19   1.489988 S    
C1    O6    1.305196 A    
V3    O20   1.718813 S    
O28   C72   1.411359 S    
C78   H61   1.112949 S    
C41   C42   1.401449 A    
O36   C80   1.409466 S    
C34   C37   1.412264 A    
C14   C15   1.418523 A    
C38   C42   1.405479 A    
C35   O27   1.389841 S    
O31   C75   1.413137 S    
C76   H53   1.108857 S    
C25   C26   1.407102 A    
C15   O35   1.381094 S    
C68   H18   1.113395 S    
C18   O21   1.385311 S    
C55   H3    1.076415 S    
O5    C3    1.307139 A    
C18   C19   1.415387 A    
C46   H37   1.080722 S    
O22   C66   1.412747 S    
C80   H67   1.113288 S    
C14   O34   1.379259 S    
O4    V1    1.988463 S    
V2    O10   2.155233 S    
C42   H32   1.082260 S    
C67   H15   1.112386 S    
C53   H47   1.081059 S    
C6    C7    1.406697 A    
C31   H13   1.083777 S    
C55   C56   1.403125 A    
C23   C30   1.402722 A    
O34   C78   1.412298 S    
C58   H51   1.076675 S    
O1    C2    1.306612 A    
O25   C69   1.412023 S    
O8    V2    1.995567 S    
C77   H57   1.112186 S    
C11   H58   1.075389 S    
C76   H52   1.114450 S    
C20   O22   1.396461 S    
C74   H45   1.109248 S    
C70   H28   1.111670 S    
C11   C12   1.396486 A    
C8    H42   1.082611 S    
O1    V2    1.986863 S    
C17   C18   1.413042 A    
C23   C31   1.405757 A    
O7    V1    2.170326 S    
C79   H65   1.109577 S    
C6    H25   1.076318 S    
C68   H20   1.108455 S    
O12   C61   1.304725 A    
C52   C53   1.396684 A    
C37   O28   1.384836 S    
O12   V3    1.988661 S    
C45   C46   1.411714 A    
C75   H49   1.109891 S    
C34   C62   1.492316 S    
O9    C4    1.302677 A    
C75   H48   1.112766 S    
C65   H5    1.109257 S    
C5    H4    1.083734 S    
O17   V4    1.707746 S    
C72   H35   1.110255 S    
C12   H59   1.076130 S    
C49   H41   1.080033 S    
O24   C68   1.410947 S    
C79   H64   1.110712 S    
C38   C39   1.420223 A    
C78   H62   1.107710 S    
C44   H2    1.081213 S    
C1    C33   1.492113 S    
C69   H23   1.114361 S    
O13   C64   1.308592 A    
C34   C36   1.399445 A    
C59   C60   1.407269 A    
C49   C50   1.413670 A    
C39   C40   1.429534 A    
C35   C36   1.411544 A    
C48   C61   1.485593 S    
C76   H54   1.107931 S    
C21   C22   1.401520 A    
C12   C13   1.395714 A    
O14   C62   1.306020 A    
O18   V4    1.990066 S    
O11   C62   1.303357 A    
C2    C57   1.497219 S    
O4    C2    1.305783 A    
O18   C63   1.303541 A    
C72   H33   1.112442 S    
C80   H68   1.109163 S    
C35   C39   1.419875 A    
C33   C40   1.417566 A    
C13   C14   1.407370 A    
C27   H21   1.083490 S    
C17   C22   1.409748 A    
C53   C54   1.409537 A    
C30   H12   1.084392 S    
C46   C47   1.410876 A    
O2    C1    1.302966 A    
C31   C32   1.406744 A    
O14   V3    1.980205 S    
C45   C54   1.503228 S    
C19   C20   1.415054 A    
C43   H36   1.080620 S    
O23   C67   1.408145 S    
C8    C9    1.411703 A    
C5    C6    1.397282 A    
C69   H22   1.107075 S    
C11   C16   1.404619 A    
O17   V3    2.170256 S    
C3    C23   1.486534 S    
C65   H6    1.110803 S    
C7    C16   1.504710 S    
O15   C63   1.300407 A    
O3    C4    1.302860 A    
O13   V3    1.979871 S    
C72   H34   1.108847 S    
C28   C29   1.415668 A    
C66   H9    1.110664 S    
O19   V4    1.995750 S    
C37   C38   1.423022 A    
O6    V2    1.988634 S    
O9    V2    1.990005 S    
C70   H26   1.109567 S    
C43   C48   1.400854 A    
C71   H31   1.109377 S    
C43   C44   1.395825 A    
C52   H46   1.083424 S    
C26   O24   1.383677 S    
O2    V1    1.980085 S    
O33   C77   1.411386 S    
C79   H63   1.114830 S    
C59   O32   1.379506 S    
O27   C71   1.412296 S    
C32   O23   1.382277 S    
C73   H39   1.109586 S    
O16   V4    1.988653 S    
C49   C54   1.410518 A    
C77   H55   1.114128 S    
C21   H11   1.080829 S    
C24   C27   1.407719 A    
C57   C58   1.405666 A    
C41   O26   1.384204 S    
C10   C63   1.484356 S    
O5    V1    1.979889 S    
O8    C3    1.298845 A    
C67   H17   1.113180 S    
C75   H50   1.106156 S    
O32   C76   1.414802 S    
C13   C22   1.494480 S    
C80   H66   1.113274 S    
C5    C10   1.402699 A    
C65   H7    1.111932 S    
C66   H8    1.113094 S    
C50   O30   1.388125 S    
C20   C21   1.417493 A    
C24   C26   1.415154 A    
C71   H29   1.110413 S    
O7    V2    1.708319 S    
C25   H14   1.083991 S    
C78   H60   1.113860 S    
V1    O10   1.718743 S    
O30   C74   1.412700 S    
C50   C51   1.408440 A    
C61   O16   1.301877 A    
V4    O20   2.155210 S    
O3    V1    1.985502 S    
C56   O31   1.377471 S    
C77   H56   1.109431 S    
C69   H24   1.109507 S    
C67   H16   1.109292 S    
C55   C60   1.395339 A    
C74   H44   1.110382 S    
C9    O33   1.383499 S    
C25   C29   1.398469 A    
C47   C48   1.410254 A    
C44   C45   1.407513 A    
C33   C41   1.407716 A    
O35   C79   1.416401 S    
C27   C28   1.416323 A    
C47   O29   1.383572 S    
C28   C32   1.411822 A    
C66   H10   1.109535 S    
C56   C57   1.416140 A    
O19   C64   1.299469 A    
C51   C52   1.401067 A    
C15   C16   1.417746 A    
C70   H27   1.113435 S    
O29   C73   1.407433 S    
O26   C70   1.411443 S    
C9    C10   1.410677 A    
O15   V3    1.985148 S    
C51   C60   1.486065 S    
C73   H38   1.113026 S    
O11   V4    1.988927 S    
C74   H43   1.115148 S    
C68   H19   1.112443 S    
C40   O25   1.383949 S    
