data_mof_unit_27118.cif
_audit_creation_date              2012-12-10T18:52:13-0500
_audit_creation_method            fapswitch 2.2
_symmetry_space_group_name_H-M    P1
_symmetry_Int_Tables_number       1
_space_group_crystal_system       triclinic
_cell_length_a                    15.716191
_cell_length_b                    10.704769
_cell_length_c                    9.853201
_cell_angle_alpha                 89.98876
_cell_angle_beta                  88.242425
_cell_angle_gamma                 90.164206
_cell_volume                      1656.89800533

loop_
_atom_site_label
_atom_site_type_symbol
_atom_type_description
_atom_site_fract_x
_atom_site_fract_y
_atom_site_fract_z
_atom_type_partial_charge
C1    C     C_R   0.499921 0.259929 0.499967 0.872497
C2    C     C_R   0.500038 0.740071 0.500036 0.872709
C3    C     C_R   0.480631 0.935952 0.381046 -0.173423
C4    C     C_R   0.519201 0.064047 0.618990 -0.173721
C5    C     C_R   0.500002 0.872524 0.500014 -0.013801
C6    C     C_R   0.499868 0.127477 0.500008 -0.013831
C7    C     C_R   0.551367 0.579977 0.069358 -0.063320
C8    C     C_R   0.448596 0.420065 0.930644 -0.064194
C9    C     C_R   0.551332 0.579971 0.925551 -0.056449
C10   C     C_R   0.448629 0.420075 0.074452 -0.057500
C11   C     C_R   0.337854 0.499863 0.502102 0.904682
C12   C     C_R   0.662161 0.500119 0.497885 0.902631
C13   C     C_3   0.966308 0.416822 0.590067 0.034909
C14   C     C_3   0.033864 0.579511 0.407630 0.074023
C15   C     C_3   0.029196 0.380814 0.471912 0.001799
C16   C     C_3   0.971134 0.614834 0.524931 0.039373
C17   C     C_1   0.248910 0.499054 0.507705 -0.143189
C18   C     C_1   0.751128 0.500000 0.492098 -0.147513
C19   C     C_3   0.020561 0.532167 0.622824 0.441024
C20   C     C_3   0.979313 0.464459 0.373287 0.439053
C21   C     C_3   0.082751 0.497151 0.507170 -0.104440
C22   C     C_3   0.917349 0.499426 0.490372 -0.112420
C23   C     C_1   0.173590 0.498198 0.510787 0.120090
C24   C     C_1   0.826470 0.499774 0.488250 0.116267
C25   C     C_R   0.480543 0.063894 0.381052 -0.174076
C26   C     C_R   0.519288 0.936110 0.618984 -0.174203
H1    H     H_    0.464853 0.112635 0.288776 0.156527
H2    H     H_    0.534976 0.887374 0.711264 0.156317
H3    H     H_    0.465011 0.887086 0.288758 0.163052
H4    H     H_    0.534821 0.112907 0.711281 0.162852
H5    H     H_    0.592461 0.643939 0.121731 0.133354
H6    H     H_    0.407468 0.356145 0.878280 0.132643
H7    H     H_    0.592393 0.643970 0.869113 0.129672
H8    H     H_    0.407525 0.356125 0.130887 0.130330
N1    N     N_R   0.499980 0.499970 0.857200 -0.082397
N2    N     N_R   0.500020 0.500030 0.142800 -0.082566
O1    O     O_R   0.499990 0.316750 0.614620 -0.627838
O2    O     O_R   0.500010 0.683250 0.385380 -0.627973
O3    O     O_R   0.500000 0.316780 0.385290 -0.627930
O4    O     O_R   0.500000 0.683220 0.614710 -0.627567
O5    O     O_R   0.376780 0.499970 0.614640 -0.607056
O6    O     O_R   0.623220 0.500030 0.385360 -0.607951
O7    O     O_R   0.376780 0.500000 0.385310 -0.610836
O8    O     O_R   0.623220 0.500000 0.614690 -0.610717
Zn1   Zn    Zn3+2 0.500000 0.499980 0.653120 0.968978
Zn2   Zn    Zn3+2 0.500000 0.500020 0.346880 0.968408
I1    I     I_    0.086456 0.198602 0.457634 -0.297198
I2    I     I_    0.920617 0.798705 0.557502 -0.281711
I3    I     I_    0.907456 0.288261 0.731432 -0.346651
I4    I     I_    0.096091 0.711354 0.274514 -0.342318
O9    O     O_3   0.947554 0.445976 0.241886 -0.636636
C27   C     C_3   0.990728 0.349902 0.170488 0.104448
H9    H     H_    0.954468 0.331219 0.077629 0.185116
H10   H     H_    0.988897 0.261028 0.228077 0.180519
C28   C     C_3   0.081834 0.387901 0.126169 -0.388137
H11   H     H_    0.080743 0.479383 0.073348 0.254613
H12   H     H_    0.122131 0.397637 0.216093 0.237724
C29   C     C_3   0.122177 0.291207 0.030651 -0.840739
H13   H     H_    0.124180 0.198590 0.081311 0.275879
H14   H     H_    0.188261 0.320229 0.002341 0.261872
H15   H     H_    0.085329 0.283441 0.936579 0.287512
O10   O     O_3   0.048304 0.568881 0.751643 -0.610673
C30   C     C_3   0.977765 0.591388 0.840918 0.099207
H16   H     H_    0.971370 0.511822 0.912624 0.177435
H17   H     H_    0.915714 0.600835 0.789791 0.149288
C31   C     C_3   0.993773 0.710929 0.920692 -0.312821
H18   H     H_    0.054143 0.701694 0.975199 0.251469
H19   H     H_    0.000762 0.790917 0.849381 0.258250
C32   C     C_3   0.920840 0.737683 0.022316 -0.849406
H20   H     H_    0.860327 0.750069 0.968566 0.256960
H21   H     H_    0.934565 0.824782 0.078883 0.287981
H22   H     H_    0.913442 0.659712 0.096118 0.301736

loop_
_geom_bond_atom_site_label_1
_geom_bond_atom_site_label_2
_ccdc_geom_bond_type
C32   H22   S    
C31   H19   S    
C28   H11   S    
C30   H17   S    
C11   O7    A    
O10   C30   S    
C18   C24   T    
C2    O4    A    
C5    C26   A    
C25   H1    S    
C2    C5    S    
C7    N2    A    
C2    O2    A    
C26   H2    S    
C27   C28   S    
C1    O1    A    
C29   H14   S    
C16   C22   S    
C16   I2    S    
C29   H15   S    
C13   C15   S    
C31   H18   S    
C30   C31   S    
C32   H21   S    
C12   O8    A    
C14   I4    S    
C27   H9    S    
C9    H7    S    
N2    Zn2   S    
C3    H3    S    
C17   C23   T    
C8    H6    S    
C16   C19   S    
C13   I3    S    
C14   C21   S    
C4    C6    A    
C19   C21   S    
C20   C22   S    
C13   C22   S    
C11   O5    A    
C20   O9    S    
C22   C24   S    
C32   H20   S    
C28   H12   S    
C21   C23   S    
O4    Zn1   S    
O7    Zn2   S    
C14   C16   S    
C4    C26   A    
O3    Zn2   S    
C31   C32   S    
O2    Zn2   S    
C1    O3    A    
C19   O10   S    
C9    N1    A    
O9    C27   S    
C6    C25   A    
C14   C20   S    
C15   C21   S    
C3    C25   A    
C7    H5    S    
O8    Zn1   S    
C10   H8    S    
O6    Zn2   S    
C28   C29   S    
C12   C18   S    
C7    C9    A    
O5    Zn1   S    
C15   I1    S    
C11   C17   S    
C13   C19   S    
C12   O6    A    
C3    C5    A    
C29   H13   S    
C30   H16   S    
O1    Zn1   S    
C8    C10   A    
C4    H4    S    
C1    C6    S    
C27   H10   S    
C15   C20   S    
C10   N2    A    
C8    N1    A    
N1    Zn1   S    
