data_mof_unit_28878.cif
_audit_creation_date              2012-12-11T14:50:39-0500
_audit_creation_method            fapswitch 2.2
_symmetry_space_group_name_H-M    P1
_symmetry_Int_Tables_number       1
_space_group_crystal_system       triclinic
_cell_length_a                    10.847125
_cell_length_b                    11.005717
_cell_length_c                    18.736864
_cell_angle_alpha                 89.890323
_cell_angle_beta                  90.15674
_cell_angle_gamma                 60.575423
_cell_volume                      1948.25121896

loop_
_atom_site_label
_atom_site_type_symbol
_atom_type_description
_atom_site_fract_x
_atom_site_fract_y
_atom_site_fract_z
_atom_type_partial_charge
C1    C     C_R   0.243369 0.642629 0.611150 0.558498
C2    C     C_3   0.690312 0.532928 0.804878 -0.214824
C3    C     C_3   0.689587 0.671566 0.815819 0.046999
C4    C     C_3   0.664933 0.638861 0.680244 0.062016
C5    C     C_3   0.784300 0.674096 0.691168 -0.239459
C6    C     C_3   0.695582 0.504655 0.724533 -0.014157
C7    C     C_R   0.814626 0.087392 0.697009 -0.119396
C8    C     C_R   0.832490 0.059393 0.770872 -0.124902
C9    C     C_R   0.719906 0.068278 0.811446 0.014389
C10   C     C_R   0.595484 0.093404 0.775812 -0.129766
C11   C     C_R   0.580511 0.116918 0.703706 -0.113875
C12   C     C_R   0.649663 0.614859 0.604089 0.553914
C13   C     C_R   0.681723 0.133130 0.665516 0.027388
C14   C     C_R   0.235883 0.534502 0.727835 0.248168
C15   C     C_R   0.215591 0.547573 0.801870 -0.126953
C16   C     C_R   0.179870 0.674561 0.834944 -0.016617
C17   C     C_R   0.172931 0.784728 0.794588 -0.174102
C18   C     C_R   0.176643 0.777917 0.721406 -0.208029
C19   C     C_R   0.208785 0.653240 0.686919 0.029606
C20   C     C_R   0.703310 0.523837 0.269512 -0.144032
C21   C     C_R   0.709337 0.536962 0.196412 -0.134943
C22   C     C_R   0.643669 0.669545 0.165566 0.036208
C23   C     C_R   0.632710 0.218736 0.599981 0.558830
C24   C     C_R   0.556849 0.786100 0.207648 -0.130269
C25   C     C_R   0.556236 0.772989 0.281743 -0.131964
C26   C     C_R   0.637785 0.641478 0.313140 0.030055
C27   C     C_R   0.564821 0.122725 0.295953 -0.180773
C28   C     C_R   0.572077 0.098400 0.224235 -0.159107
C29   C     C_R   0.681379 0.095972 0.185125 -0.000481
C30   C     C_R   0.782692 0.122502 0.217729 -0.141346
C31   C     C_R   0.778316 0.147180 0.291099 0.244541
C32   C     C_R   0.662263 0.153804 0.328956 0.053465
C33   C     C_R   0.092134 0.809573 0.305327 -0.120186
C34   C     C_R   0.217650 0.650622 0.402559 0.548244
C35   C     C_R   0.059314 0.826304 0.234162 -0.131173
C36   C     C_R   0.053815 0.721639 0.195274 0.025389
C37   C     C_R   0.075660 0.599285 0.229902 -0.127883
C38   C     C_R   0.118309 0.577984 0.301360 -0.132939
C39   C     C_R   0.133352 0.681559 0.337912 0.025575
C40   C     C_R   0.728291 0.039769 0.888812 0.561298
C41   C     C_R   0.718518 0.686461 0.890426 0.537714
C42   C     C_R   0.118964 0.706969 0.906151 0.551177
C43   C     C_R   0.698201 0.051233 0.111932 0.552498
C44   C     C_R   0.692819 0.689198 0.096339 0.535907
C45   C     C_R   0.637576 0.618255 0.389760 0.543516
C46   C     C_R   0.028422 0.744673 0.118916 0.546243
C47   C     C_R   0.620602 0.224144 0.396838 0.561798
C48   C     C_3   0.543617 0.787866 0.789072 -0.251021
C49   C     C_3   0.525863 0.763760 0.709808 -0.253874
C50   C     C_3   0.808702 0.677798 0.771498 -0.207907
Cr1   Cr    Cr6+3 0.392930 0.397900 0.502230 1.005092
Cr2   Cr    Cr6+3 0.398240 0.708600 0.501260 1.005252
Cr3   Cr    Cr6+3 0.708800 0.393470 0.496460 1.055062
Cr4   Cr    Cr6+3 0.937620 0.938540 0.007640 1.010578
Cr5   Cr    Cr6+3 0.625150 0.937450 0.994520 1.002576
Cr6   Cr    Cr6+3 0.937990 0.625080 0.001190 1.011447
H1    H     H_    0.535729 0.890711 0.795284 0.133549
H2    H     H_    0.913611 0.588226 0.785922 0.151459
H3    H     H_    0.883695 0.597119 0.664677 0.146852
H4    H     H_    0.900780 0.081380 0.665562 0.153109
H5    H     H_    0.930235 0.037440 0.796465 0.141191
H6    H     H_    0.505032 0.100585 0.803707 0.132548
H7    H     H_    0.482754 0.134779 0.679486 0.150043
H8    H     H_    0.228159 0.459272 0.833151 0.132873
H9    H     H_    0.154962 0.880918 0.819151 0.146333
H10   H     H_    0.456489 0.788980 0.820840 0.126577
H11   H     H_    0.161790 0.869176 0.692130 0.147173
H12   H     H_    0.748420 0.421818 0.292784 0.174102
H13   H     H_    0.770700 0.444545 0.164526 0.126300
H14   H     H_    0.496625 0.887596 0.183484 0.120181
H15   H     H_    0.494659 0.864568 0.314140 0.115533
H16   H     H_    0.476031 0.126889 0.324479 0.136378
H17   H     H_    0.489883 0.085166 0.199102 0.129938
H18   H     H_    0.864587 0.122758 0.185422 0.111934
H19   H     H_    0.100338 0.891528 0.332828 0.166090
H20   H     H_    0.437853 0.740452 0.704147 0.147959
H21   H     H_    0.047696 0.917826 0.207840 0.123010
H22   H     H_    0.068833 0.517585 0.201075 0.135638
H23   H     H_    0.148060 0.478359 0.326210 0.124658
H24   H     H_    0.496827 0.860970 0.679100 0.123957
H25   H     H_    0.813029 0.774420 0.784073 0.111684
H26   H     H_    0.753862 0.777613 0.666963 0.112622
H27   H     H_    0.779728 0.446279 0.834062 0.178044
H28   H     H_    0.592705 0.539218 0.827820 0.110153
H29   H     H_    0.615685 0.472431 0.711172 0.147312
O1    O     O_R   0.507430 0.255570 0.581420 -0.517206
O2    O     O_R   0.524460 0.695920 0.424060 -0.501367
O3    O     O_R   0.736530 0.504260 0.414810 -0.523281
O4    O     O_R   0.691460 0.277160 0.422180 -0.449536
O5    O     O_3   0.499990 0.499990 0.499980 -0.259511
O6    O     O_R   0.089490 0.825610 0.930610 -0.525588
O7    O     O_R   0.818370 0.054540 0.929880 -0.484561
O8    O     O_R   0.605870 0.077310 0.915530 -0.513868
O9    O     O_R   0.646440 0.806700 0.917570 -0.524652
O10   O     O_R   0.837200 0.593290 0.915250 -0.518786
O11   O     O_R   0.065330 0.635370 0.931590 -0.498274
O12   O     O_R   0.280190 0.527390 0.578910 -0.459810
O13   O     O_R   0.068300 0.828790 0.091860 -0.522758
O14   O     O_R   0.798730 0.057480 0.079370 -0.515792
O15   O     O_R   0.584680 0.080480 0.076790 -0.502102
O16   O     O_R   0.626790 0.809640 0.067050 -0.520884
O17   O     O_R   0.816010 0.596460 0.076500 -0.524776
O18   O     O_R   0.045680 0.638310 0.081070 -0.492349
O19   O     O_3   0.833590 0.833690 0.001120 -0.305615
O20   O     O_R   0.260310 0.739740 0.584580 -0.542289
O21   O     O_R   0.532250 0.695150 0.573830 -0.519282
O22   O     O_R   0.744930 0.503430 0.576380 -0.485942
O23   O     O_R   0.699250 0.276390 0.571950 -0.482625
O24   O     O_R   0.499020 0.256400 0.419850 -0.550518
O25   O     O_R   0.272400 0.528160 0.429140 -0.510837
O26   O     O_R   0.251910 0.740570 0.423020 -0.521139
I1    I     I_    0.899373 0.328142 0.706172 -0.547260
O27   O     O_3   0.299101 0.403782 0.696762 -0.539237
C51   C     C_3   0.207066 0.347358 0.697122 -0.008511
H30   H     H_    0.100068 0.420070 0.717933 0.139733
H31   H     H_    0.253137 0.253515 0.732040 0.136168
C52   C     C_3   0.191861 0.304803 0.621303 -0.330731
H32   H     H_    0.295303 0.246139 0.594893 0.174863
H33   H     H_    0.146620 0.234032 0.621968 0.125073
H34   H     H_    0.122465 0.398742 0.588981 0.156516
O28   O     O_3   0.881099 0.164051 0.328895 -0.551322
C53   C     C_3   0.982418 0.178559 0.287295 -0.026014
H35   H     H_    0.934361 0.253510 0.242545 0.106562
H36   H     H_    0.062420 0.077652 0.265408 0.116655
C54   C     C_3   0.061193 0.230159 0.334704 -0.361521
H37   H     H_    0.112947 0.156265 0.379733 0.154305
H38   H     H_    0.143760 0.237813 0.303179 0.082165
H39   H     H_    0.986878 0.334755 0.356325 0.175237

loop_
_geom_bond_atom_site_label_1
_geom_bond_atom_site_label_2
_ccdc_geom_bond_type
Cr1   O12   S    
Cr6   O10   S    
Cr2   O5    S    
C35   C36   A    
C40   O8    A    
Cr5   O8    S    
C51   H30   S    
C24   H14   S    
C7    C8    A    
C10   H6    S    
C29   C30   A    
C6    H29   S    
C42   O11   A    
Cr4   O19   S    
C28   C29   A    
C45   O2    A    
C43   O14   A    
C42   O6    A    
C11   H7    S    
C52   H33   S    
Cr1   O5    S    
C30   C31   A    
C30   H18   S    
C38   H23   S    
C15   C16   A    
C3    C48   S    
C13   C23   S    
C18   C19   A    
C41   O10   A    
C26   C45   S    
C2    H28   S    
C33   H19   S    
C22   C44   S    
C41   O9    A    
C8    C9    A    
C23   O1    A    
Cr5   O15   S    
C54   H39   S    
C15   H8    S    
C36   C46   S    
C25   H15   S    
C4    C12   S    
C9    C10   A    
C8    H5    S    
C46   O13   A    
Cr2   O21   S    
Cr1   O24   S    
C21   C22   A    
C29   C43   S    
C34   O26   A    
C47   O4    A    
C2    H27   S    
C2    C6    S    
Cr5   O9    S    
C28   H17   S    
Cr1   O1    S    
C3    C50   S    
C1    C19   S    
C5    H3    S    
C34   C39   S    
C50   H2    S    
C48   H1    S    
C45   O3    A    
C43   O15   A    
C31   O28   S    
C4    C6    S    
C52   H34   S    
C1    O12   A    
C44   O17   A    
C16   C17   A    
Cr2   O26   S    
C18   H11   S    
C47   O24   A    
Cr5   O19   S    
C35   H21   S    
C9    C40   S    
C40   O7    A    
C21   H13   S    
Cr4   O7    S    
C37   C38   A    
Cr3   O22   S    
C31   C32   A    
C17   C18   A    
C49   H20   S    
C33   C39   A    
C24   C25   A    
Cr6   O19   S    
O28   C53   S    
C48   C49   S    
Cr2   O20   S    
Cr1   O25   S    
Cr3   O4    S    
C54   H37   S    
C34   O25   A    
C32   C47   S    
C22   C24   A    
Cr4   O14   S    
C53   H36   S    
C16   C42   S    
C7    H4    S    
Cr3   O5    S    
O27   C51   S    
C46   O18   A    
Cr6   O11   S    
C3    C41   S    
C27   C32   A    
C6    I1    S    
C14   C19   A    
C20   H12   S    
Cr2   O2    S    
Cr6   O18   S    
C4    C5    S    
C12   O22   A    
C51   H31   S    
C44   O16   A    
C14   O27   S    
C37   H22   S    
Cr5   O16   S    
C17   H9    S    
C49   H24   S    
C4    C49   S    
C53   C54   S    
C2    C3    S    
C25   C26   A    
Cr6   O17   S    
Cr4   O6    S    
C52   H32   S    
C12   O21   A    
C5    H26   S    
C11   C13   A    
Cr3   O23   S    
C38   C39   A    
C20   C26   A    
C23   O23   A    
C33   C35   A    
Cr3   O3    S    
C5    C50   S    
C51   C52   S    
C10   C11   A    
C7    C13   A    
C20   C21   A    
C36   C37   A    
C27   C28   A    
C54   H38   S    
C14   C15   A    
Cr4   O13   S    
C48   H10   S    
C53   H35   S    
C27   H16   S    
C50   H25   S    
C1    O20   A    
