data_mof_unit_22791.cif
_audit_creation_date              2013-03-05T16:15:16-0500
_audit_creation_method            fapswitch 2.2
_symmetry_space_group_name_H-M    P1
_symmetry_Int_Tables_number       1
_space_group_crystal_system       triclinic
_cell_length_a                    27.761926
_cell_length_b                    10.664209
_cell_length_c                    9.406527
_cell_angle_alpha                 88.044972
_cell_angle_beta                  90.504053
_cell_angle_gamma                 89.864306
_cell_volume                      2783.14812613

loop_
_atom_site_label
_atom_site_type_symbol
_atom_site_description
_atom_site_fract_x
_atom_site_fract_y
_atom_site_fract_z
_atom_type_partial_charge
O1    O     O_R   0.500020 0.316850 0.620870 -0.557098
O2    O     O_R   0.499980 0.683150 0.379130 -0.556319
O3    O     O_R   0.500000 0.316860 0.379090 -0.559597
O4    O     O_R   0.500000 0.683140 0.620910 -0.559696
C1    C     C_R   0.501407 0.259697 0.502670 0.903560
C2    C     C_R   0.498674 0.740330 0.497328 0.900186
O5    O     O_R   0.430270 0.500020 0.620880 -0.586200
O6    O     O_R   0.569730 0.499980 0.379120 -0.584775
O7    O     O_R   0.430250 0.500030 0.379090 -0.576089
O8    O     O_R   0.569750 0.499970 0.620910 -0.576933
C3    C     C_R   0.407549 0.502795 0.499372 0.840911
C4    C     C_R   0.592410 0.497915 0.500610 0.842563
Cu1   Cu    Cu3+1 0.500010 0.499990 0.643150 1.003356
Cu2   Cu    Cu3+1 0.499990 0.500010 0.356850 1.004889
C5    C     C_R   0.177136 0.396334 0.479737 0.595288
C6    C     C_R   0.821240 0.606983 0.566366 0.602325
O9    O     O_2   0.201987 0.296515 0.435077 -0.488163
O10   O     O_2   0.795149 0.685824 0.644214 -0.491530
N1    N     N_R   0.201722 0.502709 0.512352 -0.449120
N2    N     N_R   0.797743 0.515864 0.494471 -0.447131
C7    C     C_R   0.178207 0.609596 0.548190 0.646092
C8    C     C_R   0.822042 0.428500 0.420348 0.625149
C9    C     C_R   0.276630 0.576234 0.398620 0.421235
C10   C     C_R   0.723677 0.428301 0.598609 0.421829
C11   C     C_R   0.327797 0.578914 0.395079 -0.149319
C12   C     C_R   0.672551 0.421703 0.600912 -0.150592
C13   C     C_R   0.330207 0.436960 0.604313 -0.217445
C14   C     C_R   0.669077 0.574512 0.401590 -0.217070
C15   C     C_R   0.280224 0.434607 0.606863 -0.159694
C16   C     C_R   0.718990 0.581812 0.401512 -0.166296
C17   C     C_R   0.253408 0.503370 0.504860 0.300995
C18   C     C_R   0.746190 0.509857 0.499539 0.312532
C19   C     C_R   0.101504 0.506468 0.512524 -0.056814
C20   C     C_R   0.897864 0.521704 0.490885 -0.049639
C21   C     C_R   0.126218 0.393244 0.486377 -0.074896
C22   C     C_R   0.872178 0.615665 0.562181 -0.083092
C23   C     C_R   0.098995 0.283130 0.464200 -0.030604
C24   C     C_R   0.898558 0.709839 0.631910 -0.038897
C25   C     C_R   0.127785 0.614536 0.545290 -0.070923
C26   C     C_R   0.872460 0.428371 0.419046 -0.066437
C27   C     C_R   0.354476 0.507319 0.498862 -0.135355
C28   C     C_R   0.645406 0.496513 0.501274 -0.132618
H1    H     H_    0.350094 0.381970 0.684194 0.171279
H2    H     H_    0.648735 0.632121 0.325142 0.168101
H3    H     H_    0.262110 0.379633 0.689142 0.180943
H4    H     H_    0.736749 0.643250 0.324481 0.174608
C29   C     C_R   0.974102 0.418364 0.432801 0.016095
C30   C     C_R   0.025837 0.622959 0.542198 0.015191
C31   C     C_R   0.974773 0.618518 0.554464 0.067742
C32   C     C_R   0.024451 0.407269 0.458548 0.063847
C33   C     C_R   0.948976 0.519880 0.492173 0.000955
C34   C     C_R   0.050518 0.512182 0.504918 -0.001931
C35   C     C_R   0.948096 0.332788 0.348988 0.393798
C36   C     C_R   0.053093 0.733691 0.563434 0.405780
C37   C     C_R   0.897651 0.337773 0.345316 -0.218062
C38   C     C_R   0.103537 0.726922 0.568535 -0.199225
O11   O     O_2   0.797317 0.340965 0.349594 -0.505462
O12   O     O_2   0.203701 0.711428 0.584706 -0.510741
C39   C     C_R   0.048973 0.292264 0.448173 -0.147213
C40   C     C_R   0.948875 0.707154 0.631019 -0.157201
H5    H     H_    0.878105 0.270297 0.283608 0.195474
H6    H     H_    0.123902 0.811523 0.586501 0.183229
H7    H     H_    0.029039 0.205970 0.438348 0.211935
H8    H     H_    0.967388 0.774190 0.695205 0.211356
C41   C     C_3   0.512899 0.029184 0.632977 -0.074072
C42   C     C_3   0.487302 0.970932 0.367017 -0.076773
C43   C     C_3   0.544075 0.950995 0.532631 -0.347823
C44   C     C_3   0.456120 0.049064 0.467397 -0.348917
H9    H     H_    0.580275 0.910526 0.556309 0.180092
H10   H     H_    0.419921 0.089534 0.443716 0.181415
C45   C     C_3   0.498570 0.876715 0.491347 -0.126232
C46   C     C_3   0.501620 0.123346 0.508646 -0.125311
C47   C     C_3   0.468235 0.954650 0.590577 0.411494
C48   C     C_3   0.531964 0.045439 0.409472 0.412636
C49   C     C_3   0.520124 0.600351 0.047145 -0.000909
C50   C     C_3   0.479894 0.399616 0.952843 -0.002737
C51   C     C_3   0.476656 0.595735 0.944874 -0.008472
C52   C     C_3   0.523346 0.404242 0.055133 -0.007074
H11   H     H_    0.456761 0.675359 0.892708 0.166239
H12   H     H_    0.543211 0.324563 0.107293 0.167311
H13   H     H_    0.537529 0.684183 0.091673 0.159294
H14   H     H_    0.462558 0.315694 0.908295 0.158986
N3    N     N_3   0.500040 0.499970 0.858290 -0.173283
N4    N     N_3   0.499960 0.500030 0.141710 -0.173071
C53   C     C_3   0.543495 0.504515 0.950672 -0.048546
C54   C     C_3   0.456517 0.495424 0.049314 -0.050373
H15   H     H_    0.580163 0.508733 0.904842 0.165825
H16   H     H_    0.419884 0.490543 0.095176 0.166850
C55   C     C_2   0.527748 0.047299 0.784476 0.919763
O13   O     O_2   0.531079 0.955871 0.865990 -0.588745
O14   O     O_R   0.538902 0.166369 0.831480 -0.729565
H17   H     H_    0.550011 0.164116 0.934411 0.326371
C56   C     C_2   0.472593 0.953446 0.215286 0.923208
O15   O     O_2   0.468707 0.045385 0.134726 -0.588185
O16   O     O_R   0.462337 0.834349 0.166845 -0.727221
H18   H     H_    0.451217 0.837040 0.063919 0.328383
O17   O     O_3   0.434391 0.903668 0.685292 -0.697422
H19   H     H_    0.420759 0.976226 0.734506 0.324635
O18   O     O_3   0.565812 0.096459 0.314797 -0.696191
H20   H     H_    0.579494 0.023907 0.265687 0.323588
C57   C     C_2   0.120346 0.155375 0.467712 0.909948
O19   O     O_2   0.108106 0.080155 0.379064 -0.559634
O20   O     O_R   0.152676 0.119111 0.576419 -0.716579
H21   H     H_    0.164369 0.029556 0.568074 0.351235
C58   C     C_2   0.875832 0.817174 0.701563 0.944528
O21   O     O_2   0.885460 0.837620 0.825737 -0.570755
O22   O     O_R   0.845392 0.898564 0.622993 -0.700215
H22   H     H_    0.832720 0.969396 0.681522 0.353147
C59   C     C_2   0.647840 0.335738 0.703614 0.846576
O23   O     O_2   0.618601 0.259908 0.660762 -0.554314
O24   O     O_R   0.658022 0.341641 0.849049 -0.748791
H23   H     H_    0.638622 0.279016 0.908263 0.340501
C60   C     C_2   0.352994 0.658902 0.287488 0.847153
O25   O     O_2   0.382434 0.736133 0.325787 -0.551362
O26   O     O_R   0.342871 0.646334 0.142821 -0.755643
H24   H     H_    0.362521 0.705718 0.080138 0.337994
O27   O     O_3   0.753143 0.355784 0.687899 -0.687808
H25   H     H_    0.734751 0.284727 0.729934 0.351952
O28   O     O_3   0.247807 0.644112 0.302954 -0.679695
H26   H     H_    0.266620 0.712060 0.256134 0.356322
O29   O     O_3   0.972307 0.251921 0.262459 -0.711715
H27   H     H_    0.948815 0.200218 0.210413 0.345193
O30   O     O_3   0.030542 0.849396 0.564997 -0.724723
H28   H     H_    0.054748 0.916078 0.579653 0.342447

loop_
_geom_bond_atom_site_label_1
_geom_bond_atom_site_label_2
_geom_bond_distance
_ccdc_geom_bond_type
C42   C44   1.549133 S    
C36   O30   1.382902 S    
C57   O19   1.223194 D    
C13   C15   1.388314 A    
O16   H18   1.013061 S    
O24   H23   1.013867 S    
Cu2   N4    2.023707 S    
N1    C17   1.437279 S    
C8    O11   1.350151 S    
O17   H19   0.991156 S    
O30   H28   0.991748 S    
C19   C34   1.417709 A    
C30   C36   1.422862 A    
C58   O22   1.398398 S    
C20   C33   1.419003 A    
C56   O15   1.222510 D    
C31   C40   1.407579 A    
C20   C26   1.409089 A    
C32   C39   1.408004 A    
C21   C23   1.418370 A    
N4    C54   1.482262 S    
C1    C46   1.453237 S    
C59   O24   1.398053 S    
C9    O28   1.383552 S    
C54   H16   1.108865 S    
C49   N4    1.481851 S    
C51   N3    1.480089 S    
O26   H24   1.013975 S    
C42   C48   1.531587 S    
C41   C47   1.531658 S    
C14   C28   1.401139 A    
O4    Cu1   1.957212 S    
C4    C28   1.471273 S    
C5    N1    1.367710 A    
C49   C53   1.536057 S    
C42   C45   1.545019 S    
C41   C43   1.549187 S    
C32   C34   1.413252 A    
O22   H22   1.013883 S    
C55   O14   1.393381 S    
C43   C45   1.546394 S    
C6    N2    1.366449 A    
C29   C35   1.420514 A    
C35   C37   1.401413 A    
C57   O20   1.398567 S    
Cu1   Cu2   2.693076 S    
O2    C2    1.286926 A    
C50   N3    1.481832 S    
C5    C21   1.415905 A    
C29   C32   1.420497 A    
C51   H11   1.109699 S    
C2    C45   1.453600 S    
C36   C38   1.402451 A    
C53   H15   1.109409 S    
C16   C18   1.395001 A    
C46   C48   1.527608 S    
C50   H14   1.110080 S    
O14   H17   1.013056 S    
C45   C47   1.527962 S    
C49   H13   1.110030 S    
C29   C33   1.419500 A    
C31   C33   1.414551 A    
C44   C47   1.543175 S    
C14   H2    1.083765 S    
C52   N4    1.480246 S    
C15   H3    1.083001 S    
C44   C46   1.546199 S    
C43   H9    1.110516 S    
C9    C17   1.406702 A    
O5    C3    1.300026 A    
O7    Cu2   1.949215 S    
C10   C18   1.404645 A    
C11   C60   1.482432 S    
C49   C51   1.538594 S    
C13   C27   1.401508 A    
O18   H20   0.991157 S    
C7    C25   1.400663 A    
C30   C34   1.420111 A    
O6    C4    1.299409 A    
C26   C37   1.398064 A    
C8    C26   1.399871 A    
C10   O27   1.383214 S    
C52   H12   1.109716 S    
C43   C48   1.543216 S    
C19   C25   1.407042 A    
O7    C3    1.301124 A    
C12   C59   1.482767 S    
O29   H27   0.991726 S    
C23   C39   1.398358 A    
O3    Cu2   1.957211 S    
O8    C4    1.300345 A    
C42   C56   1.498949 S    
C24   C40   1.397227 A    
C52   C53   1.537111 S    
O4    C2    1.294387 A    
C30   C31   1.424113 A    
N3    C53   1.482424 S    
N2    C8    1.363379 A    
C51   C54   1.537152 S    
C47   O17   1.398660 S    
C38   H6    1.083189 S    
O1    Cu1   1.971353 S    
C11   C27   1.420669 A    
C25   C38   1.397867 A    
C50   C54   1.535909 S    
O1    C1    1.286874 A    
C12   C28   1.420046 A    
C60   O25   1.222439 D    
N2    C18   1.433928 S    
C5    O9    1.348243 S    
Cu1   N3    2.023707 S    
O6    Cu2   1.945582 S    
N1    C7    1.365899 A    
C16   H4    1.082963 S    
C6    O10   1.347672 S    
C10   C12   1.421570 A    
C50   C52   1.538358 S    
O3    C1    1.294291 A    
O8    Cu1   1.949215 S    
O28   H26   0.987881 S    
C48   O18   1.398667 S    
C41   C46   1.544718 S    
C58   O21   1.222895 D    
C41   C55   1.498965 S    
C39   H7    1.081201 S    
C40   H8    1.079567 S    
C24   C58   1.480730 S    
C22   C24   1.419558 A    
C7    O12   1.350198 S    
C15   C17   1.396213 A    
C35   O29   1.383023 S    
O27   H25   0.988027 S    
C6    C22   1.418210 A    
C23   C57   1.483702 S    
C56   O16   1.393101 S    
C37   H5    1.083510 S    
C14   C16   1.388067 A    
C19   C21   1.417208 A    
C3    C27   1.474036 S    
C20   C22   1.418862 A    
C9    C11   1.421510 A    
O2    Cu2   1.971351 S    
C13   H1    1.083701 S    
O5    Cu1   1.945582 S    
C44   H10   1.110518 S    
O20   H21   1.013763 S    
C55   O13   1.222475 D    
C59   O23   1.222660 D    
C60   O26   1.398092 S    
