data_mof_unit_54785.cif
_audit_creation_date              2012-12-10T20:44:47-0500
_audit_creation_method            fapswitch 2.2
_symmetry_space_group_name_H-M    P1
_symmetry_Int_Tables_number       1
_space_group_crystal_system       triclinic
_cell_length_a                    9.861263
_cell_length_b                    10.623808
_cell_length_c                    16.876147
_cell_angle_alpha                 89.462044
_cell_angle_beta                  94.947558
_cell_angle_gamma                 89.909148
_cell_volume                      1761.34518253

loop_
_atom_site_label
_atom_site_type_symbol
_atom_type_description
_atom_site_fract_x
_atom_site_fract_y
_atom_site_fract_z
_atom_type_partial_charge
C1    C     C_R   0.500059 0.260476 0.499600 0.887448
C2    C     C_R   0.651756 0.555967 0.784281 -0.158829
C3    C     C_R   0.580520 0.498117 0.138078 0.551603
C4    C     C_R   0.587347 0.488439 0.220569 -0.299216
C5    C     C_R   0.452612 0.520466 0.095707 0.226711
C6    C     C_R   0.470237 0.504703 0.260587 -0.098534
C7    C     C_R   0.343819 0.525197 0.217967 -0.189904
C8    C     C_R   0.335212 0.531503 0.135656 -0.270211
C9    C     C_R   0.540390 0.064053 0.435448 0.041360
C10   C     C_R   0.498392 0.128837 0.500080 -0.085897
C11   C     C_R   0.438122 0.066267 0.561127 -0.247282
C12   C     C_R   0.518304 0.503379 0.653492 0.881670
C13   C     C_R   0.436128 0.935896 0.562330 -0.037852
C14   C     C_R   0.497127 0.871325 0.502129 -0.139725
C15   C     C_R   0.540628 0.935369 0.436933 0.042888
C16   C     C_3   0.671321 0.926127 0.398544 -0.256067
C17   C     C_3   0.670598 0.070604 0.396150 -0.260540
C18   C     C_R   0.078920 0.430433 0.554977 0.033505
C19   C     C_R   0.065324 0.579022 0.450918 0.574578
C20   C     C_R   0.920138 0.576463 0.449918 -0.239801
C21   C     C_R   0.936808 0.433271 0.556334 0.158200
C22   C     C_3   0.928901 0.295651 0.571144 -0.547160
C23   C     C_R   0.499864 0.739425 0.501239 0.894501
C24   C     C_3   0.082454 0.290334 0.566367 0.360583
C25   C     C_R   0.481781 0.501409 0.346753 0.906451
C26   C     C_R   0.527789 0.526521 0.739257 -0.153751
C27   C     C_R   0.405244 0.529508 0.775749 -0.207280
C28   C     C_R   0.404684 0.556690 0.855243 -0.249374
C29   C     C_R   0.527542 0.579252 0.901032 0.211867
C30   C     C_R   0.650180 0.585221 0.865000 0.499507
H1    H     H_    0.683954 0.466327 0.253194 0.181556
H2    H     H_    0.755748 0.885525 0.438826 0.144385
H3    H     H_    0.755320 0.112950 0.434238 0.146846
H4    H     H_    0.858189 0.633672 0.407524 0.159474
H5    H     H_    0.898071 0.274017 0.631586 0.168878
H6    H     H_    0.868802 0.246975 0.522204 0.223478
H7    H     H_    0.143041 0.261963 0.622499 0.066927
H8    H     H_    0.252020 0.536921 0.248080 0.202310
H9    H     H_    0.308335 0.555904 0.881607 0.182176
H10   H     H_    0.237247 0.546944 0.102756 0.167962
H11   H     H_    0.308247 0.510082 0.743044 0.187076
H12   H     H_    0.397742 0.118797 0.608734 0.148839
N1    N     N_2   0.533367 0.584332 0.984521 -0.115368
N2    N     N_2   0.438337 0.526638 0.012389 -0.176025
N3    N     N_R   0.142860 0.499130 0.500540 -0.126319
N4    N     N_R   0.857210 0.499170 0.500530 -0.111825
O1    O     O_R   0.614690 0.316790 0.499990 -0.633497
O2    O     O_R   0.385350 0.316760 0.500000 -0.566934
O3    O     O_R   0.627460 0.498860 0.616130 -0.609719
O4    O     O_R   0.398120 0.498820 0.616130 -0.632905
O5    O     O_R   0.614650 0.683240 0.500000 -0.628729
O6    O     O_R   0.385310 0.683210 0.500010 -0.589794
O7    O     O_R   0.601880 0.501180 0.383870 -0.627463
O8    O     O_R   0.372540 0.501140 0.383870 -0.572866
Zn1   Zn    Zn3+2 0.653130 0.500020 0.499990 0.954891
Zn2   Zn    Zn3+2 0.346870 0.499980 0.500010 1.025957
C31   C     C_1   0.380338 0.871277 0.627907 0.142458
N5    N     N_1   0.335608 0.819521 0.680352 -0.205956
C32   C     C_1   0.652101 0.861543 0.321422 0.221390
N6    N     N_1   0.637118 0.810608 0.260991 -0.223097
C33   C     C_1   0.649799 0.130468 0.316844 0.242897
N7    N     N_1   0.633482 0.177452 0.254604 -0.187932
O9    O     O_3   0.129224 0.652650 0.397373 -0.584115
C34   C     C_3   0.102104 0.780878 0.410457 -0.337212
H13   H     H_    0.118527 0.805656 0.474613 0.154820
H14   H     H_    0.997369 0.806772 0.386188 0.148978
H15   H     H_    0.173868 0.838448 0.378297 0.201667
O10   O     O_3   0.694035 0.472349 0.097810 -0.579970
C35   C     C_3   0.795029 0.564151 0.116172 -0.227015
H16   H     H_    0.753334 0.661559 0.109133 0.157173
H17   H     H_    0.874704 0.554422 0.074070 0.216860
H18   H     H_    0.845327 0.549588 0.177035 0.145297
O11   O     O_3   0.119304 0.229393 0.497217 -0.550373
C36   C     C_3   0.107651 0.097754 0.506475 -0.288992
H19   H     H_    0.999737 0.068045 0.496165 0.147426
H20   H     H_    0.150922 0.063264 0.565822 0.150536
H21   H     H_    0.164940 0.051647 0.460978 0.192014
O12   O     O_3   0.771214 0.605676 0.910863 -0.592747
C37   C     C_3   0.789752 0.736584 0.919201 -0.331163
H22   H     H_    0.708326 0.779557 0.951935 0.169842
H23   H     H_    0.794545 0.783922 0.860356 0.163896
H24   H     H_    0.888183 0.753259 0.954459 0.194045
C38   C     C_1   0.781470 0.557701 0.750229 0.282197
N8    N     N_1   0.885702 0.559535 0.723549 -0.221684

loop_
_geom_bond_atom_site_label_1
_geom_bond_atom_site_label_2
_ccdc_geom_bond_type
C18   C21   A    
O11   C36   S    
C19   C20   A    
C12   O3    A    
C31   N5    T    
C7    C8    A    
C22   H5    S    
C26   C27   A    
C36   H20   S    
C18   C24   S    
C28   C29   A    
C25   O7    A    
C24   O11   S    
C6    C25   S    
C13   C31   S    
C15   C16   S    
C11   H12   S    
C35   H17   S    
C17   C33   S    
O10   C35   S    
C3    O10   S    
N3    Zn2   S    
C19   O9    S    
C16   C17   S    
C36   H21   S    
N4    Zn1   S    
C9    C10   A    
C20   H4    S    
C32   N6    T    
C13   C14   A    
C29   N1    S    
C2    C38   S    
C35   H16   S    
C17   H3    S    
O7    Zn1   S    
O8    Zn2   S    
C36   H19   S    
C34   H15   S    
C25   O8    A    
C4    C6    A    
C37   H23   S    
O12   C37   S    
C1    O1    A    
C28   H9    S    
O3    Zn1   S    
O4    Zn2   S    
O9    C34   S    
C12   C26   S    
C16   C32   S    
C34   H14   S    
C14   C23   S    
C35   H18   S    
N1    N2    D    
C29   C30   A    
C5    C8    A    
C27   H11   S    
C23   O5    A    
C38   N8    T    
C24   H7    S    
C2    C26   A    
C9    C17   S    
C5    N2    S    
C22   C24   S    
C3    C4    A    
C18   N3    A    
O1    Zn1   S    
C21   N4    A    
O2    Zn2   S    
C1    C10   S    
C3    C5    A    
C37   H24   S    
C12   O4    A    
C19   N3    A    
C1    O2    A    
C6    C7    A    
C16   H2    S    
C22   H6    S    
C2    C30   A    
C34   H13   S    
C9    C15   A    
C11   C13   A    
C23   O6    A    
C7    H8    S    
O5    Zn1   S    
C33   N7    T    
C4    H1    S    
C10   C11   A    
C37   H22   S    
C30   O12   S    
C27   C28   A    
C14   C15   A    
C8    H10   S    
C21   C22   S    
C20   N4    A    
O6    Zn2   S    
