data_mof_unit_65871.cif
_audit_creation_date              2012-12-10T17:32:45-0500
_audit_creation_method            fapswitch 2.2
_symmetry_space_group_name_H-M    P1
_symmetry_Int_Tables_number       1
_space_group_crystal_system       triclinic
_cell_length_a                    30.254205
_cell_length_b                    30.254204
_cell_length_c                    23.511285
_cell_angle_alpha                 89.999939
_cell_angle_beta                  89.999956
_cell_angle_gamma                 90.0
_cell_volume                      21520.2762644

loop_
_atom_site_label
_atom_site_type_symbol
_atom_type_description
_atom_site_fract_x
_atom_site_fract_y
_atom_site_fract_z
_atom_type_partial_charge
C1    C     C_R   0.586443 0.000000 0.500000 0.846027
C2    C     C_R   0.000000 0.586443 0.500000 0.846027
C3    C     C_R   0.413557 0.000000 0.500000 0.846027
C4    C     C_R   0.000000 0.413557 0.500000 0.846028
C5    C     C_R   0.086443 0.500000 0.000000 0.846027
C6    C     C_R   0.500000 0.086443 0.000000 0.846027
C7    C     C_R   0.913557 0.500000 1.000000 0.846027
C8    C     C_R   0.500000 0.913557 1.000000 0.846028
C9    C     C_R   0.725892 0.069177 0.554882 -0.130419
C10   C     C_R   0.930823 0.725892 0.554883 -0.130419
C11   C     C_R   0.274108 0.930823 0.554882 -0.130419
C12   C     C_R   0.069177 0.274108 0.554883 -0.130419
C13   C     C_R   0.274108 0.069177 0.445117 -0.130419
C14   C     C_R   0.069177 0.725892 0.445117 -0.130419
C15   C     C_R   0.725892 0.930823 0.445117 -0.130418
C16   C     C_R   0.930823 0.274108 0.445117 -0.130419
C17   C     C_R   0.225892 0.569177 0.054883 -0.130419
C18   C     C_R   0.430823 0.225892 0.054883 -0.130418
C19   C     C_R   0.774108 0.430822 0.054883 -0.130419
C20   C     C_R   0.569177 0.774108 0.054882 -0.130419
C21   C     C_R   0.774108 0.569177 0.945117 -0.130419
C22   C     C_R   0.569177 0.225892 0.945117 -0.130419
C23   C     C_R   0.225892 0.430823 0.945117 -0.130419
C24   C     C_R   0.430823 0.774108 0.945117 -0.130418
C25   C     C_R   0.702787 0.033013 0.530736 -0.025625
C26   C     C_R   0.966986 0.702787 0.530737 -0.025625
C27   C     C_R   0.297213 0.966986 0.530736 -0.025625
C28   C     C_R   0.033013 0.297213 0.530736 -0.025625
C29   C     C_R   0.297213 0.033013 0.469263 -0.025625
C30   C     C_R   0.033014 0.702787 0.469264 -0.025626
C31   C     C_R   0.702787 0.966986 0.469263 -0.025626
C32   C     C_R   0.966986 0.297213 0.469263 -0.025626
C33   C     C_R   0.202787 0.533013 0.030737 -0.025625
C34   C     C_R   0.466987 0.202787 0.030737 -0.025625
C35   C     C_R   0.797213 0.466986 0.030736 -0.025626
C36   C     C_R   0.533014 0.797213 0.030736 -0.025626
C37   C     C_R   0.797213 0.533013 0.969263 -0.025625
C38   C     C_R   0.533014 0.202787 0.969263 -0.025626
C39   C     C_R   0.202787 0.466987 0.969263 -0.025626
C40   C     C_R   0.466987 0.797213 0.969263 -0.025625
C41   C     C_R   0.726102 0.000000 0.500000 -0.093064
C42   C     C_R   0.000000 0.726102 0.500000 -0.093063
C43   C     C_R   0.273898 1.000000 0.500000 -0.093064
C44   C     C_R   1.000000 0.273898 0.500000 -0.093063
C45   C     C_R   0.226102 0.500000 0.000000 -0.093063
C46   C     C_R   0.500000 0.226102 0.000000 -0.093063
C47   C     C_R   0.773898 0.500000 1.000000 -0.093063
C48   C     C_R   0.500000 0.773898 1.000000 -0.093063
C49   C     C_R   0.656956 0.028050 0.537443 0.417039
C50   C     C_R   0.971950 0.656956 0.537443 0.417041
C51   C     C_R   0.343044 0.971950 0.537443 0.417040
C52   C     C_R   0.028050 0.343044 0.537443 0.417040
C53   C     C_R   0.343044 0.028050 0.462556 0.417041
C54   C     C_R   0.028050 0.656956 0.462557 0.417041
C55   C     C_R   0.656956 0.971950 0.462556 0.417041
C56   C     C_R   0.971950 0.343044 0.462556 0.417041
C57   C     C_R   0.156956 0.528050 0.037443 0.417040
C58   C     C_R   0.471950 0.156956 0.037443 0.417040
C59   C     C_R   0.843044 0.471950 0.037443 0.417040
C60   C     C_R   0.528050 0.843044 0.037443 0.417041
C61   C     C_R   0.843044 0.528050 0.962556 0.417041
C62   C     C_R   0.528050 0.156956 0.962557 0.417040
C63   C     C_R   0.156956 0.471950 0.962557 0.417041
C64   C     C_R   0.471950 0.843044 0.962557 0.417040
C65   C     C_R   0.634127 0.000000 0.500000 -0.297320
C66   C     C_R   0.000000 0.634127 0.500000 -0.297320
C67   C     C_R   0.365873 0.000000 0.500000 -0.297320
C68   C     C_R   0.000000 0.365873 0.500000 -0.297320
C69   C     C_R   0.134127 0.500000 0.000000 -0.297320
C70   C     C_R   0.500000 0.134127 0.000000 -0.297319
C71   C     C_R   0.865873 0.500000 1.000000 -0.297320
C72   C     C_R   0.500000 0.865873 1.000000 -0.297320
C73   C     C_R   0.000000 0.913028 0.500000 1.005365
C74   C     C_R   0.086972 0.000000 0.500000 1.005364
C75   C     C_R   0.000000 0.086972 0.500000 1.005364
C76   C     C_R   0.913028 0.000000 0.500000 1.005364
C77   C     C_R   0.500000 0.413028 0.000000 1.005365
C78   C     C_R   0.586972 0.500000 1.000000 1.005365
C79   C     C_R   0.500000 0.586972 1.000000 1.005364
C80   C     C_R   0.413028 0.500000 0.000000 1.005364
C81   C     C_R   0.500000 1.000000 0.609239 0.857226
C82   C     C_R   1.000000 0.500000 0.609239 0.857226
C83   C     C_R   0.500000 0.000000 0.390761 0.857227
C84   C     C_R   0.000000 0.500000 0.390761 0.857227
C85   C     C_R   0.000000 0.500000 0.109239 0.857226
C86   C     C_R   0.500000 0.000000 0.109239 0.857226
C87   C     C_R   0.000000 0.500000 0.890761 0.857227
C88   C     C_R   0.500000 0.000000 0.890761 0.857227
C89   C     C_1   0.500000 1.000000 0.669507 -0.137507
C90   C     C_1   1.000000 0.500000 0.669507 -0.137507
C91   C     C_1   0.500000 0.000000 0.330493 -0.137507
C92   C     C_1   0.000000 0.500000 0.330493 -0.137507
C93   C     C_1   0.000000 0.500000 0.169507 -0.137507
C94   C     C_1   0.500000 0.000000 0.169507 -0.137507
C95   C     C_1   1.000000 0.500000 0.830493 -0.137507
C96   C     C_1   0.500000 1.000000 0.830493 -0.137507
C97   C     C_1   0.500000 1.000000 0.720335 0.046186
C98   C     C_1   1.000000 0.500000 0.720335 0.046186
C99   C     C_1   0.500000 0.000000 0.279665 0.046186
C100  C     C_1   0.000000 0.500000 0.279665 0.046186
C101  C     C_1   0.000000 0.500000 0.220335 0.046186
C102  C     C_1   0.500000 0.000000 0.220335 0.046186
C103  C     C_1   1.000000 0.500000 0.779665 0.046186
C104  C     C_1   0.500000 1.000000 0.779665 0.046186
C105  C     C_R   0.842098 0.969771 0.465198 -0.073080
C106  C     C_R   0.030229 0.842098 0.465198 -0.073080
C107  C     C_R   0.157902 0.030229 0.465197 -0.073081
C108  C     C_R   0.969771 0.157902 0.465197 -0.073080
C109  C     C_R   0.157902 0.969771 0.534802 -0.073080
C110  C     C_R   0.969771 0.842098 0.534802 -0.073081
C111  C     C_R   0.842098 0.030229 0.534802 -0.073080
C112  C     C_R   0.030229 0.157902 0.534802 -0.073080
C113  C     C_R   0.342098 0.469771 0.965198 -0.073080
C114  C     C_R   0.530229 0.342098 0.965198 -0.073080
C115  C     C_R   0.657902 0.530229 0.965198 -0.073081
C116  C     C_R   0.469771 0.657902 0.965198 -0.073081
C117  C     C_R   0.657902 0.469771 0.034802 -0.073081
C118  C     C_R   0.469771 0.342098 0.034802 -0.073081
C119  C     C_R   0.342098 0.530229 0.034802 -0.073081
C120  C     C_R   0.530229 0.657902 0.034802 -0.073080
C121  C     C_R   0.864972 1.000000 0.500000 -0.282559
C122  C     C_R   0.000000 0.864972 0.500000 -0.282559
C123  C     C_R   0.135027 1.000000 0.500000 -0.282559
C124  C     C_R   0.000000 0.135027 0.500000 -0.282559
C125  C     C_R   0.364972 0.500000 0.000000 -0.282559
C126  C     C_R   0.500000 0.364972 0.000000 -0.282559
C127  C     C_R   0.635027 0.500000 1.000000 -0.282559
C128  C     C_R   0.500000 0.635028 1.000000 -0.282559
C129  C     C_R   0.795738 0.033361 0.530124 0.031442
C130  C     C_R   0.966639 0.795738 0.530124 0.031441
C131  C     C_R   0.204262 0.966639 0.530124 0.031442
C132  C     C_R   0.033361 0.204262 0.530124 0.031442
C133  C     C_R   0.204262 0.033361 0.469876 0.031442
C134  C     C_R   0.033361 0.795738 0.469876 0.031442
C135  C     C_R   0.795738 0.966639 0.469876 0.031442
C136  C     C_R   0.966639 0.204262 0.469876 0.031442
C137  C     C_R   0.295738 0.533361 0.030124 0.031441
C138  C     C_R   0.466639 0.295738 0.030124 0.031442
C139  C     C_R   0.704261 0.466639 0.030124 0.031442
C140  C     C_R   0.533361 0.704261 0.030124 0.031442
C141  C     C_R   0.704261 0.533361 0.969876 0.031442
C142  C     C_R   0.533361 0.295738 0.969876 0.031442
C143  C     C_R   0.295738 0.466639 0.969876 0.031442
C144  C     C_R   0.466639 0.704261 0.969876 0.031442
C145  C     C_R   0.772534 1.000000 0.500000 -0.032861
C146  C     C_R   0.000000 0.772534 0.500000 -0.032861
C147  C     C_R   0.227466 1.000000 0.500000 -0.032861
C148  C     C_R   0.000000 0.227466 0.500000 -0.032861
C149  C     C_R   0.272534 0.500000 0.000000 -0.032861
C150  C     C_R   0.500000 0.272534 0.000000 -0.032861
C151  C     C_R   0.727466 0.500000 1.000000 -0.032861
C152  C     C_R   0.500000 0.727466 1.000000 -0.032861
C153  C     C_R   0.772397 0.070051 0.552494 0.371285
C154  C     C_R   0.929949 0.772397 0.552495 0.371284
C155  C     C_R   0.227603 0.929949 0.552494 0.371284
C156  C     C_R   0.070051 0.227603 0.552494 0.371283
C157  C     C_R   0.227603 0.070051 0.447505 0.371284
C158  C     C_R   0.070051 0.772397 0.447506 0.371284
C159  C     C_R   0.772397 0.929949 0.447506 0.371283
C160  C     C_R   0.929949 0.227603 0.447505 0.371284
C161  C     C_R   0.272397 0.570051 0.052495 0.371284
C162  C     C_R   0.429949 0.272397 0.052495 0.371283
C163  C     C_R   0.727603 0.429949 0.052494 0.371285
C164  C     C_R   0.570051 0.727603 0.052494 0.371283
C165  C     C_R   0.727603 0.570051 0.947505 0.371285
C166  C     C_R   0.570051 0.272397 0.947506 0.371283
C167  C     C_R   0.272397 0.429949 0.947505 0.371283
C168  C     C_R   0.429949 0.727603 0.947505 0.371284
O1    O     O_R   0.566060 0.037360 0.500050 -0.585057
O2    O     O_R   0.962640 0.566060 0.500050 -0.585056
O3    O     O_R   0.433940 0.962640 0.500050 -0.585056
O4    O     O_R   0.037360 0.433940 0.500050 -0.585057
O5    O     O_R   0.433940 0.037360 0.499950 -0.585057
O6    O     O_R   0.037360 0.566060 0.499950 -0.585057
O7    O     O_R   0.566060 0.962640 0.499950 -0.585056
O8    O     O_R   0.962640 0.433940 0.499950 -0.585056
O9    O     O_R   0.066060 0.537360 0.000050 -0.585057
O10   O     O_R   0.462640 0.066060 0.000050 -0.585056
O11   O     O_R   0.933940 0.462640 0.000050 -0.585056
O12   O     O_R   0.537360 0.933940 0.000050 -0.585057
O13   O     O_R   0.933940 0.537360 0.999950 -0.585057
O14   O     O_R   0.537360 0.066060 0.999950 -0.585057
O15   O     O_R   0.066060 0.462640 0.999950 -0.585056
O16   O     O_R   0.462640 0.933940 0.999950 -0.585056
O17   O     O_R   0.499980 0.037350 0.582800 -0.603407
O18   O     O_R   0.962650 0.499980 0.582800 -0.603407
O19   O     O_R   0.500020 0.962650 0.582800 -0.603407
O20   O     O_R   0.037350 0.500020 0.582800 -0.603407
O21   O     O_R   0.500020 0.037350 0.417200 -0.603407
O22   O     O_R   0.037350 0.499980 0.417200 -0.603407
O23   O     O_R   0.499980 0.962650 0.417200 -0.603406
O24   O     O_R   0.962650 0.500020 0.417200 -0.603406
O25   O     O_R   0.999980 0.537350 0.082800 -0.603407
O26   O     O_R   0.462650 0.999980 0.082800 -0.603407
O27   O     O_R   0.000020 0.462650 0.082800 -0.603407
O28   O     O_R   0.537350 0.000020 0.082800 -0.603407
O29   O     O_R   0.000020 0.537350 0.917200 -0.603407
O30   O     O_R   0.537350 0.999980 0.917200 -0.603407
O31   O     O_R   0.999980 0.462650 0.917200 -0.603406
O32   O     O_R   0.462650 0.000020 0.917200 -0.603406
O33   O     O_R   0.999980 0.933940 0.546750 -0.616459
O34   O     O_R   0.066060 0.999980 0.546750 -0.616459
O35   O     O_R   0.000020 0.066060 0.546750 -0.616459
O36   O     O_R   0.933940 0.000020 0.546750 -0.616459
O37   O     O_R   0.000020 0.933940 0.453250 -0.616459
O38   O     O_R   0.933940 0.999980 0.453250 -0.616459
O39   O     O_R   0.999980 0.066060 0.453250 -0.616459
O40   O     O_R   0.066060 0.000020 0.453250 -0.616459
O41   O     O_R   0.499980 0.433940 0.046750 -0.616459
O42   O     O_R   0.566060 0.499980 0.046750 -0.616459
O43   O     O_R   0.500020 0.566060 0.046750 -0.616459
O44   O     O_R   0.433940 0.500020 0.046750 -0.616459
O45   O     O_R   0.500020 0.433940 0.953250 -0.616459
O46   O     O_R   0.433940 0.499980 0.953250 -0.616459
O47   O     O_R   0.499980 0.566060 0.953250 -0.616459
O48   O     O_R   0.566060 0.500020 0.953250 -0.616459
Zn1   Zn    Zn3+2 0.500000 0.049860 0.500000 1.071393
Zn2   Zn    Zn3+2 0.950140 0.500000 0.500000 1.071393
Zn3   Zn    Zn3+2 0.500000 0.950140 0.500000 1.071393
Zn4   Zn    Zn3+2 0.049860 0.500000 0.500000 1.071393
Zn5   Zn    Zn3+2 1.000000 0.549860 0.000000 1.071393
Zn6   Zn    Zn3+2 0.450140 0.000000 0.000000 1.071393
Zn7   Zn    Zn3+2 1.000000 0.450140 0.000000 1.071394
Zn8   Zn    Zn3+2 0.549860 0.000000 0.000000 1.071393
Zn9   Zn    Zn3+2 0.000000 0.000000 0.562420 1.077029
Zn10  Zn    Zn3+2 0.000000 0.000000 0.437580 1.077029
Zn11  Zn    Zn3+2 0.500000 0.500000 0.062420 1.077029
Zn12  Zn    Zn3+2 0.500000 0.500000 0.937580 1.077029
C169  C     C_2   0.866640 0.942625 0.422817 1.080009
O49   O     O_2   0.857578 0.945824 0.372292 -0.565512
O50   O     O_R   0.899400 0.913197 0.440741 -0.756729
H1    H     H_    0.913484 0.896600 0.407962 0.350675
C170  C     C_2   0.057374 0.866640 0.422817 1.080008
O51   O     O_2   0.054176 0.857578 0.372292 -0.565512
O52   O     O_R   0.086803 0.899400 0.440741 -0.756730
H2    H     H_    0.103400 0.913484 0.407962 0.350675
C171  C     C_2   0.133360 0.057374 0.422817 1.080008
O53   O     O_2   0.142422 0.054176 0.372292 -0.565512
O54   O     O_R   0.100600 0.086803 0.440741 -0.756729
H3    H     H_    0.086516 0.103400 0.407961 0.350675
C172  C     C_2   0.942626 0.133360 0.422817 1.080009
O55   O     O_2   0.945824 0.142422 0.372292 -0.565512
O56   O     O_R   0.913197 0.100600 0.440741 -0.756729
H4    H     H_    0.896601 0.086516 0.407961 0.350675
C173  C     C_2   0.133360 0.942626 0.577183 1.080008
O57   O     O_2   0.142422 0.945823 0.627708 -0.565512
O58   O     O_R   0.100600 0.913197 0.559259 -0.756729
H5    H     H_    0.086516 0.896600 0.592039 0.350675
C174  C     C_2   0.942626 0.866640 0.577183 1.080008
O59   O     O_2   0.945824 0.857578 0.627708 -0.565512
O60   O     O_R   0.913197 0.899400 0.559259 -0.756729
H6    H     H_    0.896600 0.913484 0.592039 0.350675
C175  C     C_2   0.866640 0.057374 0.577183 1.080008
O61   O     O_2   0.857578 0.054176 0.627708 -0.565512
O62   O     O_R   0.899400 0.086803 0.559259 -0.756730
H7    H     H_    0.913484 0.103399 0.592038 0.350675
C176  C     C_2   0.057374 0.133360 0.577183 1.080009
O63   O     O_2   0.054176 0.142422 0.627708 -0.565512
O64   O     O_R   0.086803 0.100600 0.559259 -0.756730
H8    H     H_    0.103400 0.086516 0.592038 0.350675
C177  C     C_2   0.366640 0.442626 0.922817 1.080009
O65   O     O_2   0.357578 0.445824 0.872292 -0.565512
O66   O     O_R   0.399400 0.413197 0.940741 -0.756729
H9    H     H_    0.413484 0.396600 0.907962 0.350675
C178  C     C_2   0.557374 0.366640 0.922817 1.080008
O67   O     O_2   0.554176 0.357578 0.872292 -0.565512
O68   O     O_R   0.586803 0.399400 0.940741 -0.756730
H10   H     H_    0.603399 0.413484 0.907961 0.350675
C179  C     C_2   0.633360 0.557374 0.922817 1.080009
O69   O     O_2   0.642422 0.554176 0.872292 -0.565512
O70   O     O_R   0.600600 0.586803 0.940741 -0.756731
H11   H     H_    0.586516 0.603399 0.907961 0.350675
C180  C     C_2   0.442626 0.633360 0.922817 1.080010
O71   O     O_2   0.445823 0.642422 0.872292 -0.565512
O72   O     O_R   0.413197 0.600600 0.940741 -0.756730
H12   H     H_    0.396600 0.586516 0.907962 0.350675
C181  C     C_2   0.633360 0.442626 0.077183 1.080009
O73   O     O_2   0.642422 0.445823 0.127708 -0.565512
O74   O     O_R   0.600600 0.413197 0.059259 -0.756729
H13   H     H_    0.586516 0.396600 0.092038 0.350675
C182  C     C_2   0.442626 0.366640 0.077183 1.080008
O75   O     O_2   0.445824 0.357578 0.127708 -0.565512
O76   O     O_R   0.413197 0.399400 0.059259 -0.756730
H14   H     H_    0.396600 0.413484 0.092038 0.350675
C183  C     C_2   0.366640 0.557374 0.077183 1.080009
O77   O     O_2   0.357578 0.554176 0.127708 -0.565512
O78   O     O_R   0.399400 0.586803 0.059259 -0.756730
H15   H     H_    0.413484 0.603399 0.092038 0.350675
C184  C     C_2   0.557374 0.633360 0.077183 1.080009
O79   O     O_2   0.554176 0.642422 0.127708 -0.565512
O80   O     O_R   0.586803 0.600600 0.059259 -0.756730
H16   H     H_    0.603400 0.586516 0.092038 0.350674
O81   O     O_3   0.795709 0.107491 0.568326 -0.713225
H17   H     H_    0.777596 0.134205 0.561502 0.350224
O82   O     O_3   0.892509 0.795709 0.568326 -0.713225
H18   H     H_    0.865795 0.777596 0.561503 0.350225
O83   O     O_3   0.204291 0.892509 0.568326 -0.713225
H19   H     H_    0.222404 0.865795 0.561502 0.350225
O84   O     O_3   0.107491 0.204291 0.568326 -0.713224
H20   H     H_    0.134205 0.222404 0.561502 0.350224
O85   O     O_3   0.204291 0.107491 0.431674 -0.713225
H21   H     H_    0.222404 0.134205 0.438497 0.350225
O86   O     O_3   0.107491 0.795709 0.431674 -0.713225
H22   H     H_    0.134205 0.777596 0.438498 0.350225
O87   O     O_3   0.795709 0.892509 0.431674 -0.713226
H23   H     H_    0.777596 0.865795 0.438497 0.350226
O88   O     O_3   0.892509 0.204291 0.431674 -0.713225
H24   H     H_    0.865795 0.222404 0.438497 0.350224
O89   O     O_3   0.295709 0.607491 0.068326 -0.713225
H25   H     H_    0.277596 0.634205 0.061503 0.350225
O90   O     O_3   0.392509 0.295709 0.068326 -0.713225
H26   H     H_    0.365795 0.277596 0.061503 0.350225
O91   O     O_3   0.704291 0.392509 0.068326 -0.713225
H27   H     H_    0.722404 0.365795 0.061502 0.350224
O92   O     O_3   0.607491 0.704291 0.068326 -0.713225
H28   H     H_    0.634205 0.722404 0.061502 0.350225
O93   O     O_3   0.704291 0.607491 0.931674 -0.713225
H29   H     H_    0.722404 0.634205 0.938497 0.350224
O94   O     O_3   0.607491 0.295709 0.931674 -0.713225
H30   H     H_    0.634205 0.277596 0.938497 0.350225
O95   O     O_3   0.295709 0.392509 0.931674 -0.713225
H31   H     H_    0.277596 0.365795 0.938498 0.350225
O96   O     O_3   0.392509 0.704291 0.931674 -0.713225
H32   H     H_    0.365795 0.722404 0.938497 0.350225
C185  C     C_2   0.702136 0.107615 0.579764 1.028874
O97   O     O_2   0.711374 0.120439 0.627647 -0.553484
O98   O     O_R   0.669765 0.129432 0.547909 -0.749417
H33   H     H_    0.656046 0.155092 0.569295 0.363182
C186  C     C_2   0.892386 0.702136 0.579764 1.028874
O99   O     O_2   0.879560 0.711374 0.627647 -0.553484
O100  O     O_R   0.870568 0.669765 0.547910 -0.749416
H34   H     H_    0.844908 0.656046 0.569295 0.363182
C187  C     C_2   0.297863 0.892385 0.579764 1.028873
O101  O     O_2   0.288626 0.879560 0.627647 -0.553484
O102  O     O_R   0.330235 0.870568 0.547909 -0.749416
H35   H     H_    0.343954 0.844908 0.569295 0.363181
C188  C     C_2   0.107614 0.297863 0.579764 1.028874
O103  O     O_2   0.120439 0.288626 0.627647 -0.553484
O104  O     O_R   0.129432 0.330235 0.547910 -0.749417
H36   H     H_    0.155092 0.343954 0.569295 0.363181
C189  C     C_2   0.297864 0.107614 0.420236 1.028874
O105  O     O_2   0.288626 0.120439 0.372353 -0.553484
O106  O     O_R   0.330235 0.129432 0.452090 -0.749417
H37   H     H_    0.343954 0.155092 0.430704 0.363182
C190  C     C_2   0.107615 0.702137 0.420236 1.028873
O107  O     O_2   0.120440 0.711374 0.372353 -0.553484
O108  O     O_R   0.129432 0.669765 0.452091 -0.749416
H38   H     H_    0.155092 0.656046 0.430705 0.363182
C191  C     C_2   0.702137 0.892386 0.420236 1.028873
O109  O     O_2   0.711374 0.879561 0.372353 -0.553485
O110  O     O_R   0.669765 0.870568 0.452091 -0.749416
H39   H     H_    0.656046 0.844908 0.430705 0.363182
C192  C     C_2   0.892386 0.297864 0.420236 1.028873
O111  O     O_2   0.879561 0.288626 0.372353 -0.553484
O112  O     O_R   0.870568 0.330235 0.452090 -0.749416
H40   H     H_    0.844908 0.343954 0.430704 0.363182
C193  C     C_2   0.202136 0.607614 0.079764 1.028874
O113  O     O_2   0.211374 0.620439 0.127647 -0.553484
O114  O     O_R   0.169765 0.629432 0.047910 -0.749416
H41   H     H_    0.156046 0.655092 0.069296 0.363182
C194  C     C_2   0.392385 0.202136 0.079764 1.028874
O115  O     O_2   0.379561 0.211374 0.127647 -0.553484
O116  O     O_R   0.370568 0.169765 0.047910 -0.749417
H42   H     H_    0.344908 0.156046 0.069295 0.363182
C195  C     C_2   0.797863 0.392385 0.079764 1.028873
O117  O     O_2   0.788626 0.379560 0.127647 -0.553484
O118  O     O_R   0.830235 0.370567 0.047909 -0.749416
H43   H     H_    0.843954 0.344908 0.069295 0.363182
C196  C     C_2   0.607614 0.797863 0.079763 1.028874
O119  O     O_2   0.620440 0.788626 0.127646 -0.553484
O120  O     O_R   0.629432 0.830235 0.047909 -0.749417
H44   H     H_    0.655092 0.843954 0.069295 0.363182
C197  C     C_2   0.797863 0.607614 0.920236 1.028873
O121  O     O_2   0.788626 0.620439 0.872353 -0.553483
O122  O     O_R   0.830235 0.629432 0.952090 -0.749417
H45   H     H_    0.843954 0.655092 0.930704 0.363182
C198  C     C_2   0.607614 0.202136 0.920236 1.028874
O123  O     O_2   0.620439 0.211374 0.872353 -0.553484
O124  O     O_R   0.629432 0.169765 0.952090 -0.749417
H46   H     H_    0.655092 0.156046 0.930705 0.363182
C199  C     C_2   0.202136 0.392385 0.920236 1.028874
O125  O     O_2   0.211374 0.379561 0.872353 -0.553484
O126  O     O_R   0.169765 0.370568 0.952091 -0.749416
H47   H     H_    0.156046 0.344908 0.930705 0.363181
C200  C     C_2   0.392385 0.797864 0.920236 1.028874
O127  O     O_2   0.379561 0.788626 0.872353 -0.553484
O128  O     O_R   0.370568 0.830235 0.952090 -0.749417
H48   H     H_    0.344908 0.843954 0.930705 0.363181
O129  O     O_3   0.635614 0.049587 0.581574 -0.716532
H49   H     H_    0.608839 0.032849 0.592658 0.335515
O130  O     O_3   0.950413 0.635614 0.581575 -0.716532
H50   H     H_    0.967151 0.608838 0.592658 0.335515
O131  O     O_3   0.364386 0.950413 0.581574 -0.716533
H51   H     H_    0.391161 0.967151 0.592658 0.335516
O132  O     O_3   0.049587 0.364386 0.581574 -0.716533
H52   H     H_    0.032849 0.391161 0.592658 0.335516
O133  O     O_3   0.364386 0.049587 0.418425 -0.716533
H53   H     H_    0.391161 0.032849 0.407342 0.335515
O134  O     O_3   0.049587 0.635614 0.418425 -0.716532
H54   H     H_    0.032849 0.608839 0.407342 0.335515
O135  O     O_3   0.635614 0.950413 0.418425 -0.716532
H55   H     H_    0.608839 0.967151 0.407342 0.335515
O136  O     O_3   0.950413 0.364386 0.418425 -0.716533
H56   H     H_    0.967151 0.391161 0.407342 0.335516
O137  O     O_3   0.135614 0.549587 0.081574 -0.716533
H57   H     H_    0.108839 0.532849 0.092658 0.335515
O138  O     O_3   0.450413 0.135613 0.081575 -0.716533
H58   H     H_    0.467151 0.108839 0.092658 0.335516
O139  O     O_3   0.864386 0.450413 0.081574 -0.716532
H59   H     H_    0.891161 0.467151 0.092658 0.335515
O140  O     O_3   0.549587 0.864386 0.081574 -0.716533
H60   H     H_    0.532849 0.891161 0.092658 0.335516
O141  O     O_3   0.864386 0.549587 0.918425 -0.716533
H61   H     H_    0.891161 0.532849 0.907342 0.335515
O142  O     O_3   0.549587 0.135614 0.918425 -0.716532
H62   H     H_    0.532849 0.108839 0.907342 0.335515
O143  O     O_3   0.135614 0.450413 0.918425 -0.716533
H63   H     H_    0.108839 0.467151 0.907342 0.335516
O144  O     O_3   0.450413 0.864386 0.918425 -0.716533
H64   H     H_    0.467151 0.891161 0.907342 0.335516

loop_
_geom_bond_atom_site_label_1
_geom_bond_atom_site_label_2
_ccdc_geom_bond_type
C115  C141  A    
C193  O113  D    
C106  C170  S    
C61   O141  S    
C130  C146  A    
C33   C45   A    
O80   H16   S    
C35   C47   A    
C10   C154  A    
C188  O103  D    
C187  O101  D    
O33   Zn9   S    
C14   C158  A    
C51   O131  S    
C112  C124  A    
C26   C50   A    
C60   C72   A    
O70   H11   S    
C22   C38   A    
C58   O138  S    
C62   C70   A    
O47   Zn12  S    
C75   O39   A    
O72   H12   S    
C27   C51   A    
O38   Zn10  S    
C170  O52   S    
C107  C123  A    
C140  C152  A    
C129  C145  A    
C181  O74   S    
O26   Zn6   S    
C61   C71   A    
C56   O136  S    
C74   C123  S    
C173  O57   D    
C117  C139  A    
O23   Zn3   S    
C120  C184  S    
C108  C124  A    
C78   C127  S    
C192  O112  S    
C76   O38   A    
C12   C188  S    
O34   Zn9   S    
C53   O133  S    
C110  C174  S    
C134  C146  A    
C135  C159  A    
O13   Zn5   S    
O96   H32   S    
O124  H46   S    
C93   C101  T    
C85   O27   A    
O85   H21   S    
C73   O33   A    
C28   C44   A    
C132  C148  A    
C169  O49   D    
C8    O12   A    
O112  H40   S    
C11   C27   A    
C10   C26   A    
O37   Zn10  S    
C138  C162  A    
C167  O95   S    
O28   Zn8   S    
C23   C167  A    
C82   O18   A    
C96   C104  T    
O129  H49   S    
C16   C192  S    
O6    Zn4   S    
C13   C189  S    
O126  H47   S    
O35   Zn9   S    
C177  O66   S    
C83   O23   A    
C40   C48   A    
C17   C193  S    
O122  H45   S    
C83   C91   S    
O131  H51   S    
C183  O78   S    
O45   Zn12  S    
C19   C35   A    
C195  O117  D    
C137  C161  A    
C88   O32   A    
C64   O144  S    
O12   Zn8   S    
O102  H35   S    
C22   C166  A    
C143  C149  A    
C94   C102  T    
C169  O50   S    
O95   H31   S    
C89   C97   T    
O114  H41   S    
C34   C58   A    
C176  O64   S    
O36   Zn9   S    
C118  C138  A    
C98   C103  S    
C38   C62   A    
C6    O10   A    
C111  C175  S    
C14   C190  S    
C191  O109  D    
C16   C160  A    
O144  H64   S    
O135  H55   S    
C30   C54   A    
C174  O59   D    
O48   Zn12  S    
C6    O14   A    
O29   Zn5   S    
C175  O61   D    
C114  C126  A    
O134  H54   S    
C22   C198  S    
C172  O55   D    
C185  O98   S    
C16   C32   A    
O40   Zn10  S    
C116  C144  A    
O44   Zn11  S    
C85   C93   S    
C63   C69   A    
C87   C95   S    
C108  C172  S    
C15   C191  S    
C1    C65   S    
C131  C147  A    
C120  C140  A    
C37   C47   A    
C170  O51   D    
C78   O42   A    
O4    Zn4   S    
C11   C155  A    
C105  C135  A    
C164  O92   S    
C18   C194  S    
C109  C173  S    
C181  O73   D    
C186  O100  S    
C12   C156  A    
C13   C157  A    
C95   C103  T    
C187  O102  S    
C189  O106  S    
C7    O13   A    
C7    O11   A    
C75   C124  S    
C4    C68   S    
C75   O35   A    
C109  C123  A    
C51   C67   A    
C56   C68   A    
C82   O20   A    
C168  O96   S    
O81   H17   S    
C142  C166  A    
C18   C34   A    
O39   Zn10  S    
O116  H42   S    
C106  C122  A    
C184  O79   D    
C59   O139  S    
C21   C37   A    
C130  C154  A    
C19   C163  A    
C178  O68   S    
C143  C167  A    
C136  C148  A    
C17   C161  A    
C134  C158  A    
O87   H23   S    
C26   C42   A    
C73   O37   A    
C1    O7    A    
C4    O4    A    
C24   C200  S    
C2    C66   S    
O22   Zn4   S    
O68   H10   S    
C115  C179  S    
C15   C31   A    
C54   C66   A    
C140  C164  A    
C141  C165  A    
C23   C199  S    
C139  C163  A    
O139  H59   S    
C144  C152  A    
O133  H53   S    
C86   O26   A    
C129  C153  A    
C139  C151  A    
C100  C101  S    
C132  C156  A    
C32   C56   A    
C36   C48   A    
C133  C157  A    
C116  C180  S    
C53   C67   A    
C198  O124  S    
C136  C160  A    
C106  C134  A    
O15   Zn7   S    
C166  O94   S    
O76   H14   S    
C84   C92   S    
C91   C99   T    
O3    Zn3   S    
O62   H7    S    
C200  O128  S    
C196  O120  S    
O1    Zn1   S    
C88   C96   S    
O141  H61   S    
C156  O84   S    
O54   H3    S    
C87   O31   A    
C163  O91   S    
C192  O111  D    
C9    C25   A    
O60   H6    S    
C133  C147  A    
C79   O43   A    
C194  O116  S    
C141  C151  A    
C12   C28   A    
C13   C29   A    
C197  O122  S    
O56   H4    S    
C20   C164  A    
C21   C165  A    
C35   C59   A    
C186  O99   D    
C88   O30   A    
C5    C69   S    
C55   C65   A    
C111  C129  A    
O110  H39   S    
O21   Zn1   S    
C135  C145  A    
C109  C131  A    
O52   H2    S    
C190  O108  S    
C31   C41   A    
C77   O45   A    
C119  C183  S    
C81   C89   S    
O25   Zn5   S    
C60   O140  S    
O92   H28   S    
C193  O114  S    
O8    Zn2   S    
C179  O69   D    
C29   C43   A    
C17   C33   A    
C188  O104  S    
O20   Zn4   S    
C154  O82   S    
C8    C72   S    
O88   H24   S    
C118  C182  S    
O108  H38   S    
C179  O70   S    
C62   O142  S    
C74   O40   A    
C74   O34   A    
O89   H25   S    
C113  C143  A    
C105  C169  S    
O30   Zn8   S    
O84   H20   S    
C15   C159  A    
C183  O77   D    
O18   Zn2   S    
O104  H36   S    
C162  O90   S    
C112  C132  A    
C117  C127  A    
C49   C65   A    
C2    O2    A    
C119  C125  A    
C47   C151  A    
C48   C152  A    
C55   O135  S    
C182  O76   S    
C87   O29   A    
C25   C41   A    
C42   C146  A    
C158  O86   S    
O82   H18   S    
C52   O132  S    
C200  O127  D    
C6    C70   S    
C24   C40   A    
C21   C197  S    
C11   C187  S    
O14   Zn8   S    
C83   O21   A    
C58   C70   A    
O120  H44   S    
O132  H52   S    
C120  C128  A    
C160  O88   S    
C108  C136  A    
C155  O83   S    
C82   C90   S    
O32   Zn6   S    
C142  C150  A    
C131  C155  A    
C54   O134  S    
O74   H13   S    
O98   H33   S    
C107  C133  A    
C110  C122  A    
C18   C162  A    
O106  H37   S    
O91   H27   S    
C177  O65   D    
C110  C130  A    
C19   C195  S    
C185  O97   D    
C25   C49   A    
C97   C104  S    
O94   H30   S    
C20   C36   A    
C27   C43   A    
C99   C102  S    
C41   C145  A    
C73   C122  S    
C4    O8    A    
O140  H60   S    
C199  O126  S    
C30   C42   A    
O41   Zn11  S    
C31   C55   A    
C5    O15   A    
C77   C126  S    
C81   O19   A    
C165  O93   S    
C79   C128  S    
C39   C45   A    
C111  C121  A    
O83   H19   S    
O136  H56   S    
O24   Zn2   S    
O100  H34   S    
C85   O25   A    
O143  H63   S    
O130  H50   S    
O19   Zn3   S    
C189  O105  D    
C138  C150  A    
O16   Zn6   S    
C107  C171  S    
O17   Zn1   S    
C144  C168  A    
C76   C121  S    
C114  C142  A    
C24   C168  A    
C176  O63   D    
C195  O118  S    
C7    C71   S    
C159  O87   S    
C113  C125  A    
C80   C125  S    
C115  C127  A    
C63   O143  S    
C49   O129  S    
C117  C181  S    
C86   C94   S    
C44   C148  A    
C3    O5    A    
O78   H15   S    
O138  H58   S    
C84   O22   A    
C180  O72   S    
O46   Zn12  S    
C178  O67   D    
C45   C149  A    
C52   C68   A    
C77   O41   A    
C86   O28   A    
C8    O16   A    
C79   O47   A    
C191  O110  S    
O86   H22   S    
O43   Zn11  S    
C137  C149  A    
C14   C30   A    
C81   O17   A    
C174  O60   S    
C38   C46   A    
C119  C137  A    
C114  C178  S    
C78   O48   A    
C175  O62   S    
C80   O46   A    
O90   H26   S    
C153  O81   S    
C182  O75   D    
O11   Zn7   S    
C172  O56   S    
C112  C176  S    
O118  H43   S    
O142  H62   S    
O42   Zn11  S    
C180  O71   D    
C32   C44   A    
C105  C121  A    
C113  C177  S    
C50   C66   A    
C5    O9    A    
C198  O123  D    
C34   C46   A    
C46   C150  A    
C9    C185  S    
C50   O130  S    
C171  O54   S    
C161  O89   S    
C20   C196  S    
C10   C186  S    
O64   H8    S    
O5    Zn1   S    
C92   C100  T    
C196  O119  D    
C33   C57   A    
O7    Zn3   S    
C3    C67   S    
C157  O85   S    
C36   C60   A    
C57   O137  S    
C37   C61   A    
O58   H5    S    
C76   O36   A    
C39   C63   A    
C194  O115  D    
C40   C64   A    
C80   O44   A    
O9    Zn5   S    
C173  O58   S    
C197  O121  D    
C2    O6    A    
O27   Zn7   S    
C28   C52   A    
C3    O3    A    
C199  O125  D    
C29   C53   A    
O66   H9    S    
C1    O1    A    
C184  O80   S    
C90   C98   T    
C84   O24   A    
O137  H57   S    
C64   C72   A    
O93   H29   S    
C43   C147  A    
C9    C153  A    
O31   Zn7   S    
C116  C128  A    
O50   H1    S    
O10   Zn6   S    
C118  C126  A    
C57   C69   A    
C190  O107  D    
C171  O53   D    
C23   C39   A    
O128  H48   S    
C59   C71   A    
O2    Zn2   S    
