data_mof_unit_5915.cif
_audit_creation_date              2012-12-11T15:30:35-0500
_audit_creation_method            fapswitch 2.2
_symmetry_space_group_name_H-M    P1
_symmetry_Int_Tables_number       1
_space_group_crystal_system       triclinic
_cell_length_a                    6.950529
_cell_length_b                    20.470566
_cell_length_c                    24.436972
_cell_angle_alpha                 89.678075
_cell_angle_beta                  90.598405
_cell_angle_gamma                 89.524531
_cell_volume                      3476.55729621

loop_
_atom_site_label
_atom_site_type_symbol
_atom_type_description
_atom_site_fract_x
_atom_site_fract_y
_atom_site_fract_z
_atom_type_partial_charge
O1    O     O_R   0.507310 0.423620 0.460450 -0.537537
O2    O     O_R   0.170760 0.556060 0.437190 -0.527145
O3    O     O_R   0.004040 0.576380 0.539550 -0.536358
C1    C     C_R   0.338691 0.576200 0.421245 0.721288
O4    O     O_R   0.177350 0.422870 0.454070 -0.539307
O5    O     O_R   0.010680 0.442240 0.556560 -0.537334
C2    C     C_R   0.346090 0.399004 0.443318 0.688442
O6    O     O_R   0.500670 0.557760 0.443440 -0.532323
O7    O     O_3   0.340380 0.506510 0.533610 -0.370298
V1    V     V_3+5 0.064130 0.498790 0.493770 1.449479
O8    O     O_R   0.681170 0.443940 0.562810 -0.540253
C3    C     C_R   0.850956 0.423895 0.578672 0.722239
O9    O     O_R   0.674570 0.577130 0.545930 -0.538284
C4    C     C_R   0.842950 0.601062 0.556529 0.701263
V2    V     V_3+5 0.564560 0.501210 0.506230 1.434761
O10   O     O_3   0.838170 0.493490 0.466390 -0.362515
C5    C     C_R   0.971052 0.838940 0.910413 -0.056832
C6    C     C_R   0.848496 0.661834 0.588511 -0.044039
C7    C     C_R   0.968480 0.720989 0.907867 -0.157008
C8    C     C_R   0.966047 0.778793 0.937457 -0.256800
C9    C     C_R   0.974404 0.841359 0.852687 0.265414
C10   C     C_R   0.948827 0.782493 0.821648 -0.007992
C11   C     C_R   0.961060 0.722223 0.850509 0.105567
C12   C     C_R   0.908475 0.780707 0.763811 0.054541
C13   C     C_R   0.917477 0.719921 0.734846 0.064481
C14   C     C_R   0.950324 0.662161 0.765403 -0.180223
C15   C     C_R   0.964917 0.663308 0.822109 -0.170758
C16   C     C_R   0.842008 0.836533 0.735106 -0.204321
C17   C     C_R   0.804689 0.835054 0.679236 -0.210985
C18   C     C_R   0.825790 0.777377 0.649750 0.146345
C19   C     C_R   0.882428 0.718623 0.676797 0.085875
C20   C     C_R   0.782822 0.777755 0.593505 -0.166003
C21   C     C_R   0.791946 0.720375 0.563372 -0.166152
C22   C     C_R   0.896157 0.660941 0.644604 -0.218342
H1    H     H_    0.979643 0.617321 0.844052 0.130151
H2    H     H_    0.940332 0.614534 0.661794 0.097049
H3    H     H_    0.753377 0.721514 0.520292 0.113340
H4    H     H_    0.754464 0.879418 0.659067 0.123436
H5    H     H_    0.973076 0.674959 0.930003 0.124897
H6    H     H_    0.967433 0.776603 0.981778 0.119621
H7    H     H_    0.954874 0.614526 0.746982 0.126765
H8    H     H_    0.807601 0.881569 0.755655 0.173917
H9    H     H_    0.737968 0.822481 0.572934 0.111151
C23   C     C_3   0.723503 0.239721 0.791110 -0.323850
C24   C     C_3   0.077401 0.263098 0.797220 -0.316210
C25   C     C_3   0.060665 0.311990 0.748392 -0.293930
H10   H     H_    0.697779 0.263739 0.831153 0.171026
H11   H     H_    0.225220 0.241765 0.798699 0.132309
H12   H     H_    0.055474 0.289733 0.836264 0.164194
H13   H     H_    0.040952 0.362467 0.763943 0.183938
H14   H     H_    0.198105 0.311661 0.725427 0.116632
C26   C     C_1   0.863562 0.378599 0.624483 -0.189290
C27   C     C_3   0.926991 0.207844 0.791691 0.252084
C28   C     C_3   0.700917 0.289210 0.742340 -0.089873
C29   C     C_3   0.892335 0.293236 0.709308 0.244782
C30   C     C_3   0.937189 0.223548 0.687730 -0.366283
C31   C     C_3   0.957613 0.173741 0.735874 -0.329908
C32   C     C_1   0.875966 0.340345 0.662604 -0.108143
C33   C     C_1   0.946652 0.160148 0.837757 -0.087768
C34   C     C_1   0.960389 0.121571 0.875624 -0.176401
H15   H     H_    0.850569 0.134098 0.730501 0.145975
H16   H     H_    0.103096 0.150663 0.735029 0.146015
H17   H     H_    0.820480 0.207593 0.659415 0.141512
H18   H     H_    0.612621 0.201061 0.787020 0.115761
H19   H     H_    0.587585 0.269947 0.714327 0.058936
H20   H     H_    0.072753 0.223915 0.663876 0.147238
C35   C     C_3   0.608397 0.710690 0.273691 -0.102234
C36   C     C_3   0.272467 0.687489 0.240556 -0.345911
C37   C     C_3   0.299414 0.736749 0.192468 -0.337904
H21   H     H_    0.698592 0.736113 0.190270 0.135862
H22   H     H_    0.649218 0.661541 0.257920 0.134098
H23   H     H_    0.117325 0.685168 0.251109 0.183775
H24   H     H_    0.316565 0.637718 0.227247 0.135511
H25   H     H_    0.357023 0.710445 0.156352 0.141688
H26   H     H_    0.156948 0.757717 0.180254 0.141806
C38   C     C_1   0.476155 0.878327 0.124745 -0.196744
C39   C     C_3   0.392681 0.707905 0.291504 0.211853
C40   C     C_3   0.634213 0.761258 0.226050 -0.392797
C41   C     C_3   0.438184 0.792509 0.209014 0.287041
C42   C     C_3   0.353722 0.827015 0.259919 -0.341927
C43   C     C_3   0.323758 0.777556 0.307672 -0.336767
C44   C     C_1   0.461537 0.839901 0.162747 -0.087348
C45   C     C_1   0.365010 0.660316 0.337537 -0.023960
C46   C     C_1   0.348558 0.621804 0.375393 -0.135502
H27   H     H_    0.401834 0.794421 0.344843 0.126262
H28   H     H_    0.168482 0.776451 0.318240 0.170992
H29   H     H_    0.452341 0.866338 0.273687 0.137051
H30   H     H_    0.736057 0.800580 0.237927 0.130735
H31   H     H_    0.213581 0.850614 0.248985 0.140594
C47   C     C_R   0.472764 0.161698 0.088962 -0.042703
C48   C     C_R   0.351740 0.338334 0.411063 -0.040488
C49   C     C_R   0.535869 0.277414 0.094512 -0.159717
C50   C     C_R   0.526590 0.220216 0.064155 -0.166812
C51   C     C_R   0.428792 0.160658 0.145049 -0.215741
C52   C     C_R   0.440653 0.218344 0.177405 0.086525
C53   C     C_R   0.494907 0.276986 0.150637 0.138483
C54   C     C_R   0.403425 0.219923 0.235184 0.059146
C55   C     C_R   0.421146 0.280107 0.264844 0.057978
C56   C     C_R   0.474874 0.336671 0.235703 -0.187326
C57   C     C_R   0.510431 0.334959 0.179947 -0.201373
C58   C     C_R   0.349722 0.163357 0.264326 -0.189224
C59   C     C_R   0.314173 0.165068 0.320082 -0.204760
C60   C     C_R   0.329672 0.223042 0.349391 0.142029
C61   C     C_R   0.383905 0.281687 0.322622 0.085994
C62   C     C_R   0.288703 0.222614 0.405515 -0.164819
C63   C     C_R   0.297945 0.279813 0.435870 -0.170190
C64   C     C_R   0.395721 0.339376 0.354976 -0.214490
H32   H     H_    0.551909 0.379763 0.159513 0.122556
H33   H     H_    0.433655 0.386085 0.337898 0.094695
H34   H     H_    0.261658 0.278544 0.478880 0.103238
H35   H     H_    0.272716 0.120262 0.340517 0.119325
H36   H     H_    0.578058 0.322143 0.074123 0.116564
H37   H     H_    0.562859 0.221485 0.021144 0.107993
H38   H     H_    0.390812 0.113952 0.162126 0.092749
H39   H     H_    0.491520 0.383541 0.254828 0.123093
H40   H     H_    0.333102 0.116485 0.245203 0.120793
H41   H     H_    0.246530 0.177883 0.425904 0.109971
O11   O     O_R   0.323590 0.942280 0.056590 -0.538192
O12   O     O_R   0.647030 0.077140 0.045940 -0.539664
O13   O     O_R   0.813570 0.057750 0.943430 -0.535477
C65   C     C_R   0.478325 0.101030 0.056704 0.689604
O14   O     O_R   0.653510 0.943950 0.062820 -0.539948
O15   O     O_R   0.820100 0.923600 0.960440 -0.540911
C66   C     C_R   0.485597 0.923846 0.078801 0.719886
O16   O     O_R   0.317060 0.076430 0.039590 -0.538297
O17   O     O_3   0.483830 0.993520 0.966410 -0.363021
V3    V     V_3+5 0.760140 0.001200 0.006230 1.429613
O18   O     O_R   0.149560 0.922820 0.954030 -0.533992
C67   C     C_R   0.980881 0.899009 0.943343 0.765930
O19   O     O_R   0.143080 0.056020 0.937150 -0.535567
C68   C     C_R   0.973270 0.076072 0.921296 0.751083
V4    V     V_3+5 0.259690 0.998730 0.993720 1.444409
O20   O     O_3   0.986120 0.006480 0.033580 -0.374056
C69   C     C_2   0.628714 0.355311 0.760982 0.344448
H42   H     H_    0.512938 0.379448 0.738386 0.042370
O21   O     O_2   0.701630 0.382965 0.800088 -0.532527
C70   C     C_2   0.742271 0.725814 0.321021 0.317032
H43   H     H_    0.739264 0.773627 0.339941 0.051765
O22   O     O_2   0.855620 0.684516 0.338243 -0.542459
O23   O     O_3   0.020279 0.900342 0.828877 -0.667062
H44   H     H_    0.102301 0.890963 0.796864 0.287409

loop_
_geom_bond_atom_site_label_1
_geom_bond_atom_site_label_2
_ccdc_geom_bond_type
C13   C19   A    
C18   C20   A    
C29   C30   S    
O17   V3    S    
H21   C40   S    
O13   C68   A    
C4    C6    S    
C62   C63   A    
O19   V4    S    
C52   C53   A    
C35   C39   S    
C1    O6    A    
O18   C67   A    
C54   C55   A    
C27   C33   S    
O13   V3    S    
C31   H16   S    
C28   H19   S    
C24   C25   S    
C23   H18   S    
C70   O22   D    
C14   C15   A    
C58   C59   A    
C16   C17   A    
C42   H29   S    
C56   H39   S    
C18   C19   A    
C8    H6    S    
C30   H20   S    
C39   C45   S    
V2    O10   S    
C28   C69   S    
C49   C53   A    
C5    C8    A    
C30   C31   S    
C42   H31   S    
C36   C37   S    
O8    V2    S    
C23   C27   S    
C7    C8    A    
V4    O20   S    
C25   C29   S    
C37   H26   S    
O1    V2    S    
C11   C15   A    
O7    V1    S    
C22   H2    S    
C43   H28   S    
C23   H10   S    
C43   H27   S    
C24   C27   S    
C33   C34   T    
O9    C4    A    
O15   C67   A    
C64   H33   S    
C48   C63   A    
C62   H41   S    
C59   H35   S    
C59   C60   A    
C35   C40   S    
O18   V4    S    
C34   C68   S    
C3    C26   S    
C47   C51   A    
O12   C65   A    
C51   H38   S    
C26   C32   T    
C57   H32   S    
C5    C67   S    
C38   C66   S    
C48   C64   A    
O23   H44   S    
V3    O20   S    
C38   C44   T    
O4    C2    A    
C27   C31   S    
O14   V3    S    
C49   H36   S    
C69   O21   D    
C15   H1    S    
C36   H24   S    
C25   H14   S    
C5    C9    A    
C17   H4    S    
O2    C1    A    
C65   O16   A    
C17   C18   A    
O15   V3    S    
C45   C46   T    
C1    C46   S    
C24   H12   S    
C36   H23   S    
C2    C48   S    
C30   H17   S    
C37   H25   S    
C60   C62   A    
O11   C66   A    
C12   C13   A    
C6    C22   A    
O3    C4    A    
C7    H5    S    
C55   C56   A    
O6    V2    S    
O9    V2    S    
C47   C65   S    
C10   C12   A    
C37   C41   S    
O14   C66   A    
O2    V1    S    
C19   C22   A    
C7    C11   A    
C47   C50   A    
C63   H34   S    
C24   H11   S    
C40   H30   S    
C36   C39   S    
C28   C29   S    
O1    C2    A    
C12   C16   A    
C42   C43   S    
O5    V1    S    
C41   C44   S    
O8    C3    A    
C52   C54   A    
C31   H15   S    
C69   H42   S    
C70   H43   S    
C25   H13   S    
C56   C57   A    
C20   C21   A    
O19   C68   A    
C13   C14   A    
O4    V1    S    
O3    V1    S    
V1    O10   S    
O5    C3    A    
C40   C41   S    
O16   V4    S    
C55   C61   A    
C53   C57   A    
C16   H8    S    
C49   C50   A    
C20   H9    S    
C50   H37   S    
C35   H22   S    
O7    V2    S    
C51   C52   A    
C35   C70   S    
C6    C21   A    
C21   H3    S    
O11   V4    S    
O17   V4    S    
C41   C42   S    
C23   C28   S    
C39   C43   S    
C29   C32   S    
C60   C61   A    
C58   H40   S    
C10   C11   A    
C9    O23   S    
C9    C10   A    
C61   C64   A    
C54   C58   A    
C14   H7    S    
O12   V3    S    
