data_mof_unit_50825.cif
_audit_creation_date              2012-12-10T20:21:45-0500
_audit_creation_method            fapswitch 2.2
_symmetry_space_group_name_H-M    P1
_symmetry_Int_Tables_number       1
_space_group_crystal_system       triclinic
_cell_length_a                    19.357145
_cell_length_b                    18.494376
_cell_length_c                    8.92764
_cell_angle_alpha                 90.128646
_cell_angle_beta                  90.059184
_cell_angle_gamma                 90.28365
_cell_volume                      3196.03113895

loop_
_atom_site_label
_atom_site_type_symbol
_atom_type_description
_atom_site_fract_x
_atom_site_fract_y
_atom_site_fract_z
_atom_type_partial_charge
C1    C     C_R   0.365661 0.499859 0.500112 1.032267
C2    C     C_R   0.521042 0.198203 0.626882 -0.260747
C3    C     C_R   0.499683 0.841430 0.499820 0.112870
C4    C     C_R   0.500223 0.158567 0.499619 0.106557
C5    C     C_R   0.448770 0.961717 0.422078 -0.166004
C6    C     C_R   0.551205 0.038190 0.576989 -0.172217
C7    C     C_R   0.551030 0.962238 0.577117 -0.170439
C8    C     C_R   0.448881 0.037676 0.422122 -0.165328
C9    C     C_R   0.500111 0.077235 0.499559 0.120253
C10   C     C_R   0.499821 0.922714 0.499647 0.118921
C11   C     C_R   0.500639 0.499980 0.218478 1.036562
C12   C     C_R   0.634024 0.500120 0.499792 1.028620
C13   C     C_R   0.500591 0.500042 0.781523 1.029264
C14   C     C_1   0.501296 0.500004 0.065281 -0.108144
C15   C     C_1   0.501295 0.500060 0.934701 -0.119187
C16   C     C_R   0.744593 0.473101 0.372559 0.316229
C17   C     C_R   0.253812 0.541933 0.606891 0.417697
C18   C     C_R   0.253227 0.458307 0.392325 0.423152
C19   C     C_R   0.745708 0.527685 0.623409 0.407475
C20   C     C_R   0.816396 0.473675 0.372963 -0.215949
C21   C     C_R   0.181977 0.542194 0.603529 -0.220691
C22   C     C_R   0.181470 0.460058 0.392582 -0.219918
C23   C     C_R   0.518668 0.726460 0.625950 0.111681
C24   C     C_R   0.817457 0.529231 0.619140 -0.218009
C25   C     C_R   0.852405 0.502073 0.495018 -0.045861
C26   C     C_R   0.145932 0.501592 0.497245 -0.050440
C27   C     C_R   0.708928 0.500323 0.498585 -0.304609
C28   C     C_R   0.290247 0.499772 0.500084 -0.324827
C29   C     C_R   0.963294 0.567205 0.514189 -0.160493
C30   C     C_R   0.034066 0.436840 0.477247 -0.161724
C31   C     C_R   0.034900 0.567160 0.514234 -0.163902
C32   C     C_R   0.962520 0.437101 0.475140 -0.165983
C33   C     C_R   0.070584 0.501912 0.496261 0.162867
C34   C     C_R   0.479950 0.273685 0.374864 0.127303
C35   C     C_R   0.927214 0.502212 0.494163 0.152909
C36   C     C_R   0.480546 0.725817 0.374344 0.051768
C37   C     C_R   0.520661 0.274103 0.624595 0.030617
C38   C     C_R   0.519058 0.802352 0.628155 -0.261440
C39   C     C_R   0.479585 0.197790 0.372341 -0.263182
C40   C     C_R   0.480072 0.801722 0.371820 -0.259135
H1    H     H_    0.844714 0.453359 0.277247 0.195265
H2    H     H_    0.464269 0.303062 0.276072 0.161575
H3    H     H_    0.465290 0.696060 0.275243 0.137278
H4    H     H_    0.536899 0.303813 0.723043 0.151346
H5    H     H_    0.533396 0.830108 0.730519 0.139273
H6    H     H_    0.464203 0.170181 0.270529 0.144365
H7    H     H_    0.465373 0.828993 0.269569 0.142186
H8    H     H_    0.536630 0.170909 0.728471 0.144777
H9    H     H_    0.407777 0.933519 0.363201 0.146189
H10   H     H_    0.592276 0.066316 0.635734 0.139934
H11   H     H_    0.591918 0.934444 0.636043 0.142321
H12   H     H_    0.153570 0.573010 0.686034 0.195549
H13   H     H_    0.407916 0.065408 0.363348 0.148277
H14   H     H_    0.684608 0.334910 0.296321 0.343035
H15   H     H_    0.364967 0.564957 0.931939 0.386651
H16   H     H_    0.368896 0.425296 0.078787 0.385703
H17   H     H_    0.634131 0.640138 0.854116 0.370374
H18   H     H_    0.152722 0.429671 0.309354 0.195552
H19   H     H_    0.846602 0.549778 0.713878 0.194510
H20   H     H_    0.935976 0.617770 0.528083 0.156056
H21   H     H_    0.060832 0.385839 0.465730 0.153804
H22   H     H_    0.062365 0.617979 0.526900 0.153681
H23   H     H_    0.934632 0.386585 0.461157 0.151320
H24   H     H_    0.532953 0.697254 0.725789 0.137868
N1    N     N_R   0.500000 0.689440 0.500000 -0.095575
N2    N     N_R   0.500000 0.310560 0.500000 -0.103903
O1    O     O_R   0.398180 0.560840 0.499960 -0.578683
O2    O     O_2   0.751533 0.423676 0.087685 -0.243232
O3    O     O_3   0.652509 0.369374 0.248263 -0.530559
O4    O     O_2   0.334058 0.654550 0.687582 -0.280785
O5    O     O_2   0.242867 0.619264 0.862600 -0.286838
O6    O     O_3   0.350301 0.536988 0.842558 -0.582270
O7    O     O_2   0.327753 0.341324 0.322549 -0.302226
O8    O     O_2   0.241497 0.379259 0.138872 -0.280213
O9    O     O_3   0.353157 0.455910 0.163176 -0.593349
O10   O     O_2   0.656151 0.495174 0.838702 -0.282594
O11   O     O_2   0.755619 0.569795 0.912146 -0.246455
O12   O     O_R   0.601820 0.439160 0.500040 -0.596510
O13   O     O_3   0.657949 0.630155 0.758171 -0.568693
O14   O     O_R   0.601820 0.560840 0.500040 -0.581390
O15   O     O_R   0.398180 0.439160 0.499960 -0.574572
O16   O     O_R   0.500000 0.560800 0.285330 -0.655759
O17   O     O_R   0.500000 0.439200 0.714670 -0.640659
O18   O     O_R   0.500000 0.560800 0.714670 -0.616067
O19   O     O_R   0.500000 0.439200 0.285330 -0.595565
O20   O     O_2   0.655137 0.502164 0.155706 -0.253507
S1    S     S_3+6 0.701137 0.442532 0.209523 0.066196
S2    S     S_3+6 0.295157 0.591455 0.752397 0.039714
S3    S     S_3+6 0.293681 0.405552 0.251673 0.033999
S4    S     S_3+6 0.703850 0.554899 0.790115 0.055268
Zn1   Zn    Zn3+2 0.500000 0.581210 0.500000 1.041436
Zn2   Zn    Zn3+2 0.500000 0.418790 0.500000 1.047121

loop_
_geom_bond_atom_site_label_1
_geom_bond_atom_site_label_2
_ccdc_geom_bond_type
C40   H7    S    
C21   C26   A    
C7    C10   A    
C17   S2    S    
H17   O13   S    
C34   H2    S    
O4    S2    D    
C34   N2    A    
C6    C9    A    
C20   H1    S    
O17   Zn2   S    
C13   O18   A    
O8    S3    D    
C11   O19   A    
C11   C14   S    
C20   C25   A    
C1    O15   A    
C38   H5    S    
C29   H20   S    
C3    C38   A    
C8    C9    A    
O13   S4    S    
C12   O12   A    
C1    C28   S    
C31   C33   A    
O18   Zn1   S    
C19   C27   A    
H15   O6    S    
O3    S1    S    
C16   C27   A    
H16   O9    S    
C17   C28   A    
C31   H22   S    
C5    H9    S    
O6    S2    S    
O19   Zn2   S    
C11   O16   A    
O11   S4    D    
C12   C27   S    
C34   C39   A    
C32   C35   A    
C36   C40   A    
C18   C28   A    
C24   C25   A    
C36   N1    A    
N2    Zn2   S    
O12   Zn2   S    
C17   C21   A    
O16   Zn1   S    
C2    C4    A    
C16   S1    S    
C26   C33   S    
C4    C39   A    
C16   C20   A    
C37   N2    A    
O1    Zn1   S    
C6    H10   S    
O15   Zn2   S    
C25   C35   S    
C39   H6    S    
C23   H24   S    
C3    C40   A    
C13   C15   S    
O20   S1    D    
N1    Zn1   S    
C29   C35   A    
C30   C33   A    
C18   C22   A    
C18   S3    S    
C32   H23   S    
C8    H13   S    
C22   H18   S    
C5    C8    A    
C6    C7    A    
C23   C38   A    
C13   O17   A    
C2    H8    S    
C23   N1    A    
O14   Zn1   S    
C19   C24   A    
C7    H11   S    
C5    C10   A    
C29   C31   A    
C19   S4    S    
C30   C32   A    
C2    C37   A    
H14   O3    S    
C37   H4    S    
C24   H19   S    
C12   O14   A    
C1    O1    A    
O9    S3    S    
O7    S3    D    
O5    S2    D    
C22   C26   A    
C30   H21   S    
C3    C10   S    
O2    S1    D    
C14   C15   T    
C36   H3    S    
C4    C9    S    
C21   H12   S    
O10   S4    D    
