data_mof_unit_43446.cif
_audit_creation_date              2012-12-10T18:15:11-0500
_audit_creation_method            fapswitch 2.2
_symmetry_space_group_name_H-M    P1
_symmetry_Int_Tables_number       1
_space_group_crystal_system       triclinic
_cell_length_a                    12.625202
_cell_length_b                    13.221539
_cell_length_c                    23.42389
_cell_angle_alpha                 91.053531
_cell_angle_beta                  103.193293
_cell_angle_gamma                 82.222079
_cell_volume                      3771.4815998

loop_
_atom_site_label
_atom_site_type_symbol
_atom_type_description
_atom_site_fract_x
_atom_site_fract_y
_atom_site_fract_z
_atom_type_partial_charge
C1    C     C_R   0.438891 0.691139 0.491679 0.869578
C2    C     C_R   0.383530 0.661825 0.018356 -0.215526
C3    C     C_R   0.384897 0.665378 0.958930 0.117481
C4    C     C_R   0.440718 0.582279 0.933718 -0.022398
C5    C     C_R   0.494119 0.496406 0.969138 -0.061415
C6    C     C_R   0.550125 0.412651 0.945069 -0.008097
C7    C     C_R   0.602794 0.327788 0.980496 -0.154830
C8    C     C_R   0.600555 0.325728 0.039505 -0.158087
C9    C     C_R   0.445368 0.581157 0.874265 0.519293
C10   C     C_R   0.552221 0.415895 0.885899 0.506456
C11   C     C_R   0.436845 0.439908 0.752887 -0.103519
C12   C     C_R   0.501004 0.501366 0.610475 0.876510
C13   C     C_R   0.437110 0.441344 0.693814 -0.258347
C14   C     C_R   0.503359 0.502376 0.673050 -0.056883
C15   C     C_R   0.569514 0.563526 0.712256 0.088215
C16   C     C_R   0.568629 0.560974 0.771801 -0.133144
C17   C     C_R   0.502473 0.499569 0.791738 0.292921
C18   C     C_R   0.590187 0.502243 0.247989 -0.101060
C19   C     C_R   0.592353 0.505034 0.307483 -0.231177
C20   C     C_R   0.496612 0.496066 0.326865 -0.037977
C21   C     C_R   0.399030 0.483597 0.285981 -0.207589
C22   C     C_R   0.397153 0.480971 0.226476 -0.098354
C23   C     C_R   0.561153 0.309043 0.506931 0.885070
C24   C     C_R   0.492610 0.490534 0.207558 0.317403
C25   C     C_R   0.723052 0.056356 0.489093 0.157541
C26   C     C_R   0.598101 0.200124 0.509260 -0.099005
C27   C     C_R   0.308685 0.834233 0.512688 -0.238482
C28   C     C_R   0.296269 0.930248 0.537761 0.118089
C29   C     C_R   0.379075 0.993094 0.541737 0.072485
C30   C     C_R   0.464833 0.966715 0.511047 0.051671
C31   C     C_R   0.474795 0.869652 0.485337 0.048938
C32   C     C_R   0.543638 0.031459 0.506512 0.072622
C33   C     C_R   0.640384 0.993369 0.487271 0.108494
C34   C     C_R   0.498875 0.499080 0.389444 0.852739
C35   C     C_R   0.646695 0.897665 0.461518 -0.204941
C36   C     C_R   0.560778 0.840762 0.456363 -0.173586
C37   C     C_R   0.521944 0.135834 0.513476 -0.223860
C38   C     C_R   0.701732 0.159822 0.501208 -0.223817
C39   C     C_R   0.402351 0.800727 0.491722 -0.141738
C40   C     C_R   0.092295 0.336909 0.425897 -0.268044
C41   C     C_R   0.801302 0.624069 0.572655 0.044712
C42   C     C_R   0.909088 0.640745 0.593954 -0.229551
C43   C     C_R   0.990735 0.589021 0.569227 -0.193262
C44   C     C_R   0.964523 0.524684 0.520540 0.017617
C45   C     C_R   0.543442 0.408458 0.123486 0.501061
C46   C     C_R   0.854959 0.503232 0.504418 0.222046
C47   C     C_R   0.042982 0.475437 0.490130 -0.094081
C48   C     C_R   0.013542 0.393761 0.451535 0.163451
C49   C     C_R   0.905637 0.370720 0.438441 0.035242
C50   C     C_R   0.827793 0.426385 0.464115 -0.278496
C51   C     C_R   0.148921 0.504280 0.494260 0.225159
C52   C     C_R   0.197603 0.362152 0.437093 -0.056456
C53   C     C_R   0.436966 0.573703 0.113078 0.515729
C54   C     C_R   0.436713 0.577106 0.053453 -0.033186
C55   C     C_R   0.491989 0.494008 0.028891 -0.020514
C56   C     C_R   0.545653 0.408518 0.064133 -0.007707
H1    H     H_    0.340652 0.726232 0.036849 0.192228
H2    H     H_    0.668778 0.514216 0.338121 0.166305
H3    H     H_    0.324193 0.476366 0.299841 0.167775
H4    H     H_    0.321696 0.471883 0.194996 0.143671
H5    H     H_    0.762605 0.209497 0.499932 0.171524
H6    H     H_    0.714071 0.868757 0.441762 0.187888
H7    H     H_    0.440565 0.169504 0.515847 0.188199
H8    H     H_    0.251246 0.781916 0.515515 0.172848
H9    H     H_    0.564141 0.771799 0.430824 0.170904
H10   H     H_    0.259765 0.317399 0.418723 0.150160
H11   H     H_    0.073473 0.272711 0.397799 0.189002
H12   H     H_    0.737310 0.662248 0.592281 0.148773
H13   H     H_    0.073470 0.596796 0.591191 0.146212
H14   H     H_    0.929781 0.691170 0.630566 0.160753
H15   H     H_    0.746994 0.405449 0.452881 0.213371
H16   H     H_    0.646083 0.262754 0.962787 0.192787
H17   H     H_    0.642226 0.259285 0.065738 0.193646
H18   H     H_    0.385426 0.392739 0.768601 0.146989
H19   H     H_    0.386069 0.393963 0.664358 0.171569
H20   H     H_    0.618221 0.607287 0.802784 0.136177
H21   H     H_    0.663939 0.509902 0.233140 0.143202
N1    N     N_R   0.490160 0.490470 0.146524 -0.359488
N2    N     N_R   0.500423 0.499044 0.852213 -0.360705
N3    N     N_R   0.222200 0.444670 0.469780 -0.095915
N4    N     N_R   0.776960 0.554790 0.529910 -0.129152
O1    O     O_R   0.366740 0.627150 0.485570 -0.587801
O2    O     O_2   0.385720 0.653236 0.137752 -0.553695
O3    O     O_2   0.395113 0.660506 0.838328 -0.528446
O4    O     O_2   0.605888 0.336913 0.862005 -0.552039
O5    O     O_R   0.544830 0.662520 0.504870 -0.623298
O6    O     O_R   0.410930 0.482340 0.574190 -0.625487
O7    O     O_R   0.589010 0.517710 0.593490 -0.590153
O8    O     O_R   0.455170 0.337480 0.495130 -0.626636
O9    O     O_R   0.633260 0.372850 0.514430 -0.631295
O10   O     O_R   0.410990 0.482290 0.406510 -0.612635
O11   O     O_R   0.589070 0.517660 0.425810 -0.646517
O12   O     O_2   0.593889 0.327336 0.158024 -0.554547
Zn1   Zn    Zn3+2 0.381090 0.476380 0.487110 0.955174
Zn2   Zn    Zn3+2 0.618910 0.523620 0.512890 0.942838
I1    I     I_    0.878536 0.003472 0.470919 -0.457984
N5    N     N_3   0.382558 0.075733 0.582492 -0.469612
H22   H     H_    0.387223 0.046093 0.624213 0.218287
H23   H     H_    0.309631 0.126133 0.570395 0.189507
N6    N     N_3   0.205715 0.960707 0.564809 -0.451326
H24   H     H_    0.156201 0.902644 0.562015 0.204400
H25   H     H_    0.156887 0.022497 0.540470 0.211474
N7    N     N_3   0.329463 0.753943 0.924897 -0.372401
H26   H     H_    0.246921 0.762780 0.927080 0.190343
H27   H     H_    0.363417 0.817709 0.944144 0.191623
N8    N     N_3   0.873513 0.292554 0.397318 -0.447643
H28   H     H_    0.810389 0.325818 0.363227 0.199767
H29   H     H_    0.841917 0.238683 0.418417 0.213169
N9    N     N_3   0.178235 0.600949 0.515795 -0.425570
H30   H     H_    0.217863 0.595060 0.560117 0.185000
H31   H     H_    0.111130 0.658523 0.506501 0.175060
N10   N     N_3   0.634588 0.629515 0.691415 -0.437863
H32   H     H_    0.580482 0.687706 0.666398 0.180768
H33   H     H_    0.682416 0.664858 0.726480 0.183420

loop_
_geom_bond_atom_site_label_1
_geom_bond_atom_site_label_2
_ccdc_geom_bond_type
C55   C56   A    
C10   O4    S    
O1    Zn1   S    
C41   C42   A    
C19   C20   A    
C17   N2    S    
C43   C44   A    
C45   O12   S    
C8    C56   A    
N10   H33   S    
N5    H22   S    
C2    H1    S    
C7    C8    A    
C53   C54   A    
C18   C24   A    
C28   C29   A    
C21   H3    S    
N9    H31   S    
C22   H4    S    
C5    C6    A    
N4    Zn2   S    
N8    H28   S    
C15   C16   A    
O6    Zn1   S    
C42   H14   S    
C18   C19   A    
C9    N2    A    
C23   C26   S    
O8    Zn1   S    
C51   N3    A    
C8    H17   S    
N5    H23   S    
C34   O10   A    
C13   H19   S    
C45   C56   A    
C27   C39   A    
C16   C17   A    
C40   H11   S    
C23   O8    A    
C45   N1    A    
C31   C36   A    
C44   C47   A    
C38   H5    S    
C20   C34   S    
C28   N6    S    
O7    Zn2   S    
C43   H13   S    
C13   C14   A    
N10   H32   S    
C37   H7    S    
C44   C46   A    
C41   H12   S    
C19   H2    S    
C12   O7    A    
O9    Zn2   S    
C2    C54   A    
C7    H16   S    
C36   H9    S    
C26   C38   A    
C47   C51   A    
C1    O1    A    
C40   C52   A    
O11   Zn2   S    
C35   C36   A    
C50   H15   S    
C29   C30   A    
C25   C38   A    
C46   N4    A    
C47   C48   A    
C41   N4    A    
N6    H25   S    
C23   O9    A    
N7    H27   S    
C32   C37   A    
C49   N8    S    
C24   N1    S    
C48   C49   A    
C12   C14   S    
C22   C24   A    
C42   C43   A    
N3    Zn1   S    
C3    C4    A    
C27   C28   A    
C52   H10   S    
C3    N7    S    
C1    O5    A    
C40   C48   A    
C54   C55   A    
C11   C17   A    
C12   O6    A    
C16   H20   S    
C15   N10   S    
C5    C55   A    
C4    C5    A    
C11   H18   S    
C6    C10   A    
C10   N2    A    
C26   C37   A    
C6    C7    A    
C46   C50   A    
C29   N5    S    
C53   O2    S    
C32   C33   A    
C2    C3    A    
C52   N3    A    
N9    H30   S    
O10   Zn1   S    
C30   C32   A    
C11   C13   A    
C30   C31   A    
N8    H29   S    
O5    Zn2   S    
C18   H21   S    
N6    H24   S    
C33   C35   A    
C31   C39   A    
C53   N1    A    
C35   H6    S    
C34   O11   A    
C27   H8    S    
C1    C39   S    
C9    O3    S    
C20   C21   A    
C25   I1    S    
C51   N9    S    
C49   C50   A    
N7    H26   S    
C14   C15   A    
C4    C9    A    
C21   C22   A    
C25   C33   A    
