data_mof_unit_27212.cif
_audit_creation_date              2012-12-11T16:57:13-0500
_audit_creation_method            fapswitch 2.2
_symmetry_space_group_name_H-M    P1
_symmetry_Int_Tables_number       1
_space_group_crystal_system       triclinic
_cell_length_a                    14.579632
_cell_length_b                    16.154965
_cell_length_c                    6.976534
_cell_angle_alpha                 89.999871
_cell_angle_beta                  98.780238
_cell_angle_gamma                 89.999986
_cell_volume                      1623.95048782

loop_
_atom_site_label
_atom_site_type_symbol
_atom_type_description
_atom_site_fract_x
_atom_site_fract_y
_atom_site_fract_z
_atom_type_partial_charge
O1    O     O_R   0.584990 0.413650 0.534420 -0.539538
O2    O     O_R   0.584990 0.586350 0.534420 -0.539538
O3    O     O_R   0.596190 0.585230 0.208380 -0.543884
O4    O     O_R   0.596190 0.414770 0.208380 -0.543883
O5    O     O_R   0.415010 0.586420 0.976930 -0.540630
O6    O     O_R   0.415010 0.413580 0.976930 -0.540628
C1    C     C_R   0.618381 0.614423 0.384130 0.709170
C2    C     C_R   0.618381 0.385577 0.384130 0.709172
O7    O     O_3   0.440560 0.500000 0.319140 -0.369803
V1    V     V_3+5 0.511030 0.500000 0.068070 1.429603
O8    O     O_R   0.403810 0.414840 0.643540 -0.534134
O9    O     O_R   0.403810 0.585160 0.643540 -0.534134
C3    C     C_R   0.381275 0.386763 0.805981 0.752034
C4    C     C_R   0.381274 0.613236 0.805982 0.752032
V2    V     V_3+5 0.488970 0.500000 0.560620 1.456552
O10   O     O_3   0.559440 0.500000 0.859420 -0.383276
H1    H     H_    0.310060 0.682829 0.099076 0.180211
H2    H     H_    0.310051 0.317175 0.099066 0.180211
C5    C     C_2   0.308900 0.677566 0.796728 -0.317612
C6    C     C_2   0.308903 0.322431 0.796727 -0.317624
C7    C     C_2   0.277886 0.705481 0.958303 -0.063169
C8    C     C_2   0.277886 0.294518 0.958299 -0.063175
C9    C     C_2   0.193851 0.817368 0.106384 0.198279
C10   C     C_2   0.193851 0.182632 0.106382 0.198286
C11   C     C_2   0.199994 0.765753 0.952081 0.118233
C12   C     C_2   0.199996 0.234245 0.952076 0.118237
H3    H     H_    0.279764 0.701097 0.654916 0.199870
H4    H     H_    0.279774 0.298896 0.654922 0.199881
C13   C     C_R   0.685242 0.740274 0.569998 0.053183
C14   C     C_R   0.685246 0.259727 0.570001 0.053180
C15   C     C_R   0.684954 0.685087 0.414499 -0.103207
C16   C     C_R   0.684956 0.314914 0.414501 -0.103202
C17   C     C_R   0.751956 0.698023 0.291948 -0.151585
C18   C     C_R   0.751959 0.301981 0.291953 -0.151589
H5    H     H_    0.756114 0.655439 0.174167 0.119465
H6    H     H_    0.756121 0.344569 0.174178 0.119460
C19   C     C_R   0.818188 0.762390 0.328935 -0.102049
C20   C     C_R   0.818192 0.237614 0.328938 -0.102044
H7    H     H_    0.873490 0.767583 0.244357 0.139084
H8    H     H_    0.873497 0.232426 0.244366 0.139072
C21   C     C_R   0.817724 0.817915 0.482853 -0.121947
C22   C     C_R   0.817726 0.182086 0.482853 -0.121937
C23   C     C_R   0.752060 0.803408 0.605895 0.156507
C24   C     C_R   0.752063 0.196593 0.605896 0.156497
C25   C     C_3   0.770865 0.781995 0.816376 0.479321
C26   C     C_3   0.770870 0.218005 0.816377 0.479322
C27   C     C_3   0.693577 0.718210 0.779287 -0.426026
C28   C     C_3   0.693582 0.281790 0.779291 -0.426025
H9    H     H_    0.630002 0.735225 0.840280 0.205527
H10   H     H_    0.630008 0.264775 0.840287 0.205528
H11   H     H_    0.716228 0.653048 0.808433 0.147220
H12   H     H_    0.716235 0.346952 0.808437 0.147218
O11   O     O_R   0.921430 0.915960 0.371040 -0.524264
O12   O     O_R   0.921430 0.084040 0.371040 -0.524260
O13   O     O_R   0.910450 0.087500 0.697310 -0.531369
O14   O     O_R   0.910450 0.912500 0.697310 -0.531370
O15   O     O_R   0.091710 0.087460 0.928430 -0.555581
O16   O     O_R   0.091710 0.912540 0.928430 -0.555584
C29   C     C_R   0.888315 0.114537 0.519934 0.726818
C30   C     C_R   0.888313 0.885464 0.519934 0.726819
O17   O     O_3   0.065970 0.000000 0.586140 -0.374778
V3    V     V_3+5 0.995640 0.000000 0.837400 1.543167
O18   O     O_R   0.103020 0.915700 0.261710 -0.520837
O19   O     O_R   0.103020 0.084300 0.261710 -0.520838
C31   C     C_R   0.123282 0.884431 0.099188 0.700960
C32   C     C_R   0.123283 0.115568 0.099187 0.700964
V4    V     V_3+5 0.017940 0.000000 0.344880 1.565327
O20   O     O_3   0.947330 0.000000 0.046180 -0.333443
C33   C     C_3   0.125643 0.763748 0.774016 -0.757379
H13   H     H_    0.126360 0.704572 0.693512 0.198731
H14   H     H_    0.055769 0.767580 0.816527 0.177002
H15   H     H_    0.136162 0.815285 0.674339 0.251241
C34   C     C_3   0.125650 0.236247 0.774004 -0.757426
H16   H     H_    0.126368 0.295420 0.693514 0.198739
H17   H     H_    0.136178 0.184717 0.674328 0.251252
H18   H     H_    0.055775 0.232410 0.816489 0.177012
Cl1   Cl    Cl    0.275995 0.812086 0.320463 -0.659592
Cl2   Cl    Cl    0.275995 0.187915 0.320460 -0.659597
Cl3   Cl    Cl    0.744706 0.868203 0.959422 -0.549454
Cl4   Cl    Cl    0.744712 0.131796 0.959425 -0.549450
C35   C     C_3   0.867701 0.742873 0.876652 -0.824430
H19   H     H_    0.865446 0.692220 0.982402 0.186512
H20   H     H_    0.894163 0.713554 0.751868 0.180368
H21   H     H_    0.918006 0.790551 0.940337 0.220281
C36   C     C_3   0.867707 0.257125 0.876649 -0.824416
H22   H     H_    0.894169 0.286441 0.751863 0.180363
H23   H     H_    0.865454 0.307779 0.982396 0.186512
H24   H     H_    0.918011 0.209446 0.940337 0.220283

loop_
_geom_bond_atom_site_label_1
_geom_bond_atom_site_label_2
_ccdc_geom_bond_type
O16   V3    S    
C14   C16   A    
O18   C31   A    
O13   C29   A    
O1    C2    A    
C34   H17   S    
C34   H16   S    
O2    C1    A    
O15   C32   A    
O4    C2    A    
C35   H19   S    
O15   V3    S    
C27   H9    S    
C36   H22   S    
C13   C27   S    
C14   C28   S    
C5    C7    D    
C10   C12   D    
C20   C22   A    
O3    C1    A    
V2    O10   S    
O13   V3    S    
C12   C34   S    
C33   H14   S    
O8    V2    S    
C15   C17   A    
O1    V2    S    
C5    H3    S    
O7    V1    S    
C10   C32   S    
C26   C36   S    
C28   H10   S    
H2    C8    S    
C13   C23   A    
C21   C23   A    
C14   C24   A    
C33   H13   S    
C22   C24   A    
C35   H20   S    
O11   C30   A    
C24   C26   S    
C26   C28   S    
O12   C29   A    
C25   C27   S    
O18   V4    S    
C1    C15   S    
C36   H23   S    
V4    O20   S    
C2    C16   S    
O19   V4    S    
C27   H11   S    
O12   V4    S    
C6    H4    S    
H1    C7    S    
O14   C30   A    
O19   C32   A    
C33   H15   S    
O17   V4    S    
O16   C31   A    
O9    V2    S    
C25   Cl3   S    
C9    Cl1   S    
O2    V2    S    
C23   C25   S    
O5    C4    A    
C10   Cl2   S    
O9    C4    A    
C34   H18   S    
O14   V3    S    
C11   C33   S    
O4    V1    S    
C35   H21   S    
C36   H24   S    
C7    C11   S    
C3    C6    S    
C18   C20   A    
C4    C5    S    
C25   C35   S    
C21   C30   S    
C6    C8    D    
C22   C29   S    
O6    V1    S    
V3    O20   S    
C9    C31   S    
O7    V2    S    
O5    V1    S    
C13   C15   A    
O3    V1    S    
V1    O10   S    
O6    C3    A    
C20   H8    S    
O8    C3    A    
C17   H5    S    
C18   H6    S    
C9    C11   D    
C19   C21   A    
O17   V3    S    
O11   V4    S    
C17   C19   A    
C28   H12   S    
C19   H7    S    
C8    C12   S    
C26   Cl4   S    
C16   C18   A    
