data_mof_unit_57551.cif
_audit_creation_date              2013-03-05T16:40:14-0500
_audit_creation_method            fapswitch 2.2
_symmetry_space_group_name_H-M    P1
_symmetry_Int_Tables_number       1
_space_group_crystal_system       triclinic
_cell_length_a                    19.027611
_cell_length_b                    18.444732
_cell_length_c                    8.902474
_cell_angle_alpha                 90.041375
_cell_angle_beta                  90.019688
_cell_angle_gamma                 89.923472
_cell_volume                      3124.40123889

loop_
_atom_site_label
_atom_site_type_symbol
_atom_site_description
_atom_site_fract_x
_atom_site_fract_y
_atom_site_fract_z
_atom_type_partial_charge
O1    O     O_R   0.398180 0.560840 0.499960 -0.578165
O2    O     O_R   0.601820 0.439160 0.500040 -0.604338
O3    O     O_R   0.601820 0.560840 0.500040 -0.575010
O4    O     O_R   0.398180 0.439160 0.499960 -0.601810
C1    C     C_R   0.365359 0.500010 0.497604 1.001565
C2    C     C_R   0.634607 0.499950 0.497358 1.001977
O5    O     O_R   0.500000 0.560800 0.285330 -0.600113
O6    O     O_R   0.500000 0.439200 0.714670 -0.607091
O7    O     O_R   0.500000 0.560800 0.714670 -0.624802
O8    O     O_R   0.500000 0.439200 0.285330 -0.633681
C3    C     C_R   0.499989 0.499987 0.218393 0.952648
C4    C     C_R   0.500034 0.500017 0.781611 0.994916
Zn1   Zn    Zn3+2 0.500000 0.581210 0.500000 1.063407
Zn2   Zn    Zn3+2 0.500000 0.418790 0.500000 1.033519
C5    C     C_1   0.500014 0.499988 0.065344 -0.054003
C6    C     C_1   0.500031 0.500030 0.934674 -0.053302
C7    C     C_R   0.752451 0.456482 0.570417 0.194593
C8    C     C_R   0.261545 0.531212 0.345715 0.188004
C9    C     C_R   0.247628 0.456695 0.571724 0.195763
C10   C     C_R   0.738000 0.531214 0.344581 0.185122
C11   C     C_R   0.823688 0.447059 0.535705 0.216374
C12   C     C_R   0.190637 0.520953 0.309999 0.233643
C13   C     C_R   0.176326 0.447267 0.537417 0.215959
C14   C     C_R   0.808974 0.521131 0.308848 0.232362
C15   C     C_R   0.851451 0.479344 0.405059 -0.243213
C16   C     C_R   0.148379 0.479247 0.406464 -0.243177
C17   C     C_R   0.710092 0.498939 0.475061 -0.345275
C18   C     C_R   0.289772 0.499042 0.475993 -0.347547
C19   C     C_R   0.963451 0.539704 0.453846 -0.097781
C20   C     C_R   0.036582 0.425840 0.315814 -0.002986
C21   C     C_R   0.036149 0.539611 0.454429 -0.098045
C22   C     C_R   0.963483 0.425928 0.315248 -0.004409
H1    H     H_    0.935262 0.583143 0.509600 0.178182
H2    H     H_    0.065038 0.381312 0.264690 0.185862
H3    H     H_    0.064151 0.583015 0.510511 0.178051
H4    H     H_    0.935203 0.381432 0.263806 0.185321
C23   C     C_R   0.072549 0.481948 0.388570 0.157143
C24   C     C_R   0.927272 0.482131 0.387408 0.157055
C25   C     C_R   0.527178 0.725927 0.619511 -0.041720
C26   C     C_R   0.471766 0.273908 0.381867 -0.052301
C27   C     C_R   0.473473 0.726144 0.380162 0.001034
C28   C     C_R   0.528430 0.274094 0.618161 -0.029131
H5    H     H_    0.548609 0.695253 0.712269 0.211108
H6    H     H_    0.449341 0.304462 0.289996 0.207813
H7    H     H_    0.452806 0.695679 0.286450 0.228234
H8    H     H_    0.550883 0.304792 0.709807 0.216822
C29   C     C_R   0.527757 0.802256 0.623514 0.316209
C30   C     C_R   0.471740 0.197583 0.377795 0.319639
C31   C     C_R   0.472979 0.802457 0.376641 0.308894
C32   C     C_R   0.528715 0.197781 0.622474 0.315608
C33   C     C_R   0.500318 0.841799 0.500264 -0.215391
C34   C     C_R   0.500261 0.158231 0.500233 -0.214460
N1    N     N_R   0.500000 0.689440 0.500000 -0.154630
N2    N     N_R   0.500000 0.310560 0.500000 -0.155798
C35   C     C_R   0.561829 0.961829 0.466265 -0.031628
C36   C     C_R   0.438833 0.038192 0.534694 -0.032724
C37   C     C_R   0.438849 0.962002 0.534729 -0.035409
C38   C     C_R   0.561817 0.038021 0.466252 -0.035868
H9    H     H_    0.609765 0.933002 0.438945 0.174968
H10   H     H_    0.390888 0.067013 0.561965 0.174748
H11   H     H_    0.390914 0.933312 0.561991 0.173488
H12   H     H_    0.609744 0.066708 0.438911 0.173273
C39   C     C_R   0.500313 0.077002 0.500425 0.177894
C40   C     C_R   0.500341 0.923025 0.500478 0.178752
N3    N     N_R   0.723022 0.422346 0.701421 0.247420
O9    O     O_R   0.735879 0.354387 0.729561 -0.279989
O10   O     O_R   0.682805 0.458861 0.792408 -0.345183
N4    N     N_R   0.305983 0.570171 0.243965 0.229729
O11   O     O_R   0.324898 0.636146 0.275722 -0.321796
O12   O     O_R   0.318238 0.544247 0.110588 -0.315093
N5    N     N_R   0.277311 0.422774 0.702811 0.251581
O13   O     O_R   0.317534 0.459448 0.793374 -0.339342
O14   O     O_R   0.264607 0.354881 0.731556 -0.285210
N6    N     N_R   0.693148 0.569558 0.242108 0.231484
O15   O     O_R   0.683260 0.544522 0.107116 -0.310416
O16   O     O_R   0.670326 0.634018 0.276197 -0.312853
N7    N     N_R   0.868921 0.409217 0.638675 0.253851
O17   O     O_R   0.870454 0.427529 0.779807 -0.244914
O18   O     O_R   0.907519 0.355376 0.592507 -0.300950
N8    N     N_R   0.161063 0.554882 0.178713 0.251775
O19   O     O_R   0.175193 0.622229 0.147669 -0.263968
O20   O     O_R   0.120245 0.518472 0.088973 -0.290531
N9    N     N_R   0.131274 0.409623 0.640852 0.253538
O21   O     O_R   0.092016 0.356359 0.594877 -0.301281
O22   O     O_R   0.130357 0.427697 0.782144 -0.244823
N10   N     N_R   0.838407 0.555409 0.177949 0.252285
O23   O     O_R   0.879647 0.519386 0.088280 -0.289747
O24   O     O_R   0.823712 0.622702 0.147190 -0.268418
S1    S     S_3+6 0.562956 0.846171 0.783531 0.080110
O25   O     O_2   0.632606 0.879082 0.742986 -0.239583
O26   O     O_2   0.513819 0.905125 0.834425 -0.222449
O27   O     O_3   0.574592 0.786436 0.924113 -0.503167
H13   H     H_    0.593213 0.815473 0.008852 0.417398
S2    S     S_3+6 0.436234 0.153493 0.218253 0.075940
O28   O     O_2   0.485111 0.094282 0.167455 -0.222128
O29   O     O_2   0.366490 0.120930 0.259255 -0.240023
O30   O     O_3   0.424728 0.213051 0.077301 -0.513145
H14   H     H_    0.407563 0.183657 0.991684 0.416021
S3    S     S_3+6 0.438059 0.846600 0.216647 0.089360
O31   O     O_2   0.368544 0.880053 0.257118 -0.235234
O32   O     O_2   0.487496 0.905161 0.165994 -0.223207
O33   O     O_3   0.426196 0.786931 0.075919 -0.496085
H15   H     H_    0.407646 0.816081 0.991288 0.412772
S4    S     S_3+6 0.564590 0.153973 0.781938 0.083548
O34   O     O_2   0.516099 0.094647 0.833001 -0.223344
O35   O     O_2   0.634491 0.121615 0.740720 -0.234233
O36   O     O_3   0.575868 0.213722 0.922746 -0.508035
H16   H     H_    0.593081 0.184447 0.008474 0.412192

loop_
_geom_bond_atom_site_label_1
_geom_bond_atom_site_label_2
_geom_bond_distance
_ccdc_geom_bond_type
C38   H12   1.082805 S    
C32   S4    1.770225 S    
C35   H9    1.082802 S    
C9    N5    1.439440 S    
O3    C2    1.284224 A    
S4    O35   1.502604 D    
O30   H14   0.990591 S    
N7    O17   1.301130 A    
O5    C3    1.269754 A    
N6    O16   1.300934 A    
N9    O21   1.300722 A    
O1    C1    1.284964 A    
C22   H4    1.083203 S    
C30   C34   1.417437 A    
N10   O24   1.301255 A    
C8    N4    1.433505 S    
C5    C6    1.163291 T    
C19   H1    1.083736 S    
C36   C37   1.405300 A    
C28   H8    1.080972 S    
C13   C16   1.410517 A    
O7    Zn1   1.948086 S    
C3    C5    1.362515 S    
C4    C6    1.362634 S    
N4    O11   1.300340 A    
N3    O10   1.301382 A    
C19   C24   1.397193 A    
C32   C34   1.417415 A    
O36   H16   0.990591 S    
C22   C24   1.399824 A    
S1    O26   1.502900 D    
O3    Zn1   1.972994 S    
C2    C17   1.450108 S    
C29   S1    1.770068 S    
O2    C2    1.284094 A    
C27   C31   1.407967 A    
S4    O34   1.503014 D    
Zn1   N1    1.996271 S    
N7    O18   1.300846 A    
N6    O15   1.300825 A    
C20   H2    1.083185 S    
C7    C17   1.407947 A    
C10   C14   1.399665 A    
C8    C18   1.409035 A    
C14   C15   1.407035 A    
N8    O20   1.301016 A    
O8    Zn2   1.948087 S    
N5    O14   1.301310 A    
N10   O23   1.301047 A    
N8    O19   1.301218 A    
C29   C33   1.417107 A    
S2    O30   1.682388 S    
C31   C33   1.416977 A    
C7    C11   1.400919 A    
C36   H10   1.082801 S    
C20   C23   1.399821 A    
C9    C13   1.401589 A    
C15   C24   1.452259 S    
C31   S3    1.769959 S    
C1    C18   1.451122 S    
S3    O31   1.502640 D    
C26   H6    1.080914 S    
O6    C4    1.269855 A    
C35   C40   1.405931 A    
C36   C39   1.405962 A    
C10   N6    1.435114 S    
S2    O28   1.503022 D    
S1    O27   1.682387 S    
S2    O29   1.502606 D    
C9    C18   1.408028 A    
C27   N1    1.360530 A    
C13   N9    1.438035 S    
C28   C32   1.408138 A    
Zn2   N2    1.996271 S    
C30   S2    1.770364 S    
C26   N2    1.360584 A    
C21   H3    1.083724 S    
O1    Zn1   1.973979 S    
C37   C40   1.405883 A    
C25   C29   1.408360 A    
C38   C39   1.405964 A    
C26   C30   1.408250 A    
C11   C15   1.410202 A    
O6    Zn2   1.947553 S    
S3    O32   1.502872 D    
C8    C12   1.399141 A    
C33   C40   1.498203 S    
O4    C1    1.283864 A    
C34   C39   1.498254 S    
C25   H5    1.080789 S    
C16   C23   1.452372 S    
C37   H11   1.082813 S    
C10   C17   1.409953 A    
C7    N3    1.439661 S    
N9    O22   1.301164 A    
C12   N8    1.440132 S    
N5    O13   1.301358 A    
C19   C21   1.383270 A    
C28   N2    1.360599 A    
C20   C22   1.390898 A    
C25   N1    1.360820 A    
O27   H13   0.990568 S    
O4    Zn2   1.972994 S    
O33   H15   0.990557 S    
O2    Zn2   1.973979 S    
O7    C4    1.270045 A    
O8    C3    1.270108 A    
C21   C23   1.397174 A    
O5    Zn1   1.947554 S    
S3    O33   1.682346 S    
N4    O12   1.300754 A    
N3    O9    1.301304 A    
C12   C16   1.406705 A    
C35   C38   1.405345 A    
C11   N7    1.437724 S    
C27   H7    1.079853 S    
S1    O25   1.502639 D    
C14   N10   1.440085 S    
S4    O36   1.682371 S    
