data_mof_unit_6286.cif
_audit_creation_date              2012-12-11T15:08:57-0500
_audit_creation_method            fapswitch 2.2
_symmetry_space_group_name_H-M    P1
_symmetry_Int_Tables_number       1
_space_group_crystal_system       triclinic
_cell_length_a                    19.589667
_cell_length_b                    11.331734
_cell_length_c                    18.682839
_cell_angle_alpha                 90.383726
_cell_angle_beta                  91.086939
_cell_angle_gamma                 90.088763
_cell_volume                      4146.4629864

loop_
_atom_site_label
_atom_site_type_symbol
_atom_type_description
_atom_site_fract_x
_atom_site_fract_y
_atom_site_fract_z
_atom_type_partial_charge
C1    C     C_R   0.274356 0.039908 0.856120 0.546977
C2    C     C_R   0.725993 0.039592 0.144415 0.545668
C3    C     C_R   0.774356 0.539908 0.856120 0.546977
C4    C     C_R   0.225993 0.539592 0.144415 0.545669
C5    C     C_3   0.522217 0.725834 0.961931 -0.105732
C6    C     C_3   0.484489 0.717577 0.032823 -0.105512
C7    C     C_3   0.022217 0.225834 0.961931 -0.105732
C8    C     C_3   0.984489 0.217577 0.032823 -0.105513
C9    C     C_3   0.313121 0.535233 0.044948 -0.244560
C10   C     C_3   0.694143 0.513015 0.960088 -0.240099
C11   C     C_3   0.813121 0.035233 0.044948 -0.244561
C12   C     C_3   0.194143 0.013015 0.960088 -0.240099
C13   C     C_3   0.318564 0.548118 0.963209 -0.241875
C14   C     C_3   0.692336 0.513862 0.042577 -0.248008
C15   C     C_3   0.818563 0.048117 0.963209 -0.241876
C16   C     C_3   0.192336 0.013862 0.042577 -0.248008
C17   C     C_3   0.185829 0.504955 0.020155 -0.239662
C18   C     C_3   0.826106 0.526851 0.977666 -0.218138
C19   C     C_3   0.685829 0.004955 0.020155 -0.239661
C20   C     C_3   0.326106 0.026851 0.977666 -0.218138
C21   C     C_3   0.232075 0.700880 0.055957 -0.255484
C22   C     C_3   0.755320 0.699090 0.948504 -0.257167
C23   C     C_3   0.732075 0.200880 0.055956 -0.255485
C24   C     C_3   0.255320 0.199089 0.948504 -0.257167
C25   C     C_3   0.240042 0.569416 0.068527 0.049559
C26   C     C_3   0.762011 0.568103 0.933306 0.045573
C27   C     C_3   0.740042 0.069416 0.068527 0.049559
C28   C     C_3   0.262011 0.068103 0.933306 0.045572
C29   C     C_3   0.254624 0.612401 0.931528 0.050645
C30   C     C_3   0.747749 0.600349 0.072055 0.055609
C31   C     C_3   0.754624 0.112401 0.931528 0.050646
C32   C     C_3   0.247749 0.100349 0.072055 0.055609
C33   C     C_3   0.189435 0.539428 0.940292 -0.114062
C34   C     C_3   0.819633 0.552834 0.058692 -0.114757
C35   C     C_3   0.689435 0.039428 0.940292 -0.114062
C36   C     C_3   0.319633 0.052834 0.058692 -0.114758
C37   C     C_3   0.240252 0.724996 0.975972 -0.250775
C38   C     C_3   0.741183 0.714848 0.028998 -0.249605
C39   C     C_3   0.740252 0.224996 0.975972 -0.250775
C40   C     C_3   0.241183 0.214848 0.028998 -0.249605
C41   C     C_3   0.505948 0.706901 0.460348 -0.240836
C42   C     C_3   0.492221 0.706735 0.538354 -0.242378
C43   C     C_3   0.005962 0.206902 0.460352 -0.240841
C44   C     C_3   0.992231 0.206739 0.538358 -0.242377
C45   C     C_R   0.443301 0.816933 0.861965 0.542912
C46   C     C_R   0.556298 0.816603 0.137738 0.549829
C47   C     C_R   0.943301 0.316933 0.861965 0.542912
C48   C     C_R   0.056297 0.316603 0.137739 0.549833
C49   C     C_3   0.573179 0.889854 0.493199 -0.291230
C50   C     C_3   0.424373 0.888224 0.506687 -0.290933
C51   C     C_3   0.073185 0.389863 0.493204 -0.291236
C52   C     C_3   0.924379 0.388219 0.506688 -0.290932
C53   C     C_3   0.460278 0.910106 0.434893 -0.108446
C54   C     C_3   0.537445 0.910507 0.565157 -0.107326
C55   C     C_3   0.960283 0.410100 0.434895 -0.108432
C56   C     C_3   0.037446 0.410519 0.565159 -0.107333
C57   C     C_3   0.525008 0.832327 0.435374 0.029888
C58   C     C_3   0.472907 0.831607 0.564256 0.028718
C59   C     C_3   0.025016 0.332329 0.435377 0.029883
C60   C     C_3   0.972912 0.331609 0.564257 0.028720
C61   C     C_3   0.183925 0.654391 0.458645 -0.250085
C62   C     C_3   0.817390 0.652398 0.541445 -0.247904
C63   C     C_3   0.683926 0.154398 0.458644 -0.250088
C64   C     C_3   0.317387 0.152401 0.541445 -0.247902
C65   C     C_3   0.182242 0.652900 0.538513 -0.233040
C66   C     C_3   0.818511 0.651634 0.461412 -0.233795
C67   C     C_3   0.682240 0.152898 0.538513 -0.233043
C68   C     C_3   0.318507 0.151642 0.461413 -0.233784
C69   C     C_3   0.237679 0.449691 0.472615 -0.224394
C70   C     C_3   0.759669 0.449486 0.525701 -0.225091
C71   C     C_3   0.737678 0.949703 0.472612 -0.224407
C72   C     C_3   0.259669 0.949482 0.525701 -0.225098
C73   C     C_3   0.309489 0.623791 0.447667 -0.130595
C74   C     C_3   0.691816 0.627323 0.553345 -0.131244
C75   C     C_3   0.809492 0.123798 0.447667 -0.130585
C76   C     C_3   0.191813 0.127322 0.553343 -0.131254
C77   C     C_3   0.239774 0.568354 0.431036 0.056534
C78   C     C_3   0.760490 0.568078 0.568752 0.055823
C79   C     C_3   0.739777 0.068364 0.431034 0.056530
C80   C     C_3   0.260489 0.068078 0.568751 0.055823
C81   C     C_3   0.249314 0.597776 0.569819 0.050677
C82   C     C_3   0.750572 0.598775 0.430165 0.051057
C83   C     C_3   0.749315 0.097780 0.569819 0.050680
C84   C     C_3   0.250572 0.098771 0.430164 0.051066
C85   C     C_3   0.243684 0.466007 0.555217 -0.266079
C86   C     C_3   0.754154 0.466770 0.443365 -0.265571
C87   C     C_3   0.743692 0.966011 0.555214 -0.266077
C88   C     C_3   0.254169 0.966766 0.443363 -0.265589
C89   C     C_R   0.263845 0.647937 0.856040 0.552565
C90   C     C_R   0.739035 0.636275 0.147827 0.549640
C91   C     C_R   0.763845 0.147937 0.856040 0.552565
C92   C     C_R   0.239035 0.136275 0.147827 0.549640
C93   C     C_3   0.314769 0.635815 0.530339 -0.221122
C94   C     C_3   0.686213 0.639862 0.470749 -0.222842
C95   C     C_3   0.814768 0.135831 0.530339 -0.221122
C96   C     C_3   0.186201 0.139824 0.470745 -0.222816
C97   C     C_R   0.273645 0.041714 0.645322 0.549616
C98   C     C_R   0.726663 0.042658 0.354343 0.546644
C99   C     C_R   0.773645 0.541714 0.645322 0.549613
C100  C     C_R   0.226661 0.542653 0.354345 0.546648
C101  C     C_R   0.443853 0.820454 0.637672 0.542215
C102  C     C_R   0.554892 0.821207 0.362334 0.543600
C103  C     C_R   0.943855 0.320454 0.637672 0.542214
C104  C     C_R   0.054897 0.321207 0.362334 0.543588
C105  C     C_R   0.259087 0.635109 0.645756 0.553089
C106  C     C_R   0.740742 0.635887 0.354411 0.548452
C107  C     C_R   0.759087 0.135110 0.645756 0.553088
C108  C     C_R   0.240742 0.135885 0.354410 0.548454
C109  C     C_3   0.477127 0.909992 0.037254 -0.093660
C110  C     C_3   0.515492 0.918082 0.965878 -0.116408
C111  C     C_3   0.977127 0.409992 0.037254 -0.093661
C112  C     C_3   0.015492 0.418082 0.965878 -0.116409
C113  C     C_3   0.432272 0.808491 0.005924 -0.147281
C114  C     C_3   0.567184 0.825330 0.992590 -0.168011
C115  C     C_3   0.932271 0.308491 0.005924 -0.147281
C116  C     C_3   0.067184 0.325330 0.992591 -0.168011
C117  C     C_3   0.470994 0.818630 0.935604 0.050726
C118  C     C_3   0.528828 0.818478 0.063452 0.054716
C119  C     C_3   0.970994 0.318630 0.935604 0.050727
C120  C     C_3   0.028827 0.318478 0.063453 0.054716
Cr1   Cr    Cr6+3 0.229620 0.836040 0.749110 1.031067
Cr2   Cr    Cr6+3 0.770380 0.836040 0.250890 1.030940
Cr3   Cr    Cr6+3 0.729620 0.336040 0.749110 1.031063
Cr4   Cr    Cr6+3 0.270380 0.336040 0.250890 1.030943
Cr5   Cr    Cr6+3 0.387630 0.990680 0.750730 1.019888
Cr6   Cr    Cr6+3 0.612370 0.990680 0.249270 1.020042
Cr7   Cr    Cr6+3 0.887630 0.490680 0.750730 1.019889
Cr8   Cr    Cr6+3 0.112370 0.490680 0.249270 1.020041
Cr9   Cr    Cr6+3 0.386020 0.676590 0.749210 1.022764
Cr10  Cr    Cr6+3 0.613980 0.676590 0.250790 1.019944
Cr11  Cr    Cr6+3 0.886020 0.176590 0.749210 1.022767
Cr12  Cr    Cr6+3 0.113980 0.176590 0.250790 1.019941
H1    H     H_    0.378781 0.786391 0.015789 0.109532
H2    H     H_    0.618495 0.821232 0.972837 0.114030
H3    H     H_    0.878781 0.286391 0.015789 0.109532
H4    H     H_    0.118495 0.321232 0.972838 0.114029
H5    H     H_    0.180732 0.730558 0.073204 0.135522
H6    H     H_    0.801952 0.748237 0.933152 0.132929
H7    H     H_    0.680732 0.230558 0.073204 0.135522
H8    H     H_    0.301951 0.248237 0.933152 0.132929
H9    H     H_    0.270587 0.749621 0.087865 0.154941
H10   H     H_    0.711670 0.731690 0.917264 0.154841
H11   H     H_    0.770587 0.249621 0.087864 0.154942
H12   H     H_    0.211671 0.231690 0.917264 0.154842
H13   H     H_    0.278628 0.791013 0.966302 0.104333
H14   H     H_    0.687974 0.739235 0.037810 0.100783
H15   H     H_    0.778628 0.291013 0.966302 0.104333
H16   H     H_    0.187974 0.239235 0.037809 0.100783
H17   H     H_    0.190416 0.758549 0.957776 0.125706
H18   H     H_    0.776211 0.782884 0.050433 0.136282
H19   H     H_    0.690416 0.258549 0.957776 0.125706
H20   H     H_    0.276211 0.282884 0.050433 0.136282
H21   H     H_    0.633463 0.022008 0.039732 0.129111
H22   H     H_    0.372298 0.074435 0.959180 0.126566
H23   H     H_    0.133463 0.522008 0.039732 0.129111
H24   H     H_    0.872298 0.574434 0.959180 0.126565
H25   H     H_    0.143651 0.594958 0.929075 0.118246
H26   H     H_    0.857509 0.623362 0.072325 0.122251
H27   H     H_    0.643651 0.094958 0.929075 0.118245
H28   H     H_    0.357509 0.123362 0.072325 0.122251
H29   H     H_    0.543661 0.638359 0.449173 0.141029
H30   H     H_    0.454766 0.637768 0.549203 0.140373
H31   H     H_    0.043685 0.138374 0.449182 0.141012
H32   H     H_    0.954778 0.137767 0.549205 0.140377
H33   H     H_    0.459805 0.681537 0.430403 0.181800
H34   H     H_    0.538532 0.682316 0.567825 0.183228
H35   H     H_    0.959823 0.181523 0.430405 0.181811
H36   H     H_    0.038541 0.182328 0.567832 0.183227
H37   H     H_    0.613352 0.828822 0.506889 0.107455
H38   H     H_    0.384394 0.827116 0.491966 0.107147
H39   H     H_    0.113359 0.328838 0.506905 0.107455
H40   H     H_    0.884403 0.327104 0.491968 0.107153
H41   H     H_    0.462577 0.989579 0.068066 0.130949
H42   H     H_    0.527987 0.001483 0.938189 0.122182
H43   H     H_    0.962576 0.489579 0.068066 0.130949
H44   H     H_    0.027987 0.501483 0.938189 0.122182
H45   H     H_    0.404579 0.970925 0.527650 0.113136
H46   H     H_    0.592005 0.973945 0.473082 0.111185
H47   H     H_    0.904584 0.470920 0.527649 0.113125
H48   H     H_    0.092016 0.473948 0.473085 0.111198
H49   H     H_    0.169007 0.741750 0.556935 0.154463
H50   H     H_    0.832316 0.740681 0.443975 0.154863
H51   H     H_    0.668999 0.241744 0.556937 0.154473
H52   H     H_    0.332310 0.240688 0.443976 0.154857
H53   H     H_    0.137985 0.600284 0.556493 0.124036
H54   H     H_    0.861969 0.597926 0.442501 0.125146
H55   H     H_    0.637986 0.100272 0.556488 0.124034
H56   H     H_    0.361968 0.097944 0.442503 0.125139
H57   H     H_    0.692354 0.905420 0.454355 0.093826
H58   H     H_    0.302738 0.898627 0.543345 0.093485
H59   H     H_    0.192367 0.405369 0.454348 0.093817
H60   H     H_    0.802749 0.398651 0.543334 0.093478
H61   H     H_    0.699745 0.927093 0.581502 0.137155
H62   H     H_    0.297567 0.926053 0.416757 0.137460
H63   H     H_    0.199732 0.427101 0.581501 0.137156
H64   H     H_    0.797542 0.426040 0.416748 0.137451
H65   H     H_    0.313115 0.711442 0.421976 0.106694
H66   H     H_    0.689959 0.715254 0.579657 0.109579
H67   H     H_    0.813119 0.211446 0.421972 0.106695
H68   H     H_    0.189960 0.215264 0.579641 0.109568
H69   H     H_    0.540664 0.648684 0.931033 0.132306
H70   H     H_    0.472211 0.633334 0.059712 0.126964
H71   H     H_    0.040665 0.148685 0.931033 0.132306
H72   H     H_    0.972211 0.133334 0.059712 0.126964
H73   H     H_    0.327030 0.723353 0.549258 0.088138
H74   H     H_    0.676832 0.728539 0.453552 0.088060
H75   H     H_    0.827013 0.223377 0.549255 0.088133
H76   H     H_    0.176770 0.228482 0.453521 0.088068
H77   H     H_    0.356272 0.578103 0.550480 0.136225
H78   H     H_    0.643233 0.585388 0.450327 0.136076
H79   H     H_    0.856276 0.078139 0.550484 0.136228
H80   H     H_    0.143239 0.085282 0.450336 0.136066
H81   H     H_    0.289803 0.422499 0.577509 0.118678
H82   H     H_    0.707278 0.425403 0.420489 0.119345
H83   H     H_    0.789817 0.922509 0.577496 0.118687
H84   H     H_    0.207305 0.925377 0.420473 0.119322
H85   H     H_    0.327885 0.445080 0.060678 0.127695
H86   H     H_    0.683145 0.427611 0.936847 0.136557
H87   H     H_    0.827885 0.945080 0.060678 0.127695
H88   H     H_    0.183145 0.927611 0.936847 0.136558
H89   H     H_    0.350971 0.594013 0.072375 0.131401
H90   H     H_    0.650281 0.565805 0.939523 0.115621
H91   H     H_    0.850971 0.094014 0.072375 0.131401
H92   H     H_    0.150281 0.065805 0.939523 0.115621
H93   H     H_    0.365932 0.597734 0.951347 0.131495
H94   H     H_    0.640342 0.540954 0.059084 0.137277
H95   H     H_    0.865932 0.097734 0.951346 0.131496
H96   H     H_    0.140343 0.040954 0.059084 0.137277
H97   H     H_    0.323143 0.459517 0.937939 0.128557
H98   H     H_    0.701561 0.425260 0.064219 0.124506
H99   H     H_    0.823143 0.959516 0.937939 0.128557
H100  H     H_    0.201561 0.925260 0.064219 0.124506
O1    O     O_R   0.214130 0.708570 0.829890 -0.524811
O2    O     O_R   0.785870 0.708570 0.170110 -0.528143
O3    O     O_R   0.714130 0.208570 0.829890 -0.524812
O4    O     O_R   0.285870 0.208570 0.170110 -0.528143
O5    O     O_R   0.446360 0.919990 0.675230 -0.491745
O6    O     O_R   0.553640 0.919990 0.324770 -0.490438
O7    O     O_R   0.946360 0.419990 0.675230 -0.491745
O8    O     O_R   0.053640 0.419990 0.324770 -0.490437
O9    O     O_R   0.457170 0.717300 0.668380 -0.497499
O10   O     O_R   0.542830 0.717300 0.331620 -0.499804
O11   O     O_R   0.957170 0.217300 0.668380 -0.497500
O12   O     O_R   0.042830 0.217300 0.331620 -0.499798
O13   O     O_R   0.320870 0.624890 0.673130 -0.521381
O14   O     O_R   0.679130 0.624890 0.326870 -0.523294
O15   O     O_R   0.820870 0.124890 0.673130 -0.521380
O16   O     O_R   0.179130 0.124890 0.326870 -0.523297
O17   O     O_3   0.334430 0.834430 0.749680 -0.322633
O18   O     O_3   0.665570 0.834430 0.250320 -0.317541
O19   O     O_3   0.834430 0.334430 0.749680 -0.322631
O20   O     O_3   0.165570 0.334430 0.250320 -0.317545
O21   O     O_R   0.236050 0.959150 0.825270 -0.510574
O22   O     O_R   0.763950 0.959150 0.174730 -0.508354
O23   O     O_R   0.736050 0.459150 0.825270 -0.510575
O24   O     O_R   0.263950 0.459150 0.174730 -0.508353
O25   O     O_R   0.332100 0.076650 0.832310 -0.526887
O26   O     O_R   0.667900 0.076650 0.167690 -0.531352
O27   O     O_R   0.832100 0.576650 0.832310 -0.526887
O28   O     O_R   0.167900 0.576650 0.167690 -0.531351
O29   O     O_R   0.446500 0.918620 0.826240 -0.489357
O30   O     O_R   0.553500 0.918620 0.173760 -0.488525
O31   O     O_R   0.946500 0.418620 0.826240 -0.489356
O32   O     O_R   0.053500 0.418620 0.173760 -0.488527
O33   O     O_R   0.457310 0.715830 0.831280 -0.506308
O34   O     O_R   0.542690 0.715830 0.168720 -0.502211
O35   O     O_R   0.957310 0.215830 0.831280 -0.506307
O36   O     O_R   0.042690 0.215830 0.168720 -0.502213
O37   O     O_R   0.321000 0.623520 0.824130 -0.518647
O38   O     O_R   0.679000 0.623520 0.175870 -0.523532
O39   O     O_R   0.821000 0.123520 0.824130 -0.518646
O40   O     O_R   0.179000 0.123520 0.175870 -0.523532
O41   O     O_R   0.213990 0.710040 0.667000 -0.516206
O42   O     O_R   0.786010 0.710040 0.333000 -0.516677
O43   O     O_R   0.713990 0.210040 0.667000 -0.516208
O44   O     O_R   0.286010 0.210040 0.333000 -0.516675
O45   O     O_R   0.235920 0.960520 0.674260 -0.486393
O46   O     O_R   0.764080 0.960520 0.325740 -0.487117
O47   O     O_R   0.735920 0.460520 0.674260 -0.486399
O48   O     O_R   0.264080 0.460520 0.325740 -0.487114
O49   O     O_R   0.331960 0.078120 0.669410 -0.536891
O50   O     O_R   0.668040 0.078120 0.330590 -0.537676
O51   O     O_R   0.831960 0.578120 0.669410 -0.536890
O52   O     O_R   0.168040 0.578120 0.330590 -0.537677
C121  C     C_1   0.582751 0.886964 0.628049 0.191343
N1    N     N_1   0.617012 0.868137 0.677816 -0.249555
C122  C     C_1   0.415499 0.885893 0.371466 0.189787
N2    N     N_1   0.381631 0.866573 0.321286 -0.255247
C123  C     C_1   0.082749 0.386988 0.628057 0.191341
N3    N     N_1   0.117007 0.368170 0.677827 -0.249537
C124  C     C_1   0.915501 0.385883 0.371470 0.189801
N4    N     N_1   0.881631 0.366559 0.321292 -0.255256
H101  H     H_    0.475047 0.004896 0.431953 0.117616
H102  H     H_    0.522323 0.005041 0.569062 0.118854
H103  H     H_    0.975049 0.504891 0.431953 0.117616
H104  H     H_    0.022320 0.505051 0.569060 0.118852
H105  H     H_    0.131164 0.637303 0.438883 0.148217
H106  H     H_    0.869991 0.634884 0.561115 0.146564
H107  H     H_    0.631165 0.137308 0.438882 0.148223
H108  H     H_    0.369988 0.134889 0.561115 0.146562
H109  H     H_    0.195521 0.743745 0.440005 0.116547
H110  H     H_    0.807136 0.742063 0.561045 0.117088
H111  H     H_    0.695523 0.243755 0.440007 0.116549
H112  H     H_    0.307133 0.242065 0.561048 0.117085
C125  C     C_1   0.364703 0.547795 0.419807 0.173362
N5    N     N_1   0.406846 0.486490 0.397953 -0.302470
C126  C     C_1   0.635600 0.554418 0.581593 0.173013
N6    N     N_1   0.592921 0.495002 0.603939 -0.300516
C127  C     C_1   0.864705 0.047797 0.419813 0.173373
N7    N     N_1   0.906848 0.986487 0.397964 -0.302482
C128  C     C_1   0.135601 0.054430 0.581610 0.172998
N8    N     N_1   0.092924 0.995025 0.603970 -0.300491
H113  H     H_    0.279278 0.393002 0.455803 0.145420
H114  H     H_    0.715726 0.397662 0.541244 0.143857
H115  H     H_    0.779265 0.892992 0.455791 0.145424
H116  H     H_    0.215714 0.897678 0.541232 0.143849
H117  H     H_    0.696918 0.914238 0.025757 0.100189
H118  H     H_    0.336670 0.936216 0.964838 0.092607
H119  H     H_    0.196918 0.414238 0.025758 0.100188
H120  H     H_    0.836670 0.436216 0.964838 0.092607
C129  C     C_1   0.681936 0.946653 0.885108 0.157839
N9    N     N_1   0.674590 0.879601 0.838582 -0.267163
C130  C     C_1   0.336862 0.954965 0.107308 0.147929
N10   N     N_1   0.351525 0.881620 0.147580 -0.272099
C131  C     C_1   0.181937 0.446653 0.885108 0.157841
N11   N     N_1   0.174591 0.379601 0.838582 -0.267161
C132  C     C_1   0.836862 0.454965 0.107308 0.147929
N12   N     N_1   0.851525 0.381620 0.147580 -0.272101

loop_
_geom_bond_atom_site_label_1
_geom_bond_atom_site_label_2
_ccdc_geom_bond_type
C82   C94   S    
C55   C59   S    
C124  N4    T    
C73   C93   S    
C42   C58   S    
C29   C89   S    
C55   C124  S    
C48   C120  S    
Cr9   O13   S    
C24   H8    S    
C57   C102  S    
C59   C104  S    
Cr8   O28   S    
Cr1   O45   S    
Cr2   O42   S    
C13   H93   S    
C5    C6    S    
Cr10  O38   S    
C109  H41   S    
C96   H76   S    
Cr11  O35   S    
C22   C38   S    
C29   C33   S    
C72   C80   S    
C61   H109  S    
C30   C38   S    
C77   C100  S    
C44   H36   S    
C9    C13   S    
C7    H71   S    
C11   C15   S    
C56   C123  S    
C16   H96   S    
C12   C16   S    
Cr11  O19   S    
C64   H108  S    
C21   H5    S    
C60   C103  S    
C107  O43   A    
C45   O33   A    
C66   H50   S    
C4    O28   A    
C113  H1    S    
C69   H59   S    
C90   O38   A    
C2    O22   A    
C67   H55   S    
C109  C118  S    
C63   C67   S    
Cr9   O17   S    
C50   C53   S    
Cr6   O26   S    
C75   C95   S    
C130  N10   T    
C7    C119  S    
C8    H72   S    
C11   H91   S    
C62   C66   S    
C85   H63   S    
C20   C28   S    
C92   O4    A    
C15   H95   S    
C43   C44   S    
Cr6   O6    S    
C66   C82   S    
C76   C128  S    
C11   C27   S    
C100  O52   A    
C36   C130  S    
C58   C101  S    
Cr2   O2    S    
C66   H54   S    
C19   H21   S    
C17   H23   S    
C18   H24   S    
C47   O35   A    
C104  O8    A    
C68   H52   S    
C3    C26   S    
C84   C88   S    
Cr12  O40   S    
Cr1   O21   S    
C108  O16   A    
C17   C25   S    
Cr5   O17   S    
C19   C35   S    
C76   C96   S    
C32   C92   S    
C3    O27   A    
C48   O32   A    
Cr3   O47   S    
C14   H98   S    
C10   H90   S    
C21   H9    S    
Cr4   O4    S    
C61   C65   S    
C129  N9    T    
C5    C117  S    
C78   C99   S    
C73   C77   S    
C75   C79   S    
C12   H88   S    
C67   C83   S    
C80   C97   S    
C69   C77   S    
C111  C112  S    
C94   H74   S    
C73   C125  S    
C52   H40   S    
C71   C79   S    
C4    C25   S    
Cr4   O48   S    
C7    C8    S    
C54   C121  S    
C32   C36   S    
C24   H12   S    
C5    H69   S    
C53   C122  S    
C91   O3    A    
C49   C57   S    
C40   H20   S    
C70   H60   S    
C89   O1    A    
C97   O45   A    
C38   H14   S    
C52   C60   S    
C86   H64   S    
C99   O47   A    
Cr12  O12   S    
C74   H66   S    
C61   C77   S    
C102  O10   A    
C110  C114  S    
C55   H103  S    
C56   H104  S    
Cr2   O46   S    
C72   H58   S    
Cr3   O43   S    
C110  H42   S    
C20   H118  S    
C81   C105  S    
C61   H105  S    
C30   C34   S    
C101  O5    A    
C69   H113  S    
C87   H61   S    
C10   C14   S    
C34   C132  S    
C116  C120  S    
C20   C36   S    
C7    C116  S    
C86   H82   S    
C97   O49   A    
Cr2   O18   S    
C45   O29   A    
Cr9   O33   S    
C22   H10   S    
C123  N3    T    
C114  H2    S    
C50   C58   S    
C21   C37   S    
C105  O13   A    
C67   H51   S    
C54   H102  S    
C113  C117  S    
C112  H44   S    
Cr5   O49   S    
C94   H78   S    
C31   C91   S    
C74   C78   S    
Cr7   O27   S    
C4    O24   A    
C11   H87   S    
C112  C116  S    
C69   C85   S    
C45   C117  S    
C21   C25   S    
C15   H99   S    
C62   C78   S    
C76   C80   S    
C42   H30   S    
C15   C31   S    
C75   H67   S    
C16   C32   S    
C63   H107  S    
C33   C131  S    
C105  O41   A    
C52   H47   S    
Cr4   O20   S    
Cr10  O10   S    
C115  H3    S    
C82   C106  S    
C75   C127  S    
C68   H56   S    
Cr5   O29   S    
Cr8   O52   S    
C81   C85   S    
C83   C87   S    
Cr7   O7    S    
C96   H80   S    
C41   H29   S    
C41   C42   S    
C74   C94   S    
C18   C26   S    
C30   C90   S    
C23   H11   S    
C9    C25   S    
Cr12  O20   S    
C12   C28   S    
C13   C29   S    
C14   H94   S    
C92   O40   A    
C64   H112  S    
C9    H85   S    
C46   C118  S    
C12   H92   S    
C33   H25   S    
C1    C28   S    
C2    C27   S    
Cr3   O23   S    
C52   C55   S    
C17   H119  S    
C64   C80   S    
C18   H120  S    
C17   C33   S    
C19   H117  S    
C110  C117  S    
C38   H18   S    
C1    O21   A    
C1    O25   A    
C95   H75   S    
C40   H16   S    
C126  N6    T    
C68   C84   S    
C24   C28   S    
C50   H45   S    
C98   O46   A    
C53   C57   S    
Cr12  O16   S    
C63   C79   S    
C82   C86   S    
C56   C60   S    
C115  C119  S    
C62   H110  S    
C121  N1    T    
C65   C81   S    
C122  N2    T    
C46   O34   A    
C50   H38   S    
C71   H57   S    
Cr11  O15   S    
C71   C87   S    
C43   H35   S    
C111  H43   S    
C70   H114  S    
C64   C68   S    
Cr5   O5    S    
C49   H46   S    
C23   H7    S    
C72   H116  S    
C37   H17   S    
C108  O44   A    
Cr2   O22   S    
C112  C119  S    
C98   O50   A    
C116  H4    S    
Cr8   O8    S    
C22   H6    S    
Cr6   O18   S    
C41   C57   S    
C132  N12   T    
C109  C110  S    
C49   H37   S    
Cr9   O9    S    
C44   C60   S    
Cr6   O50   S    
C84   C108  S    
Cr7   O31   S    
Cr8   O32   S    
C131  N11   T    
Cr1   O41   S    
C13   H97   S    
Cr10  O34   S    
C9    H89   S    
Cr11  O39   S    
C103  O7    A    
C125  N5    T    
C22   C26   S    
C29   C37   S    
C87   H83   S    
C44   H32   S    
C42   H34   S    
C43   H31   S    
C128  N8    T    
C63   H111  S    
C39   H19   S    
C5    C114  S    
C70   C78   S    
C79   C98   S    
C106  O42   A    
Cr4   O24   S    
C93   H73   S    
Cr10  O14   S    
C65   H49   S    
C127  N7    T    
Cr6   O30   S    
Cr8   O20   S    
C20   H22   S    
C89   O37   A    
C107  O15   A    
C6    H70   S    
C91   O39   A    
C48   O36   A    
C49   C54   S    
Cr5   O25   S    
C90   O2    A    
C51   C56   S    
C84   C96   S    
Cr7   O51   S    
C8    C115  S    
C83   C107  S    
C41   H33   S    
C103  O11   A    
C23   C27   S    
C101  O9    A    
Cr7   O19   S    
C109  C113  S    
C10   C26   S    
C47   C119  S    
C100  O48   A    
C14   C30   S    
C53   H101  S    
C72   C88   S    
C35   H27   S    
Cr10  O18   S    
C65   H53   S    
C102  O6    A    
C88   H62   S    
C76   H68   S    
C47   O31   A    
C104  O12   A    
C16   H100  S    
C73   H65   S    
C111  C120  S    
C6    C113  S    
Cr3   O19   S    
C85   H81   S    
Cr12  O36   S    
C81   C93   S    
Cr1   O17   S    
C83   C95   S    
C106  O14   A    
C18   C34   S    
C114  C118  S    
C34   H26   S    
C2    O26   A    
C93   H77   S    
C62   H106  S    
Cr3   O3    S    
C51   C59   S    
C35   C129  S    
C51   H48   S    
C70   C86   S    
C19   C27   S    
C10   H86   S    
C54   C58   S    
C8    C120  S    
C88   H84   S    
C43   C59   S    
C95   H79   S    
C46   O30   A    
Cr1   O1    S    
C51   H39   S    
Cr11  O11   S    
Cr4   O44   S    
C23   C39   S    
C24   C40   S    
C31   C39   S    
C31   C35   S    
C32   C40   S    
C3    O23   A    
Cr9   O37   S    
C36   H28   S    
C39   H15   S    
C111  C115  S    
C37   H13   S    
C6    C118  S    
C74   C126  S    
C71   H115  S    
C99   O51   A    
