data_mof_unit_22375.cif
_audit_creation_date              2012-12-10T17:27:48-0500
_audit_creation_method            fapswitch 2.2
_symmetry_space_group_name_H-M    P1
_symmetry_Int_Tables_number       1
_space_group_crystal_system       triclinic
_cell_length_a                    10.627193
_cell_length_b                    12.040375
_cell_length_c                    12.870125
_cell_angle_alpha                 93.11561
_cell_angle_beta                  90.620861
_cell_angle_gamma                 85.954728
_cell_volume                      1640.2304411

loop_
_atom_site_label
_atom_site_type_symbol
_atom_type_description
_atom_site_fract_x
_atom_site_fract_y
_atom_site_fract_z
_atom_type_partial_charge
C1    C     C_R   0.493843 0.521945 0.700135 0.885435
C2    C     C_R   0.412975 0.627308 0.861329 -0.037851
C3    C     C_R   0.541039 0.450304 0.868213 -0.294031
C4    C     C_R   0.739416 0.500295 0.502745 0.859224
C5    C     C_R   0.530188 0.454234 0.974695 0.193552
C6    C     C_R   0.465125 0.547481 0.025389 0.143398
C7    C     C_R   0.455410 0.552530 0.131856 -0.242958
C8    C     C_R   0.570138 0.371094 0.138681 -0.202489
C9    C     C_R   0.582382 0.366015 0.031320 -0.206994
C10   C     C_R   0.356097 0.961082 0.434559 -0.398730
C11   C     C_R   0.371854 0.844588 0.435287 0.163670
C12   C     C_R   0.938137 0.464174 0.597883 0.091470
C13   C     C_R   0.566689 0.855946 0.526080 -0.064588
C14   C     C_R   0.553863 0.974340 0.525657 0.095295
C15   C     C_R   0.447177 0.026619 0.478464 0.097468
C16   C     C_R   0.502842 0.478137 0.299702 0.898303
C17   C     C_R   0.433755 0.143913 0.475707 -0.031092
C18   C     C_R   0.626469 0.158900 0.567295 0.023117
C19   C     C_R   0.643864 0.042103 0.571255 -0.310625
C20   C     C_R   0.260536 0.500422 0.502587 0.911534
C21   C     C_R   0.876761 0.429923 0.686542 -0.196457
C22   C     C_R   0.946336 0.395777 0.773072 -0.139262
C23   C     C_R   0.871638 0.501356 0.509474 -0.087291
C24   C     C_R   0.077306 0.396012 0.773144 -0.125729
C25   C     C_R   0.139141 0.430283 0.686650 -0.128640
C26   C     C_R   0.070037 0.464376 0.597926 0.098025
C27   C     C_2   0.336781 0.712975 0.804636 0.930604
C28   C     C_2   0.268722 0.784036 0.387588 0.446490
C29   C     C_R   0.931271 0.541546 0.425056 -0.213826
C30   C     C_R   0.059822 0.541489 0.424988 -0.221712
C31   C     C_R   0.128246 0.501663 0.509490 -0.098394
C32   C     C_R   0.507898 0.465293 0.188452 -0.064524
C33   C     C_R   0.482470 0.535254 0.811275 -0.132299
C34   C     C_R   0.408782 0.633898 0.969364 -0.257330
H1    H     H_    0.878087 0.570748 0.358238 0.156406
H2    H     H_    0.898384 0.369974 0.840569 0.138250
H3    H     H_    0.131132 0.370419 0.840715 0.145254
H4    H     H_    0.240678 0.431236 0.690704 0.156275
H5    H     H_    0.106341 0.570201 0.357916 0.185915
H6    H     H_    0.407063 0.625005 0.170463 0.214899
H7    H     H_    0.611955 0.303600 0.182763 0.164886
H8    H     H_    0.356473 0.703755 0.009643 0.174965
H9    H     H_    0.214305 0.747075 0.687732 0.339189
H10   H     H_    0.171706 0.810945 0.406764 0.028357
H11   H     H_    0.632165 0.293844 0.992796 0.142135
H12   H     H_    0.594124 0.379904 0.829399 0.157355
H13   H     H_    0.352846 0.184308 0.437736 0.133122
H14   H     H_    0.696794 0.210542 0.601736 0.135621
H15   H     H_    0.272838 0.000497 0.398582 0.143393
H16   H     H_    0.727130 0.005384 0.608988 0.149801
H17   H     H_    0.647462 0.814996 0.563690 0.137748
H18   H     H_    0.775139 0.430658 0.690503 0.139505
N1    N     N_R   0.523130 0.207800 0.519340 -0.105753
N2    N     N_R   0.476870 0.792180 0.480660 -0.110447
O1    O     O_R   0.506170 0.421690 0.658830 -0.637756
O2    O     O_R   0.262429 0.681254 0.719283 -0.811292
O3    O     O_2   0.289247 0.709759 0.320855 -0.598126
O4    O     O_R   0.491330 0.609320 0.646410 -0.598981
O5    O     O_R   0.690660 0.406170 0.506210 -0.631314
O6    O     O_R   0.675810 0.593790 0.493790 -0.626421
O7    O     O_R   0.508670 0.390680 0.353590 -0.626143
O8    O     O_R   0.493830 0.578310 0.341170 -0.570519
O9    O     O_R   0.324190 0.406210 0.506210 -0.640726
O10   O     O_R   0.309340 0.593830 0.493790 -0.577963
O11   O     O_2   0.335158 0.811040 0.835192 -0.629228
Zn1   Zn    Zn3+2 0.509910 0.374720 0.508290 0.940970
Zn2   Zn    Zn3+2 0.490090 0.625280 0.491710 0.997865

loop_
_geom_bond_atom_site_label_1
_geom_bond_atom_site_label_2
_ccdc_geom_bond_type
C20   O10   A    
C18   H14   S    
C7    H6    S    
C9    H11   S    
C6    C7    A    
C27   O11   D    
C25   H4    S    
C16   C32   S    
C22   H2    S    
C29   H1    S    
C3    H12   S    
H9    O2    S    
C12   C23   A    
C16   O8    A    
C2    C27   S    
C6    C34   A    
C2    C34   A    
C20   O9    A    
C24   H3    S    
C1    O1    A    
O9    Zn1   S    
C1    C33   S    
C26   C31   A    
C13   H17   S    
C13   C14   A    
C24   C25   A    
C5    C9    A    
N1    Zn1   S    
C19   H16   S    
C4    O6    A    
C29   C30   A    
C11   N2    A    
C1    O4    A    
O8    Zn2   S    
C5    C6    A    
C23   C29   A    
C2    C33   A    
C21   C22   A    
C30   H5    S    
C13   N2    A    
C10   C15   A    
O5    Zn1   S    
C30   C31   A    
C27   O2    S    
C22   C24   A    
C7    C32   A    
C10   C11   A    
C3    C33   A    
C8    C32   A    
O10   Zn2   S    
C17   N1    A    
O4    Zn2   S    
C11   C28   S    
O1    Zn1   S    
O7    Zn1   S    
C8    H7    S    
C4    O5    A    
C18   C19   A    
C16   O7    A    
C15   C17   A    
C4    C23   S    
C14   C15   A    
C14   C19   A    
N2    Zn2   S    
C18   N1    A    
C25   C26   A    
C28   O3    D    
C10   H15   S    
C12   C21   A    
C28   H10   S    
C21   H18   S    
C17   H13   S    
O6    Zn2   S    
C12   C26   A    
C8    C9    A    
C3    C5    A    
C20   C31   S    
C34   H8    S    
