data_mof_unit_44981.cif
_audit_creation_date              2012-12-11T14:01:28-0500
_audit_creation_method            fapswitch 2.2
_symmetry_space_group_name_H-M    P1
_symmetry_Int_Tables_number       1
_space_group_crystal_system       triclinic
_cell_length_a                    19.094739
_cell_length_b                    10.887062
_cell_length_c                    18.654375
_cell_angle_alpha                 90.330405
_cell_angle_beta                  90.095678
_cell_angle_gamma                 89.625737
_cell_volume                      3877.82369914

loop_
_atom_site_label
_atom_site_type_symbol
_atom_type_description
_atom_site_fract_x
_atom_site_fract_y
_atom_site_fract_z
_atom_type_partial_charge
C1    C     C_R   0.272090 0.044908 0.852469 0.569599
C2    C     C_R   0.728061 0.044314 0.147338 0.560346
C3    C     C_R   0.772090 0.544908 0.852469 0.569599
C4    C     C_R   0.228061 0.544314 0.147338 0.560346
C5    C     C_R   0.489099 0.067587 0.071968 0.136834
C6    C     C_R   0.523607 0.058633 0.925490 0.157407
C7    C     C_R   0.989099 0.567587 0.071968 0.136834
C8    C     C_R   0.023607 0.558633 0.925490 0.157407
C9    C     C_R   0.001543 0.675287 0.033714 -0.116981
C10   C     C_R   0.020606 0.670623 0.962255 -0.099228
C11   C     C_R   0.501543 0.175287 0.033714 -0.116981
C12   C     C_R   0.520606 0.170623 0.962255 -0.099228
C13   C     C_2   0.250522 0.573992 0.919968 0.237415
C14   C     C_2   0.746842 0.576852 0.078229 0.230514
C15   C     C_2   0.750522 0.073992 0.919968 0.237415
C16   C     C_2   0.246842 0.076852 0.078229 0.230514
C17   C     C_2   0.252359 0.594038 0.079721 -0.098067
C18   C     C_2   0.748074 0.599360 0.919165 -0.063149
C19   C     C_2   0.752359 0.094038 0.079721 -0.098067
C20   C     C_2   0.248074 0.099360 0.919165 -0.063149
C21   C     C_2   0.299266 0.531615 0.040095 -0.180312
C22   C     C_2   0.698315 0.545888 0.958053 -0.124281
C23   C     C_2   0.799266 0.031615 0.040095 -0.180312
C24   C     C_2   0.198315 0.045888 0.958053 -0.124281
C25   C     C_2   0.306558 0.557219 0.963631 -0.150660
C26   C     C_2   0.691320 0.579219 0.033398 -0.103094
C27   C     C_2   0.806558 0.057219 0.963631 -0.150660
C28   C     C_2   0.191320 0.079219 0.033398 -0.103094
C29   C     C_2   0.457572 0.823143 0.565374 -0.065508
C30   C     C_2   0.481363 0.844027 0.411982 -0.056679
C31   C     C_2   0.957572 0.323143 0.565374 -0.065507
C32   C     C_2   0.981364 0.344027 0.411982 -0.056679
C33   C     C_2   0.444241 0.753868 0.441760 0.218005
C34   C     C_2   0.416127 0.773243 0.514885 0.172352
C35   C     C_2   0.944240 0.253868 0.441760 0.218005
C36   C     C_2   0.916127 0.273243 0.514885 0.172352
C37   C     C_2   0.239622 0.546286 0.590083 0.254023
C38   C     C_2   0.760931 0.550801 0.410590 0.232917
C39   C     C_2   0.739622 0.046286 0.590082 0.254023
C40   C     C_2   0.260931 0.050801 0.410590 0.232917
C41   C     C_2   0.220838 0.518124 0.434626 -0.054923
C42   C     C_2   0.777285 0.523596 0.565914 -0.023786
C43   C     C_2   0.720838 0.018124 0.434626 -0.054923
C44   C     C_2   0.277285 0.023596 0.565914 -0.023786
C45   C     C_R   0.472271 0.822536 0.852962 0.593608
C46   C     C_R   0.527356 0.823435 0.147353 0.570747
C47   C     C_R   0.972271 0.322536 0.852962 0.593608
C48   C     C_R   0.027356 0.323435 0.147353 0.570747
C49   C     C_2   0.167639 0.524448 0.480931 -0.126348
C50   C     C_2   0.830875 0.538455 0.521086 -0.106518
C51   C     C_2   0.667640 0.024448 0.480931 -0.126347
C52   C     C_2   0.330876 0.038455 0.521086 -0.106518
C53   C     C_2   0.179402 0.567269 0.554370 -0.072681
C54   C     C_2   0.819252 0.578114 0.447787 -0.080249
C55   C     C_2   0.679402 0.067269 0.554370 -0.072682
C56   C     C_2   0.319252 0.078114 0.447787 -0.080249
C57   C     C_R   0.261372 0.635762 0.851673 0.598449
C58   C     C_R   0.738732 0.634839 0.148697 0.530336
C59   C     C_R   0.761372 0.135762 0.851673 0.598449
C60   C     C_R   0.238732 0.134839 0.148697 0.530336
C61   C     C_R   0.290865 0.998260 0.640060 0.559821
C62   C     C_R   0.708120 0.995891 0.359670 0.559670
C63   C     C_R   0.790865 0.498260 0.640060 0.559821
C64   C     C_R   0.208120 0.495891 0.359670 0.559670
C65   C     C_R   0.437084 0.818936 0.639825 0.614312
C66   C     C_R   0.526948 0.825308 0.350448 0.581773
C67   C     C_R   0.937084 0.318936 0.639825 0.614312
C68   C     C_R   0.026948 0.325308 0.350448 0.581773
C69   C     C_R   0.258815 0.630005 0.648987 0.581307
C70   C     C_R   0.741124 0.631543 0.351323 0.537638
C71   C     C_R   0.758815 0.130005 0.648987 0.581307
C72   C     C_R   0.241124 0.131543 0.351323 0.537637
C73   C     C_R   0.496954 0.836099 0.075576 0.022842
C74   C     C_R   0.500633 0.832044 0.925691 0.025643
C75   C     C_R   0.996954 0.336099 0.075576 0.022842
C76   C     C_R   0.000633 0.332044 0.925691 0.025643
C77   C     C_R   0.497490 0.950443 0.037706 0.051827
C78   C     C_R   0.507470 0.947134 0.961865 0.048975
C79   C     C_R   0.997490 0.450443 0.037706 0.051827
C80   C     C_R   0.007470 0.447134 0.961865 0.048975
C81   C     C_R   0.496947 0.723251 0.964985 -0.178355
C82   C     C_R   0.492029 0.725657 0.037851 -0.173607
C83   C     C_R   0.996946 0.223251 0.964985 -0.178355
C84   C     C_R   0.992029 0.225657 0.037851 -0.173607
Cr1   Cr    Cr6+3 0.230530 0.836340 0.748870 1.027502
Cr2   Cr    Cr6+3 0.769470 0.836340 0.251130 1.029860
Cr3   Cr    Cr6+3 0.730530 0.336340 0.748870 1.027502
Cr4   Cr    Cr6+3 0.269470 0.336340 0.251130 1.029860
Cr5   Cr    Cr6+3 0.387420 0.989430 0.750820 1.025237
Cr6   Cr    Cr6+3 0.612580 0.989430 0.249180 1.018977
Cr7   Cr    Cr6+3 0.887420 0.489430 0.750820 1.025237
Cr8   Cr    Cr6+3 0.112580 0.489430 0.249180 1.018977
Cr9   Cr    Cr6+3 0.385640 0.677860 0.749230 1.027306
Cr10  Cr    Cr6+3 0.614360 0.677860 0.250770 1.039032
Cr11  Cr    Cr6+3 0.885640 0.177860 0.749230 1.027306
Cr12  Cr    Cr6+3 0.114360 0.177860 0.250770 1.039032
H1    H     H_    0.493415 0.633978 0.939264 0.138187
H2    H     H_    0.489497 0.637956 0.064945 0.142143
H3    H     H_    0.993415 0.133978 0.939264 0.138187
H4    H     H_    0.989497 0.137956 0.064945 0.142143
H5    H     H_    0.114009 0.515568 0.462081 0.113162
H6    H     H_    0.884326 0.537760 0.541045 0.112574
H7    H     H_    0.614009 0.015568 0.462081 0.113162
H8    H     H_    0.384326 0.037760 0.541044 0.112574
H9    H     H_    0.140462 0.631412 0.575004 0.119108
H10   H     H_    0.856566 0.644921 0.428264 0.122263
H11   H     H_    0.640462 0.131412 0.575004 0.119108
H12   H     H_    0.356566 0.144920 0.428264 0.122263
H13   H     H_    0.274648 0.532035 0.451163 0.164806
H14   H     H_    0.723139 0.532521 0.548835 0.170773
H15   H     H_    0.774648 0.032036 0.451163 0.164805
H16   H     H_    0.223139 0.032521 0.548835 0.170773
H17   H     H_    0.996355 0.763910 0.059946 0.103185
H18   H     H_    0.032321 0.755308 0.934660 0.106321
H19   H     H_    0.496355 0.263910 0.059946 0.103185
H20   H     H_    0.532321 0.255308 0.934660 0.106321
H21   H     H_    0.330169 0.456917 0.062432 0.152920
H22   H     H_    0.665495 0.473479 0.936350 0.141171
H23   H     H_    0.830170 0.956917 0.062432 0.152920
H24   H     H_    0.165495 0.973479 0.936350 0.141171
H25   H     H_    0.359503 0.571342 0.944311 0.127586
H26   H     H_    0.640200 0.611444 0.051132 0.113255
H27   H     H_    0.859503 0.071343 0.944311 0.127586
H28   H     H_    0.140200 0.111443 0.051132 0.113255
H29   H     H_    0.223293 0.670482 0.056650 0.158329
H30   H     H_    0.778887 0.673586 0.942199 0.138894
H31   H     H_    0.723293 0.170482 0.056650 0.158329
H32   H     H_    0.278887 0.173586 0.942199 0.138894
H33   H     H_    0.482306 0.934400 0.437181 0.024419
H34   H     H_    0.509870 0.855516 0.552891 0.052256
H35   H     H_    0.982307 0.434400 0.437182 0.024418
H36   H     H_    0.009870 0.355515 0.552891 0.052256
O1    O     O_R   0.215090 0.709860 0.828130 -0.504432
O2    O     O_R   0.784910 0.709860 0.171870 -0.523030
O3    O     O_R   0.715090 0.209860 0.828130 -0.504432
O4    O     O_R   0.284910 0.209860 0.171870 -0.523030
O5    O     O_R   0.445660 0.919250 0.676780 -0.525076
O6    O     O_R   0.554340 0.919250 0.323220 -0.537946
O7    O     O_R   0.945660 0.419250 0.676780 -0.525076
O8    O     O_R   0.054340 0.419250 0.323220 -0.537946
O9    O     O_R   0.456260 0.718170 0.670000 -0.485597
O10   O     O_R   0.543740 0.718170 0.330000 -0.438172
O11   O     O_R   0.956260 0.218170 0.670000 -0.485597
O12   O     O_R   0.043740 0.218170 0.330000 -0.438172
O13   O     O_R   0.320940 0.626760 0.674370 -0.493845
O14   O     O_R   0.679060 0.626760 0.325630 -0.506093
O15   O     O_R   0.820940 0.126760 0.674370 -0.493845
O16   O     O_R   0.179060 0.126760 0.325630 -0.506093
O17   O     O_3   0.334530 0.834540 0.749640 -0.290041
O18   O     O_3   0.665470 0.834540 0.250360 -0.277967
O19   O     O_3   0.834530 0.334540 0.749640 -0.290041
O20   O     O_3   0.165470 0.334540 0.250360 -0.277967
O21   O     O_R   0.236990 0.958390 0.823710 -0.495086
O22   O     O_R   0.763010 0.958390 0.176290 -0.488960
O23   O     O_R   0.736990 0.458390 0.823710 -0.495086
O24   O     O_R   0.263010 0.458390 0.176290 -0.488960
O25   O     O_R   0.332380 0.074750 0.830850 -0.508529
O26   O     O_R   0.667620 0.074750 0.169150 -0.510906
O27   O     O_R   0.832380 0.574750 0.830850 -0.508529
O28   O     O_R   0.167620 0.574750 0.169150 -0.510906
O29   O     O_R   0.445800 0.917770 0.825070 -0.468924
O30   O     O_R   0.554200 0.917770 0.174930 -0.477854
O31   O     O_R   0.945800 0.417770 0.825070 -0.468924
O32   O     O_R   0.054200 0.417770 0.174930 -0.477854
O33   O     O_R   0.456410 0.716580 0.829970 -0.533258
O34   O     O_R   0.543590 0.716580 0.170030 -0.529024
O35   O     O_R   0.956410 0.216580 0.829970 -0.533258
O36   O     O_R   0.043590 0.216580 0.170030 -0.529024
O37   O     O_R   0.321080 0.625290 0.822650 -0.536908
O38   O     O_R   0.678920 0.625290 0.177350 -0.519143
O39   O     O_R   0.821080 0.125290 0.822650 -0.536907
O40   O     O_R   0.178920 0.125290 0.177350 -0.519143
O41   O     O_R   0.214930 0.711450 0.668160 -0.538543
O42   O     O_R   0.785070 0.711450 0.331840 -0.538622
O43   O     O_R   0.714930 0.211450 0.668160 -0.538543
O44   O     O_R   0.285070 0.211450 0.331840 -0.538622
O45   O     O_R   0.236850 0.959870 0.675420 -0.489592
O46   O     O_R   0.763150 0.959870 0.324580 -0.480055
O47   O     O_R   0.736850 0.459870 0.675420 -0.489592
O48   O     O_R   0.263150 0.459870 0.324580 -0.480055
O49   O     O_R   0.332230 0.076350 0.670880 -0.516250
O50   O     O_R   0.667770 0.076350 0.329120 -0.500753
O51   O     O_R   0.832230 0.576350 0.670880 -0.516250
O52   O     O_R   0.167770 0.576350 0.329120 -0.500752
O53   O     O_3   0.283110 0.450152 0.569282 -0.717295
H37   H     H_    0.323634 0.445640 0.602352 0.343912
O54   O     O_3   0.720216 0.451548 0.429998 -0.715402
H38   H     H_    0.681467 0.442375 0.395075 0.344752
O55   O     O_3   0.783111 0.950153 0.569281 -0.717295
H39   H     H_    0.823634 0.945641 0.602352 0.343912
O56   O     O_3   0.220216 0.951548 0.429998 -0.715400
H40   H     H_    0.181467 0.942376 0.395075 0.344751
N1    N     N_3   0.463016 0.079858 0.143789 -0.610265
H41   H     H_    0.418697 0.136556 0.142719 0.233286
H42   H     H_    0.500404 0.127593 0.173865 0.240912
N2    N     N_3   0.547357 0.059269 0.852494 -0.583331
H43   H     H_    0.596283 0.100825 0.850305 0.284299
H44   H     H_    0.513390 0.115667 0.823153 0.223190
N3    N     N_3   0.963016 0.579858 0.143789 -0.610265
H45   H     H_    0.918697 0.636556 0.142719 0.233286
H46   H     H_    0.000404 0.627593 0.173865 0.240912
N4    N     N_3   0.047357 0.559269 0.852494 -0.583331
H47   H     H_    0.096283 0.600825 0.850305 0.284299
H48   H     H_    0.013390 0.615667 0.823153 0.223190
O57   O     O_3   0.182808 0.547974 0.940597 -0.729954
H49   H     H_    0.183812 0.479830 0.975613 0.329732
O58   O     O_3   0.809808 0.526581 0.056258 -0.708511
H50   H     H_    0.837292 0.508824 0.099993 0.332846
O59   O     O_3   0.682808 0.047974 0.940597 -0.729955
H51   H     H_    0.683812 0.979831 0.975613 0.329732
O60   O     O_3   0.309808 0.026581 0.056258 -0.708511
H52   H     H_    0.337292 0.008824 0.099993 0.332846
O61   O     O_3   0.436145 0.642660 0.406598 -0.664235
H53   H     H_    0.412270 0.585283 0.439459 0.338301
O62   O     O_3   0.349674 0.734932 0.532536 -0.710657
H54   H     H_    0.324303 0.717445 0.487304 0.341830
O63   O     O_3   0.936144 0.142661 0.406598 -0.664235
H55   H     H_    0.912266 0.085286 0.439457 0.338301
O64   O     O_3   0.849674 0.234933 0.532535 -0.710658
H56   H     H_    0.824302 0.217448 0.487304 0.341830

loop_
_geom_bond_atom_site_label_1
_geom_bond_atom_site_label_2
_ccdc_geom_bond_type
C16   C28   D    
C71   O15   A    
C38   C70   S    
Cr10  O14   S    
Cr7   O51   S    
C69   O13   A    
Cr9   O17   S    
C35   C36   S    
Cr6   O18   S    
C67   O11   A    
Cr10  O34   S    
C6    N2    S    
C81   C82   A    
Cr9   O9    S    
O61   H53   S    
C58   O2    A    
Cr11  O11   S    
Cr9   O37   S    
C50   C54   S    
C75   C79   A    
N4    H48   S    
Cr6   O30   S    
Cr4   O24   S    
C5    N1    S    
C58   O38   A    
C47   C76   S    
C5    C11   A    
C37   C69   S    
C34   O62   S    
Cr2   O18   S    
C23   H23   S    
C64   O48   A    
C75   C84   A    
C6    C78   A    
Cr12  O12   S    
C51   H7    S    
C38   O54   S    
Cr12  O20   S    
Cr2   O46   S    
C63   O47   A    
C36   O64   S    
C3    C18   S    
C7    C9    A    
C16   C60   S    
C41   C49   D    
C45   O29   A    
C56   H12   S    
C21   H21   S    
Cr12  O40   S    
Cr2   O2    S    
C26   H26   S    
C39   C55   D    
Cr6   O50   S    
C40   C56   D    
C38   C54   D    
C66   O10   A    
Cr8   O20   S    
Cr1   O41   S    
C76   C80   A    
Cr12  O36   S    
Cr9   O13   S    
C70   O14   A    
C23   C27   S    
C67   O7    A    
C9    C10   A    
C60   O4    A    
Cr7   O27   S    
C10   H18   S    
C46   O34   A    
C32   C68   S    
C64   O52   A    
C37   C53   D    
C44   C52   D    
Cr5   O17   S    
Cr9   O33   S    
N3    H45   S    
C2    O22   A    
Cr3   O19   S    
C14   O58   S    
C3    O27   A    
Cr4   O20   S    
C48   C75   S    
C57   O1    A    
C69   O41   A    
C59   O39   A    
C35   O63   S    
C76   C83   A    
Cr5   O29   S    
Cr6   O6    S    
Cr4   O48   S    
C57   O37   A    
C14   C58   S    
C37   O53   S    
C24   H24   S    
C63   O51   A    
N4    H47   S    
C82   H2    S    
O56   H40   S    
C60   O40   A    
C32   C35   D    
Cr3   O3    S    
Cr11  O15   S    
Cr4   O4    S    
O59   H51   S    
C65   O9    A    
Cr8   O52   S    
O64   H56   S    
C54   H10   S    
Cr7   O31   S    
C51   C55   S    
N1    H42   S    
O63   H55   S    
C77   C78   A    
Cr3   O47   S    
C29   C34   D    
C17   C21   D    
O58   H50   S    
Cr12  O16   S    
C55   H11   S    
C45   C74   S    
Cr2   O42   S    
Cr10  O10   S    
Cr6   O26   S    
C19   C23   D    
O62   H54   S    
C17   H29   S    
O60   H52   S    
C31   H36   S    
C62   O50   A    
C47   O35   A    
C15   C27   D    
C83   C84   A    
C48   O36   A    
C7    N3    S    
Cr7   O19   S    
C61   O45   A    
C2    O26   A    
C3    O23   A    
C33   C34   S    
Cr1   O21   S    
C14   C26   D    
C1    O21   A    
C70   O42   A    
N3    H46   S    
C27   H27   S    
C30   C66   S    
C42   C50   D    
Cr7   O7    S    
C4    C17   S    
C44   H16   S    
O57   H49   S    
N2    H44   S    
C41   H13   S    
C4    O24   A    
C50   H6    S    
Cr5   O5    S    
C22   C26   S    
C29   C65   S    
C68   O8    A    
C8    C10   A    
Cr11  O19   S    
C74   C81   A    
C5    C77   A    
Cr8   O8    S    
C73   C82   A    
C11   H19   S    
C7    C79   A    
C22   H22   S    
C21   C25   S    
C52   H8    S    
C1    C20   S    
C33   O61   S    
C40   C72   S    
C30   C33   D    
C2    C19   S    
C18   C22   D    
C15   C59   S    
C16   O60   S    
C24   C28   S    
N2    H43   S    
C13   C25   D    
Cr11  O35   S    
C62   O46   A    
C84   H4    S    
C11   C12   A    
C28   H28   S    
Cr5   O25   S    
C48   O32   A    
Cr3   O23   S    
C44   C61   S    
Cr10  O18   S    
C30   H33   S    
Cr3   O43   S    
C74   C78   A    
C61   O49   A    
Cr4   O44   S    
C20   H32   S    
Cr8   O28   S    
C9    H17   S    
C1    O25   A    
Cr8   O32   S    
C42   H14   S    
C65   O5    A    
C8    N4    S    
C15   O59   S    
C72   O16   A    
Cr10  O38   S    
C6    C12   A    
C43   C51   D    
O53   H37   S    
C4    O28   A    
C40   O56   S    
C25   H25   S    
C47   O31   A    
C49   C53   S    
C46   C73   S    
C59   O3    A    
C81   H1    S    
C71   O43   A    
C68   O12   A    
C13   O57   S    
C72   O44   A    
Cr2   O22   S    
O55   H39   S    
Cr1   O17   S    
C31   C67   S    
C66   O6    A    
C79   C80   A    
C43   H15   S    
C29   H34   S    
C53   H9    S    
O54   H38   S    
C13   C57   S    
C43   C62   S    
C73   C77   A    
Cr1   O45   S    
N1    H41   S    
C46   O30   A    
Cr1   O1    S    
C8    C80   A    
C39   O55   S    
C39   C71   S    
C31   C36   D    
C83   H3    S    
C19   H31   S    
C41   C64   S    
Cr11  O39   S    
C45   O33   A    
C42   C63   S    
C20   C24   D    
C32   H35   S    
C18   H30   S    
C52   C56   S    
C49   H5    S    
Cr5   O49   S    
C12   H20   S    
