data_mof_unit_51055.cif
_audit_creation_date              2012-12-10T19:05:37-0500
_audit_creation_method            fapswitch 2.2
_symmetry_space_group_name_H-M    P1
_symmetry_Int_Tables_number       1
_space_group_crystal_system       triclinic
_cell_length_a                    10.512063
_cell_length_b                    13.071403
_cell_length_c                    13.600703
_cell_angle_alpha                 85.180193
_cell_angle_beta                  90.372238
_cell_angle_gamma                 93.178001
_cell_volume                      1859.36189778

loop_
_atom_site_label
_atom_site_type_symbol
_atom_type_description
_atom_site_fract_x
_atom_site_fract_y
_atom_site_fract_z
_atom_type_partial_charge
C1    C     C_R   0.497528 0.480787 0.685101 0.893545
C2    C     C_R   0.502472 0.519213 0.314899 0.893545
C3    C     C_2   0.462699 0.032946 0.472113 0.009455
C4    C     C_2   0.537301 0.967054 0.527887 0.009455
C5    C     C_1   0.526544 0.854478 0.519884 0.077017
C6    C     C_1   0.473456 0.145521 0.480115 0.077018
C7    C     C_R   0.742625 0.499337 0.504053 0.876574
C8    C     C_R   0.257375 0.500663 0.495947 0.876573
C9    C     C_3   0.953866 0.409168 0.546606 -0.253890
C10   C     C_3   0.046134 0.590832 0.453393 -0.253890
C11   C     C_3   0.045252 0.489038 0.592855 0.057406
C12   C     C_3   0.954747 0.510962 0.407145 0.057406
C13   C     C_3   0.122948 0.500352 0.496986 -0.144736
C14   C     C_3   0.877052 0.499648 0.503014 -0.144736
C15   C     C_3   0.032372 0.422273 0.450859 0.263275
C16   C     C_3   0.967628 0.577727 0.549140 0.263276
C17   C     C_1   0.509981 0.535041 0.211885 -0.229870
C18   C     C_1   0.490020 0.464959 0.788115 -0.229871
C19   C     C_2   0.520799 0.543627 0.020034 0.076553
C20   C     C_2   0.479201 0.456373 0.979966 0.076553
C21   C     C_1   0.483740 0.456460 0.875513 -0.035992
C22   C     C_1   0.516261 0.543540 0.124487 -0.035992
H1    H     H_    0.912044 0.336287 0.583841 0.152395
H2    H     H_    0.087956 0.663713 0.416159 0.152394
N1    N     N_1   0.479750 0.234530 0.484780 -0.102090
N2    N     N_1   0.520250 0.765470 0.515220 -0.102090
O1    O     O_R   0.492590 0.402510 0.634760 -0.608687
O2    O     O_R   0.507410 0.597490 0.365240 -0.608687
O3    O     O_R   0.505590 0.572960 0.644530 -0.611885
O4    O     O_R   0.494410 0.427040 0.355470 -0.611885
O5    O     O_R   0.679550 0.414790 0.495140 -0.616807
O6    O     O_R   0.320450 0.585210 0.504860 -0.616807
O7    O     O_R   0.692550 0.585240 0.504910 -0.608302
O8    O     O_R   0.307450 0.414760 0.495090 -0.608302
Zn1   Zn    Zn3+2 0.491320 0.386190 0.493470 0.949661
Zn2   Zn    Zn3+2 0.508680 0.613810 0.506530 0.949661
C23   C     C_3   0.106760 0.473097 0.695024 -0.396590
C24   C     C_3   0.007247 0.461598 0.777552 -0.354531
C25   C     C_3   0.069483 0.437465 0.877904 -0.883002
H3    H     H_    0.117076 0.363619 0.879362 0.261517
H4    H     H_    0.140832 0.499881 0.893809 0.263290
H5    H     H_    0.995522 0.430475 0.936349 0.250530
H6    H     H_    0.957224 0.533944 0.779399 0.220170
H7    H     H_    0.935716 0.398436 0.764049 0.220783
H8    H     H_    0.161141 0.402381 0.697251 0.207200
H9    H     H_    0.175291 0.538885 0.706093 0.199277
C26   C     C_3   0.893239 0.526903 0.304976 -0.396589
C27   C     C_3   0.992752 0.538403 0.222447 -0.354530
C28   C     C_3   0.930515 0.562534 0.122096 -0.883003
H10   H     H_    0.859169 0.500116 0.106191 0.263289
H11   H     H_    0.882919 0.636379 0.120637 0.261518
H12   H     H_    0.004476 0.569526 0.063650 0.250530
H13   H     H_    0.064281 0.601567 0.235950 0.220783
H14   H     H_    0.042778 0.466058 0.220601 0.220170
H15   H     H_    0.824709 0.461114 0.293907 0.199278
H16   H     H_    0.838858 0.597618 0.302750 0.207200
N3    N     N_2   0.076033 0.338179 0.399382 -0.288650
H17   H     H_    0.140997 0.360801 0.344318 0.214976
C29   C     C_3   0.977940 0.264369 0.371163 -0.796700
H18   H     H_    0.022906 0.198280 0.342157 0.238965
H19   H     H_    0.916580 0.299740 0.312551 0.236396
H20   H     H_    0.918758 0.234887 0.435845 0.249214
N4    N     N_2   0.923967 0.661821 0.600617 -0.288650
H21   H     H_    0.859002 0.639199 0.655681 0.214977
C30   C     C_3   0.022059 0.735631 0.628837 -0.796701
H22   H     H_    0.977094 0.801719 0.657843 0.238965
H23   H     H_    0.081241 0.765114 0.564154 0.249214
H24   H     H_    0.083420 0.700260 0.687448 0.236396
C31   C     C_3   0.420982 0.362694 0.041978 -0.403682
C32   C     C_3   0.392916 0.267726 0.984270 -0.333928
C33   C     C_3   0.336852 0.177276 0.051507 -0.897537
H25   H     H_    0.405301 0.155437 0.111165 0.264892
H26   H     H_    0.246453 0.197725 0.084826 0.264793
H27   H     H_    0.316642 0.110101 0.007916 0.252633
H28   H     H_    0.323786 0.285884 0.924011 0.226035
H29   H     H_    0.482459 0.244962 0.951163 0.226940
H30   H     H_    0.487790 0.341069 0.103024 0.208554
H31   H     H_    0.330779 0.384405 0.074935 0.201549
C34   C     C_3   0.579021 0.637305 0.958022 -0.403680
C35   C     C_3   0.607081 0.732276 0.015730 -0.333926
C36   C     C_3   0.663147 0.822725 0.948493 -0.897535
H32   H     H_    0.753550 0.802276 0.915179 0.264791
H33   H     H_    0.594702 0.844561 0.888831 0.264892
H34   H     H_    0.683352 0.889901 0.992083 0.252632
H35   H     H_    0.517535 0.755039 0.048833 0.226938
H36   H     H_    0.676207 0.714120 0.075992 0.226035
H37   H     H_    0.669226 0.615595 0.925069 0.201548
H38   H     H_    0.512216 0.658929 0.896973 0.208554
C37   C     C_3   0.632805 0.010178 0.600662 -0.409332
C38   C     C_3   0.712827 0.929112 0.656693 -0.333087
C39   C     C_3   0.805698 0.978506 0.727847 -0.904574
H39   H     H_    0.872438 0.035410 0.686834 0.264421
H40   H     H_    0.752954 0.017503 0.783147 0.267329
H41   H     H_    0.861868 0.918347 0.767373 0.249001
H42   H     H_    0.649192 0.871161 0.699579 0.225707
H43   H     H_    0.768009 0.889331 0.603315 0.235811
H44   H     H_    0.698647 0.067966 0.559591 0.203703
H45   H     H_    0.579871 0.050117 0.655306 0.204307
C40   C     C_3   0.367195 0.989822 0.399338 -0.409332
C41   C     C_3   0.287173 0.070888 0.343307 -0.333087
C42   C     C_3   0.194301 0.021494 0.272153 -0.904575
H46   H     H_    0.247045 0.982497 0.216853 0.267330
H47   H     H_    0.127562 0.964590 0.313167 0.264421
H48   H     H_    0.138132 0.081652 0.232627 0.249001
H49   H     H_    0.231991 0.110669 0.396684 0.235811
H50   H     H_    0.350808 0.128839 0.300420 0.225707
H51   H     H_    0.420129 0.949882 0.344694 0.204307
H52   H     H_    0.301353 0.932034 0.440409 0.203703

loop_
_geom_bond_atom_site_label_1
_geom_bond_atom_site_label_2
_ccdc_geom_bond_type
N4    C30   S    
C8    C13   S    
C5    N2    T    
C18   C21   T    
C15   N3    S    
C31   H30   S    
C19   C20   D    
C3    C6    S    
C34   H37   S    
C36   H32   S    
C38   C39   S    
C38   H42   S    
C25   H4    S    
C27   H14   S    
C40   H52   S    
O3    Zn2   S    
C41   H49   S    
C23   C24   S    
O4    Zn1   S    
O6    Zn2   S    
C24   C25   S    
C35   C36   S    
N3    C29   S    
C6    N1    T    
C30   H23   S    
O7    Zn2   S    
O8    Zn1   S    
C11   C23   S    
C35   H36   S    
C7    C14   S    
C40   C41   S    
C28   H11   S    
C32   C33   S    
C16   N4    S    
C30   H24   S    
C29   H18   S    
C42   H47   S    
C2    C17   S    
C7    O7    A    
C31   H31   S    
C12   C26   S    
C34   H38   S    
C36   H33   S    
C25   H5    S    
C27   H13   S    
C29   H19   S    
C7    O5    A    
C8    O6    A    
C42   H46   S    
C19   C22   S    
C25   H3    S    
C33   H26   S    
C9    H1    S    
O1    Zn1   S    
N4    H21   S    
C37   H44   S    
C9    C14   S    
C24   H7    S    
C35   H35   S    
C39   H40   S    
C11   C16   S    
C26   C27   S    
C12   C15   S    
C28   H12   S    
C1    O3    A    
C1    C18   S    
C8    O8    A    
C19   C34   S    
C9    C11   S    
C10   C12   S    
N1    Zn1   S    
N2    Zn2   S    
C27   C28   S    
C12   C14   S    
C30   H22   S    
C42   H48   S    
C13   C15   S    
C32   H29   S    
C14   C16   S    
C20   C31   S    
C23   H8    S    
C3    C4    D    
C37   C38   S    
C39   H39   S    
C36   H34   S    
C26   H15   S    
C4    C37   S    
C29   H20   S    
C4    C5    S    
C10   C13   S    
C33   H27   S    
C38   H43   S    
C40   H51   S    
C41   H50   S    
C17   C22   T    
C37   H45   S    
C2    O4    A    
C10   H2    S    
C9    C15   S    
C33   H25   S    
C10   C16   S    
C39   H41   S    
C11   C13   S    
N3    H17   S    
C41   C42   S    
O5    Zn1   S    
C31   C32   S    
C34   C35   S    
C3    C40   S    
C24   H6    S    
C20   C21   S    
O2    Zn2   S    
C28   H10   S    
C32   H28   S    
C1    O1    A    
C2    O2    A    
C23   H9    S    
C26   H16   S    
