data_mof_unit_63007.cif
_audit_creation_date              2012-12-10T18:30:31-0500
_audit_creation_method            fapswitch 2.2
_symmetry_space_group_name_H-M    P1
_symmetry_Int_Tables_number       1
_space_group_crystal_system       triclinic
_cell_length_a                    19.359854
_cell_length_b                    18.13259
_cell_length_c                    27.822518
_cell_angle_alpha                 90.041157
_cell_angle_beta                  90.839792
_cell_angle_gamma                 90.13905
_cell_volume                      9765.85557786

loop_
_atom_site_label
_atom_site_type_symbol
_atom_type_description
_atom_site_fract_x
_atom_site_fract_y
_atom_site_fract_z
_atom_type_partial_charge
C1    C     C_R   0.367484 0.499815 0.499989 0.941114
C2    C     C_R   0.632855 0.500069 0.499551 0.909654
C3    C     C_R   0.485211 0.492125 0.100595 -0.177427
C4    C     C_R   0.478642 0.491235 0.897910 -0.176365
C5    C     C_R   0.422677 0.489169 0.126217 -0.164178
C6    C     C_R   0.535648 0.463007 0.872574 -0.157284
C7    C     C_R   0.359097 0.485932 0.100523 0.394659
C8    C     C_R   0.593077 0.434484 0.898479 0.397565
C9    C     C_R   0.549306 0.494265 0.125622 -0.156667
C10   C     C_R   0.420292 0.518730 0.872595 -0.166077
C11   C     C_R   0.497312 0.499731 0.353421 -0.367553
C12   C     C_R   0.491010 0.500014 0.645876 -0.320358
C13   C     C_R   0.420856 0.512874 0.974375 -0.036182
C14   C     C_R   0.545709 0.487515 0.024019 -0.035917
C15   C     C_R   0.541287 0.472949 0.973965 -0.038468
C16   C     C_R   0.420021 0.499122 0.024637 -0.038106
C17   C     C_R   0.480199 0.492311 0.948704 -0.032462
C18   C     C_R   0.483658 0.492992 0.049798 -0.032571
C19   C     C_R   0.366057 0.547674 0.949084 0.337874
C20   C     C_R   0.609054 0.498359 0.048978 0.337033
C21   C     C_R   0.363783 0.546809 0.898608 0.414094
C22   C     C_R   0.611374 0.497388 0.099398 0.418227
C23   C     C_R   0.499191 0.500073 0.407046 0.898881
C24   C     C_R   0.497994 0.500092 0.592767 0.945154
C25   C     C_R   0.358380 0.486229 0.050040 0.415034
C26   C     C_R   0.593607 0.435355 0.948910 0.413031
C27   C     C_R   0.256522 0.544360 0.464935 0.367131
C28   C     C_R   0.745325 0.444537 0.473941 0.352413
C29   C     C_R   0.746488 0.558485 0.520712 0.369159
C30   C     C_R   0.254402 0.453799 0.529765 0.358715
C31   C     C_R   0.184283 0.547964 0.465137 0.301638
C32   C     C_R   0.817775 0.448394 0.470423 0.293517
C33   C     C_R   0.818483 0.562173 0.517040 0.292421
C34   C     C_R   0.181884 0.457806 0.530213 0.295402
C35   C     C_R   0.146521 0.504213 0.497392 -0.255510
C36   C     C_R   0.854625 0.506303 0.493039 -0.250306
C37   C     C_R   0.291703 0.499354 0.498354 -0.325171
C38   C     C_R   0.709253 0.500648 0.498282 -0.320111
C39   C     C_R   0.930669 0.507139 0.493681 0.548430
C40   C     C_R   0.070521 0.506139 0.496098 0.547560
C41   C     C_R   0.542990 0.277784 0.530789 0.369307
C42   C     C_R   0.543380 0.722589 0.470347 0.491849
C43   C     C_R   0.457174 0.277491 0.469093 0.430570
C44   C     C_R   0.456924 0.722431 0.529864 0.476909
C45   C     C_R   0.543275 0.199611 0.531591 0.212195
C46   C     C_R   0.543526 0.800801 0.469500 0.244997
C47   C     C_R   0.456755 0.199300 0.468409 0.225571
C48   C     C_R   0.456597 0.800651 0.530577 0.243500
C49   C     C_R   0.499969 0.159085 0.500038 -0.237680
C50   C     C_R   0.499980 0.841091 0.499981 -0.243343
C51   C     C_R   0.499973 0.924419 0.499982 0.557646
C52   C     C_R   0.499967 0.075766 0.500049 0.553315
C53   C     C_R   0.425973 0.488013 0.176870 0.712505
C54   C     C_R   0.532872 0.463296 0.821969 0.690277
C55   C     C_R   0.549080 0.495952 0.176264 0.703444
C56   C     C_R   0.421712 0.520045 0.821908 0.724818
C57   C     C_R   0.506312 0.430919 0.278069 0.316468
C58   C     C_R   0.448094 0.441057 0.718684 0.308067
C59   C     C_R   0.512405 0.433585 0.328275 0.360571
C60   C     C_R   0.455635 0.441087 0.668407 0.357175
C61   C     C_R   0.479821 0.563963 0.326490 0.256691
C62   C     C_R   0.517622 0.558699 0.674424 0.261580
C63   C     C_R   0.477378 0.561061 0.276044 0.343998
C64   C     C_R   0.512673 0.555839 0.724607 0.353845
C65   C     C_R   0.490037 0.494638 0.252015 0.032045
C66   C     C_R   0.478799 0.496781 0.746610 0.045389
Cu1   Cu    Cu3+1 0.500000 0.573360 0.500000 1.131972
Cu2   Cu    Cu3+1 0.500000 0.426640 0.500000 1.059383
N1    N     N_R   0.488248 0.492440 0.200401 -0.425445
N2    N     N_R   0.477262 0.492625 0.798128 -0.427188
N3    N     N_R   0.035418 0.497767 0.453852 -0.151286
N4    N     N_R   0.965800 0.515707 0.535880 -0.156421
N5    N     N_R   0.966699 0.498512 0.452628 -0.122161
N6    N     N_R   0.034480 0.515499 0.537055 -0.123520
N7    N     N_R   0.500000 0.316380 0.500000 -0.285850
N8    N     N_R   0.500000 0.683620 0.500000 -0.298156
N9    N     N_R   0.439755 0.036809 0.499301 -0.143488
N10   N     N_R   0.560184 0.963377 0.500832 -0.133428
N11   N     N_R   0.560181 0.037130 0.500765 -0.135329
N12   N     N_R   0.439758 0.963056 0.499175 -0.131339
O1    O     O_R   0.400150 0.561970 0.500010 -0.519824
O2    O     O_R   0.599850 0.438030 0.499990 -0.541694
O3    O     O_R   0.599850 0.561970 0.499990 -0.519686
O4    O     O_R   0.400150 0.438030 0.500010 -0.566350
O5    O     O_R   0.500010 0.561950 0.430260 -0.517755
O6    O     O_R   0.499990 0.438050 0.569740 -0.534171
O7    O     O_R   0.499990 0.561950 0.569740 -0.523824
O8    O     O_R   0.500010 0.438050 0.430260 -0.518914
O9    O     O_2   0.367782 0.482837 0.202744 -0.453197
O10   O     O_2   0.585346 0.435249 0.796389 -0.467553
O11   O     O_2   0.368679 0.548962 0.796278 -0.423037
O12   O     O_2   0.608846 0.501558 0.201567 -0.453604
Cl1   Cl    Cl    0.458835 0.648975 0.354002 -0.411743
Cl2   Cl    Cl    0.557579 0.636807 0.648830 -0.474754
Cl3   Cl    Cl    0.142672 0.610953 0.425891 -0.420152
Cl4   Cl    Cl    0.861444 0.380282 0.437067 -0.491337
Cl5   Cl    Cl    0.861970 0.640074 0.541165 -0.422444
Cl6   Cl    Cl    0.136458 0.404087 0.572401 -0.463044
Cl7   Cl    Cl    0.599529 0.324335 0.570809 -0.573486
Cl8   Cl    Cl    0.601172 0.676780 0.432132 -0.389739
Cl9   Cl    Cl    0.401162 0.323633 0.428689 -0.484967
Cl10  Cl    Cl    0.400433 0.676386 0.568994 -0.391955
Cl11  Cl    Cl    0.596082 0.153189 0.574250 -0.444026
Cl12  Cl    Cl    0.596622 0.847649 0.428139 -0.367999
Cl13  Cl    Cl    0.403918 0.152434 0.425794 -0.398391
Cl14  Cl    Cl    0.403633 0.847354 0.572005 -0.377549
Cl15  Cl    Cl    0.458370 0.640999 0.242037 -0.420742
Cl16  Cl    Cl    0.548473 0.626814 0.760808 -0.428316
O13   O     O_3   0.297408 0.476604 0.124278 -0.526499
C67   C     C_3   0.263516 0.545323 0.126262 -0.058799
H1    H     H_    0.247559 0.564546 0.089814 0.194937
H2    H     H_    0.296299 0.587865 0.144429 0.165033
H3    H     H_    0.215999 0.538783 0.147656 0.196660
O14   O     O_3   0.646816 0.400389 0.874979 -0.525292
C68   C     C_3   0.703143 0.449827 0.873348 -0.065898
H4    H     H_    0.724766 0.461005 0.909891 0.195884
H5    H     H_    0.688510 0.502527 0.855384 0.162336
H6    H     H_    0.744632 0.424258 0.851942 0.193493
O15   O     O_3   0.421974 0.388412 0.640456 -0.522279
C69   C     C_3   0.455958 0.319731 0.644724 -0.056797
H7    H     H_    0.512004 0.324252 0.654148 0.179703
H8    H     H_    0.451579 0.290699 0.609744 0.156095
H9    H     H_    0.429779 0.284541 0.671475 0.210248
O16   O     O_3   0.530655 0.369955 0.352661 -0.495485
C70   C     C_3   0.603227 0.368413 0.357760 -0.058638
H10   H     H_    0.623147 0.418129 0.376988 0.156005
H11   H     H_    0.628478 0.363278 0.322262 0.180954
H12   H     H_    0.617782 0.319385 0.379426 0.195782
Cl17  Cl    Cl    0.397984 0.372926 0.747200 -0.518056
Cl18  Cl    Cl    0.519231 0.346761 0.247641 -0.483972
O17   O     O_3   0.308003 0.578586 0.874963 -0.489218
C71   C     C_3   0.254250 0.525969 0.872130 -0.086108
H13   H     H_    0.210156 0.550468 0.851924 0.213857
H14   H     H_    0.235540 0.510680 0.908424 0.162720
H15   H     H_    0.270602 0.475676 0.852351 0.153208
O18   O     O_3   0.674593 0.504661 0.122771 -0.489148
C72   C     C_3   0.705694 0.434424 0.125416 -0.098231
H16   H     H_    0.717295 0.412504 0.089057 0.166778
H17   H     H_    0.672839 0.394526 0.145231 0.150709
H18   H     H_    0.755395 0.439607 0.145486 0.210092
Cl19  Cl    Cl    0.307835 0.607260 0.978508 -0.479619
Cl20  Cl    Cl    0.683844 0.529580 0.019091 -0.485743
O19   O     O_3   0.297030 0.469899 0.026133 -0.541572
C73   C     C_3   0.297266 0.394607 0.013441 -0.224981
H19   H     H_    0.302224 0.358789 0.045796 0.188598
H20   H     H_    0.338986 0.382084 0.987605 0.135142
H21   H     H_    0.247311 0.381178 0.995431 0.204464
O20   O     O_3   0.644372 0.395935 0.973142 -0.543416
C74   C     C_3   0.616913 0.326898 0.986354 -0.226272
H22   H     H_    0.599245 0.294965 0.954238 0.187806
H23   H     H_    0.573957 0.333103 0.012176 0.136434
H24   H     H_    0.658220 0.294602 0.004572 0.205320
O21   O     O_3   0.292830 0.586317 0.432310 -0.504529
C75   C     C_3   0.303135 0.543213 0.390770 -0.111525
H25   H     H_    0.339887 0.497436 0.398232 0.124048
H26   H     H_    0.325774 0.578632 0.362637 0.228318
H27   H     H_    0.253665 0.520896 0.375787 0.177950
O22   O     O_3   0.708795 0.389749 0.449856 -0.584198
C76   C     C_3   0.713592 0.322687 0.475580 -0.090626
H28   H     H_    0.664389 0.292044 0.470504 0.171992
H29   H     H_    0.722481 0.329808 0.515007 0.186551
H30   H     H_    0.754988 0.287733 0.460638 0.216123
O23   O     O_3   0.712526 0.613112 0.545642 -0.506050
C77   C     C_3   0.710007 0.592237 0.594418 -0.079462
H31   H     H_    0.671528 0.547362 0.599483 0.131077
H32   H     H_    0.693912 0.640744 0.615681 0.245558
H33   H     H_    0.761317 0.574951 0.609110 0.160391
O24   O     O_3   0.289471 0.410535 0.563036 -0.506953
C78   C     C_3   0.292032 0.337263 0.545843 -0.069990
H34   H     H_    0.333081 0.307405 0.566031 0.178011
H35   H     H_    0.304800 0.333924 0.507035 0.157767
H36   H     H_    0.242559 0.308123 0.552191 0.202120

loop_
_geom_bond_atom_site_label_1
_geom_bond_atom_site_label_2
_ccdc_geom_bond_type
C27   O21   S    
C63   C65   A    
Cu1   O3    S    
C40   N3    A    
Cu2   O6    S    
C78   H34   S    
C14   C18   A    
O23   C77   S    
C53   N1    A    
O14   C68   S    
C47   C49   A    
C1    O4    A    
C72   H17   S    
C3    C18   A    
C32   C36   A    
C5    C53   A    
C77   H31   S    
C19   C21   A    
C54   O10   S    
C42   Cl8   S    
C74   H23   S    
C61   Cl1   S    
C9    C22   A    
C57   C59   A    
C58   Cl17  S    
C58   C60   A    
O19   C73   S    
C29   C33   A    
C16   C25   A    
C33   C36   A    
C8    C26   A    
C60   O15   S    
C61   C63   A    
C34   C35   A    
C42   C46   A    
C44   N8    A    
C29   O23   S    
C67   H1    S    
C21   O17   S    
C62   C64   A    
C45   Cl11  S    
C51   N12   A    
C58   C66   A    
C56   O11   S    
C48   Cl14  S    
C71   H13   S    
C68   H5    S    
C29   C38   A    
C70   H12   S    
C39   N4    A    
C76   H29   S    
C9    C55   A    
C45   C49   A    
C52   N11   A    
C10   C56   A    
C75   H26   S    
C69   H9    S    
C1    C37   S    
C49   C52   S    
C48   C50   A    
C19   Cl19  S    
C78   H35   S    
C2    O3    A    
C25   O19   S    
C6    C54   A    
C73   H21   S    
C11   C59   A    
C69   H8    S    
C64   Cl16  S    
C36   C39   S    
C10   C21   A    
C43   N7    A    
C72   H18   S    
Cu1   O5    S    
C30   C34   A    
C27   C31   A    
Cu1   Cu2   S    
Cu2   O4    S    
C14   C20   A    
C57   Cl18  S    
C28   C32   A    
O20   C74   S    
C75   H27   S    
N4    N6    A    
C74   H24   S    
C5    C7    A    
C44   Cl10  S    
N10   N11   A    
O18   C72   S    
C15   C26   A    
C6    C8    A    
C47   Cl13  S    
C46   Cl12  S    
C7    O13   S    
C30   C37   A    
C22   O18   S    
Cu2   N7    S    
C64   C66   A    
O22   C76   S    
C43   Cl9   S    
C55   O12   S    
C3    C9    A    
C20   Cl20  S    
C41   N7    A    
C12   C62   A    
C2    C38   S    
C76   H28   S    
C54   N2    A    
C28   C38   A    
C68   H6    S    
C28   O22   S    
C50   C51   S    
C76   H30   S    
C16   C18   A    
C26   O20   S    
C67   H3    S    
C75   H25   S    
C55   N1    A    
C4    C17   A    
C73   H20   S    
O24   C78   S    
C32   Cl4   S    
C20   C22   A    
Cu1   O1    S    
C56   N2    A    
C23   O8    A    
C62   Cl2   S    
C53   O9    S    
C70   H10   S    
Cu2   O8    S    
C78   H36   S    
C31   C35   A    
C2    O2    A    
C4    C6    A    
C63   Cl15  S    
C52   N9    A    
C3    C5    A    
C69   H7    S    
N3    N5    A    
N9    N12   A    
C59   O16   S    
C15   C17   A    
C46   C50   A    
C42   N8    A    
C77   H33   S    
C4    C10   A    
C57   C65   A    
C73   H19   S    
C11   C61   A    
C41   Cl7   S    
O15   C69   S    
C8    O14   S    
C24   O6    A    
C72   H16   S    
C12   C24   S    
Cu1   O7    S    
C7    C25   A    
C13   C17   A    
Cu2   O2    S    
C77   H32   S    
C35   C40   S    
C51   N10   A    
C30   O24   S    
C31   Cl3   S    
O13   C67   S    
C66   N2    S    
C43   C47   A    
C27   C37   A    
C71   H15   S    
C65   N1    S    
C11   C23   S    
C34   Cl6   S    
C40   N6    A    
C33   Cl5   S    
C39   N5    A    
O17   C71   S    
C24   O7    A    
C67   H2    S    
C12   C60   A    
C44   C48   A    
C71   H14   S    
C23   O5    A    
C13   C16   A    
C70   H11   S    
C13   C19   A    
C41   C45   A    
C14   C15   A    
Cu1   N8    S    
O21   C75   S    
C74   H22   S    
C1    O1    A    
C68   H4    S    
O16   C70   S    
