data_mof_unit_58092.cif
_audit_creation_date              2012-12-10T17:19:57-0500
_audit_creation_method            fapswitch 2.2
_symmetry_space_group_name_H-M    P1
_symmetry_Int_Tables_number       1
_space_group_crystal_system       triclinic
_cell_length_a                    9.612737
_cell_length_b                    10.791459
_cell_length_c                    15.47082
_cell_angle_alpha                 87.154606
_cell_angle_beta                  74.178605
_cell_angle_gamma                 89.856334
_cell_volume                      1542.06880747

loop_
_atom_site_label
_atom_site_type_symbol
_atom_type_description
_atom_site_fract_x
_atom_site_fract_y
_atom_site_fract_z
_atom_type_partial_charge
C1    C     C_R   0.997964 0.262501 0.505157 0.793726
C2    C     C_R   0.235166 0.578123 0.044693 0.158145
C3    C     C_R   0.332754 0.536697 0.093781 0.090639
C4    C     C_R   0.918158 0.500152 0.672077 0.775246
C5    C     C_R   0.087685 0.590846 0.088271 -0.201492
C6    C     C_R   0.035018 0.560994 0.180043 -0.192335
C7    C     C_R   0.275934 0.503780 0.185689 -0.248169
C8    C     C_R   0.115932 0.119578 0.636205 -0.184257
C9    C     C_R   0.176766 0.050640 0.694959 -0.139304
C10   C     C_R   0.177894 0.921856 0.694619 -0.131533
C11   C     C_R   0.117867 0.861129 0.635673 -0.174562
C12   C     C_R   0.678153 0.524898 0.908513 0.089546
C13   C     C_R   0.058515 0.929056 0.573850 0.100645
C14   C     C_R   0.058106 0.060414 0.573850 0.101896
C15   C     C_R   0.993804 0.128040 0.514081 -0.104621
C16   C     C_R   0.997527 0.736744 0.505516 0.771363
C17   C     C_R   0.920163 0.066523 0.462399 -0.201513
C18   C     C_R   0.918091 0.938913 0.464016 -0.217997
C19   C     C_R   0.992787 0.869923 0.514986 -0.093260
C20   C     C_R   0.698975 0.655398 0.372638 -0.282006
C21   C     C_R   0.655532 0.722695 0.304554 0.487721
C22   C     C_R   0.510837 0.723964 0.307397 -0.271268
C23   C     C_R   0.778029 0.495093 0.958810 0.162079
C24   C     C_R   0.410368 0.658796 0.375703 -0.241269
C25   C     C_R   0.451911 0.578204 0.438923 0.216925
C26   C     C_R   0.601548 0.577541 0.438293 0.157492
C27   C     C_R   0.548328 0.426343 0.558610 -0.052933
C28   C     C_R   0.082073 0.502655 0.327885 0.787627
C29   C     C_R   0.400617 0.426272 0.558507 -0.065273
C30   C     C_R   0.873009 0.501861 0.770657 -0.047034
C31   C     C_R   0.129441 0.518916 0.229399 -0.067129
C32   C     C_R   0.923504 0.472883 0.914973 -0.210674
C33   C     C_R   0.971052 0.477391 0.821461 -0.203746
C34   C     C_R   0.530798 0.547679 0.954076 0.068740
C35   C     C_R   0.728274 0.525700 0.814188 -0.246350
C36   C     C_3   0.837292 0.868022 0.251590 -0.340707
C37   C     C_R   0.482970 0.527877 0.049291 0.061214
C38   C     C_R   0.587144 0.501907 0.096929 -0.199417
C39   C     C_R   0.731674 0.486355 0.052307 -0.216160
C40   C     C_R   0.430073 0.590752 0.907876 -0.221702
C41   C     C_R   0.285521 0.606632 0.952715 -0.241176
Cu1   Cu    Cu3+1 0.140660 0.499990 0.500010 0.924197
Cu2   Cu    Cu3+1 0.859340 0.500010 0.499990 0.932622
H1    H     H_    0.807236 0.464904 0.091488 0.147584
H2    H     H_    0.809338 0.665209 0.370688 0.203232
H3    H     H_    0.343319 0.464692 0.225099 0.157772
H4    H     H_    0.475305 0.777117 0.256210 0.178237
H5    H     H_    0.301857 0.673934 0.374421 0.222681
H6    H     H_    0.324705 0.365810 0.606538 0.124124
H7    H     H_    0.921443 0.573148 0.212553 0.187020
H8    H     H_    0.212182 0.640074 0.914732 0.145812
H9    H     H_    0.000146 0.449777 0.953052 0.141199
H10   H     H_    0.083426 0.458499 0.789083 0.149215
H11   H     H_    0.655601 0.540758 0.772834 0.151448
H12   H     H_    0.013317 0.625328 0.051463 0.156208
H13   H     H_    0.561410 0.495754 0.169278 0.151269
H14   H     H_    0.460014 0.616657 0.837048 0.142122
H15   H     H_    0.925072 0.826119 0.277016 0.152308
H16   H     H_    0.769891 0.931942 0.299982 0.157125
H17   H     H_    0.890298 0.924958 0.189737 0.202138
H18   H     H_    0.866386 0.117591 0.418892 0.157051
H19   H     H_    0.110987 0.218783 0.642540 0.140061
H20   H     H_    0.220661 0.097321 0.742211 0.131963
H21   H     H_    0.222701 0.868581 0.741600 0.134200
H22   H     H_    0.114852 0.760998 0.641503 0.160107
H23   H     H_    0.860416 0.893395 0.423575 0.143756
H24   H     H_    0.582382 0.365743 0.606635 0.135770
N1    N     N_R   0.648320 0.501210 0.499140 -0.183155
N2    N     N_R   0.352470 0.501290 0.499110 -0.187866
O1    O     O_R   0.118810 0.319640 0.500010 -0.576206
O2    O     O_R   0.881240 0.319660 0.500000 -0.573196
O3    O     O_R   0.055570 0.499980 0.629840 -0.598202
O4    O     O_R   0.818000 0.500010 0.629830 -0.581524
O5    O     O_R   0.118760 0.680340 0.500000 -0.603026
O6    O     O_R   0.881190 0.680360 0.499990 -0.588712
O7    O     O_R   0.182000 0.499990 0.370170 -0.591608
O8    O     O_R   0.944430 0.500020 0.370160 -0.595365
O9    O     O_3   0.753205 0.775295 0.228470 -0.577476

loop_
_geom_bond_atom_site_label_1
_geom_bond_atom_site_label_2
_ccdc_geom_bond_type
Cu2   O4    S    
C27   C29   A    
C16   O6    A    
C36   H16   S    
C29   H6    S    
C12   C23   A    
C1    O2    A    
C30   C35   A    
C34   C40   A    
C3    C7    A    
C36   H15   S    
C38   C39   A    
C2    C41   A    
C34   C37   A    
Cu1   O1    S    
C18   C19   A    
C32   H9    S    
C27   N1    A    
C17   H18   S    
C8    C9    A    
C21   O9    S    
C8    C14   A    
C1    C15   S    
C9    C10   A    
C20   H2    S    
C6    C31   A    
C13   C14   A    
C35   H11   S    
C33   H10   S    
C29   N2    A    
Cu2   O6    S    
Cu1   O5    S    
C7    C31   A    
C13   C19   A    
C24   H5    S    
C7    H3    S    
C24   C25   A    
Cu2   N1    S    
C25   C26   A    
Cu1   N2    S    
C37   C38   A    
Cu1   O3    S    
C17   C18   A    
C6    H7    S    
C12   C35   A    
C28   O8    A    
C4    O4    A    
C40   C41   A    
C16   O5    A    
C2    C5    A    
C25   N2    A    
Cu1   Cu2   S    
C12   C34   A    
C28   O7    A    
C4    O3    A    
C15   C17   A    
C18   H23   S    
Cu2   O2    S    
C40   H14   S    
C30   C33   A    
C9    H20   S    
C5    H12   S    
C28   C31   S    
C10   H21   S    
C36   H17   S    
C39   H1    S    
Cu2   O8    S    
Cu1   O7    S    
C1    O1    A    
C26   N1    A    
C32   C33   A    
C2    C3    A    
C36   O9    S    
C23   C32   A    
C11   C13   A    
C5    C6    A    
C20   C26   A    
C16   C19   S    
C23   C39   A    
C22   H4    S    
C22   C24   A    
C27   H24   S    
C10   C11   A    
C38   H13   S    
C20   C21   A    
C3    C37   A    
C14   C15   A    
C21   C22   A    
C41   H8    S    
C4    C30   S    
C11   H22   S    
C8    H19   S    
