data_mof_unit_55274.cif
_audit_creation_date              2012-12-10T21:32:09-0500
_audit_creation_method            fapswitch 2.2
_symmetry_space_group_name_H-M    P1
_symmetry_Int_Tables_number       1
_space_group_crystal_system       triclinic
_cell_length_a                    15.536316
_cell_length_b                    16.200295
_cell_length_c                    16.813391
_cell_angle_alpha                 92.719902
_cell_angle_beta                  90.590658
_cell_angle_gamma                 108.964931
_cell_volume                      3996.10683099

loop_
_atom_site_label
_atom_site_type_symbol
_atom_type_description
_atom_site_fract_x
_atom_site_fract_y
_atom_site_fract_z
_atom_type_partial_charge
C1    C     C_R   0.501380 0.488828 0.347450 0.965325
C2    C     C_R   0.444126 0.451833 0.781269 0.397946
C3    C     C_R   0.576101 0.545370 0.141426 -0.267890
C4    C     C_R   0.450806 0.458389 0.863704 -0.245501
C5    C     C_R   0.520165 0.470942 0.097573 0.209169
C6    C     C_R   0.511197 0.533644 0.903585 0.186416
C7    C     C_R   0.465205 0.399582 0.136220 -0.301187
C8    C     C_R   0.561924 0.603741 0.860901 -0.292001
C9    C     C_R   0.456246 0.405225 0.218439 0.415524
C10   C     C_R   0.559525 0.596594 0.778067 0.410467
C11   C     C_R   0.547948 0.778100 0.538307 -0.146258
C12   C     C_R   0.500225 0.511504 0.652508 0.919871
C13   C     C_R   0.450611 0.221054 0.463323 -0.157098
C14   C     C_R   0.546212 0.865023 0.540043 0.421694
C15   C     C_R   0.453074 0.134420 0.461512 0.408552
C16   C     C_R   0.327176 0.446035 0.503718 0.854091
C17   C     C_R   0.672378 0.553867 0.493771 0.907530
C18   C     C_R   0.476924 0.883713 0.495812 0.179830
C19   C     C_R   0.518223 0.114797 0.510403 0.184179
C20   C     C_R   0.415809 0.815997 0.450193 -0.372478
C21   C     C_R   0.577093 0.182040 0.558145 -0.375363
C22   C     C_R   0.424012 0.732243 0.444544 0.235195
C23   C     C_R   0.911531 0.401317 0.429761 0.454435
C24   C     C_R   0.573332 0.267379 0.558586 0.220214
C25   C     C_R   0.227897 0.412926 0.504189 -0.143893
C26   C     C_R   0.769811 0.586648 0.480172 -0.139634
C27   C     C_R   0.084226 0.295114 0.479239 0.532028
C28   C     C_R   0.913877 0.703923 0.481537 0.518001
C29   C     C_R   0.179279 0.323849 0.495216 -0.359973
C30   C     C_R   0.818693 0.676060 0.481598 -0.289667
C31   C     C_R   0.182189 0.473415 0.506300 -0.217509
C32   C     C_R   0.814537 0.526011 0.466549 -0.174926
C33   C     C_R   0.088339 0.448367 0.495835 0.008681
C34   C     C_R   0.085187 0.599647 0.528972 0.460528
C35   C     C_R   0.909049 0.551245 0.466877 0.049082
C36   C     C_R   0.040633 0.359418 0.474513 0.015216
C37   C     C_R   0.958490 0.640804 0.483453 -0.047539
C38   C     C_R   0.043595 0.511971 0.496467 -0.110605
C39   C     C_R   0.954095 0.487823 0.463399 -0.037179
C40   C     C_3   0.420598 0.054087 0.342468 0.054918
C41   C     C_3   0.408716 0.118287 0.282419 -0.361167
C42   C     C_3   0.431313 0.093635 0.198403 -0.931951
C43   C     C_3   0.688532 0.966540 0.555292 0.103447
C44   C     C_3   0.755707 0.917397 0.571503 -0.374018
C45   C     C_R   0.953352 0.337508 0.440343 -0.309329
C46   C     C_3   0.851644 0.969308 0.547747 -0.970995
C47   C     C_3   0.356177 0.664751 0.389419 -0.359460
C48   C     C_3   0.353156 0.696321 0.304694 -0.414981
C49   C     C_3   0.314792 0.619885 0.243550 -0.880644
C50   C     C_3   0.635250 0.333263 0.619107 -0.347882
C51   C     C_3   0.736522 0.343217 0.609962 -0.406112
C52   C     C_3   0.798215 0.423722 0.657645 -0.886996
C53   C     C_3   0.071120 0.145385 0.485083 0.081644
C54   C     C_3   0.122518 0.117517 0.417100 -0.408256
C55   C     C_3   0.175093 0.059482 0.446157 -0.882257
C56   C     C_R   0.048021 0.664194 0.511576 -0.284175
C57   C     C_3   0.964940 0.831585 0.417694 0.061687
C58   C     C_3   0.043775 0.822242 0.367887 -0.351296
C59   C     C_3   0.050545 0.868600 0.290181 -0.953696
C60   C     C_3   0.769456 0.305663 0.382342 0.044310
C61   C     C_3   0.761363 0.246251 0.307285 -0.292927
C62   C     C_3   0.680889 0.162322 0.311573 -0.991381
C63   C     C_3   0.130881 0.588830 0.657101 0.088282
C64   C     C_3   0.090414 0.648173 0.707039 -0.357500
C65   C     C_3   0.064779 0.613196 0.789199 -0.955894
C66   C     C_3   0.309796 0.384965 0.710735 0.126300
C67   C     C_R   0.508825 0.481775 0.261989 -0.244647
C68   C     C_3   0.230601 0.352576 0.767118 -0.375087
C69   C     C_3   0.141369 0.352879 0.728515 -0.953809
C70   C     C_3   0.616162 0.697343 0.259445 0.114498
C71   C     C_3   0.669364 0.764289 0.324372 -0.302259
C72   C     C_3   0.651573 0.851140 0.319316 -1.016521
C73   C     C_3   0.308275 0.318903 0.237484 0.051324
C74   C     C_3   0.267506 0.367141 0.298770 -0.365391
C75   C     C_3   0.166832 0.351334 0.280739 -0.925075
C76   C     C_3   0.702224 0.649335 0.731056 0.080349
C77   C     C_3   0.769015 0.725582 0.690512 -0.317327
C78   C     C_R   0.500571 0.520386 0.738305 -0.279321
C79   C     C_3   0.863032 0.715175 0.685581 -0.955271
C80   C     C_R   0.570766 0.551091 0.224025 0.376623
H1    H     H_    0.921342 0.272061 0.414644 0.197425
H2    H     H_    0.217552 0.278886 0.494194 0.167204
H3    H     H_    0.409518 0.404230 0.896557 0.173380
H4    H     H_    0.623956 0.598157 0.111493 0.163810
H5    H     H_    0.425919 0.340907 0.101795 0.156444
H6    H     H_    0.607690 0.661805 0.891964 0.168118
H7    H     H_    0.379763 0.986743 0.320651 0.171900
H8    H     H_    0.492574 0.055061 0.346004 0.140391
H9    H     H_    0.337210 0.118428 0.282560 0.233671
H10   H     H_    0.454428 0.185358 0.299559 0.241538
H11   H     H_    0.502715 0.093508 0.196761 0.266154
H12   H     H_    0.084433 0.731145 0.531867 0.210183
H13   H     H_    0.423260 0.142050 0.156828 0.274910
H14   H     H_    0.384604 0.027889 0.178287 0.258105
H15   H     H_    0.717370 0.034283 0.581898 0.172670
H16   H     H_    0.681044 0.972976 0.490002 0.114978
H17   H     H_    0.756516 0.905089 0.635905 0.241055
H18   H     H_    0.734592 0.853877 0.536604 0.197060
H19   H     H_    0.852674 0.980576 0.483036 0.260030
H20   H     H_    0.898459 0.932103 0.560574 0.286137
H21   H     H_    0.875975 0.033147 0.582277 0.265259
H22   H     H_    0.361569 0.580731 0.238264 0.248818
H23   H     H_    0.400079 0.236195 0.427360 0.171751
H24   H     H_    0.246708 0.577403 0.261316 0.272180
H25   H     H_    0.307918 0.645181 0.184420 0.257227
H26   H     H_    0.309281 0.738469 0.303339 0.222929
H27   H     H_    0.422177 0.735947 0.286815 0.221765
H28   H     H_    0.370936 0.603387 0.384626 0.258855
H29   H     H_    0.287308 0.650043 0.414598 0.186005
H30   H     H_    0.788096 0.484001 0.636751 0.253767
H31   H     H_    0.783205 0.418603 0.722007 0.264839
H32   H     H_    0.870591 0.428810 0.649464 0.254022
H33   H     H_    0.750540 0.284755 0.630927 0.221999
H34   H     H_    0.595594 0.761528 0.576529 0.170503
H35   H     H_    0.754242 0.349231 0.546667 0.216948
H36   H     H_    0.628411 0.397814 0.616264 0.258476
H37   H     H_    0.614657 0.311536 0.679824 0.190789
H38   H     H_    0.014357 0.086765 0.500033 0.168994
H39   H     H_    0.112669 0.166126 0.541334 0.129077
H40   H     H_    0.072722 0.081117 0.369437 0.219087
H41   H     H_    0.170832 0.175439 0.390521 0.227021
H42   H     H_    0.230243 0.097374 0.489030 0.282204
H43   H     H_    0.205869 0.035177 0.394654 0.289508
H44   H     H_    0.129018 0.002527 0.475704 0.262013
H45   H     H_    0.361847 0.829511 0.417509 0.175187
H46   H     H_    0.976298 0.902218 0.430741 0.169681
H47   H     H_    0.899312 0.805862 0.382832 0.131929
H48   H     H_    0.108806 0.850428 0.402748 0.233157
H49   H     H_    0.033330 0.751972 0.353440 0.223892
H50   H     H_    0.986974 0.839680 0.253530 0.267815
H51   H     H_    0.108513 0.861099 0.255916 0.265298
H52   H     H_    0.062153 0.939334 0.302490 0.263901
H53   H     H_    0.704675 0.320341 0.388576 0.175071
H54   H     H_    0.776318 0.270411 0.436110 0.110928
H55   H     H_    0.751587 0.281155 0.254346 0.239044
H56   H     H_    0.625165 0.166667 0.597012 0.175429
H57   H     H_    0.824797 0.229521 0.299920 0.215859
H58   H     H_    0.689147 0.125739 0.363789 0.265043
H59   H     H_    0.676315 0.120213 0.256582 0.267621
H60   H     H_    0.616964 0.178460 0.316695 0.265799
H61   H     H_    0.192332 0.585173 0.689136 0.168944
H62   H     H_    0.081887 0.520900 0.651833 0.129880
H63   H     H_    0.140788 0.715065 0.713894 0.240585
H64   H     H_    0.028249 0.652061 0.676506 0.225462
H65   H     H_    0.013010 0.546982 0.783457 0.265482
H66   H     H_    0.035681 0.657401 0.823854 0.267351
H67   H     H_    0.774835 0.458068 0.464596 0.193402
H68   H     H_    0.125883 0.609835 0.822000 0.268303
H69   H     H_    0.292601 0.344064 0.654223 0.178158
H70   H     H_    0.317963 0.453322 0.695197 0.100461
H71   H     H_    0.223591 0.284948 0.783118 0.236908
H72   H     H_    0.244714 0.395473 0.822553 0.214531
H73   H     H_    0.146828 0.419946 0.712410 0.256036
H74   H     H_    0.085357 0.330157 0.770995 0.267418
H75   H     H_    0.124596 0.308510 0.674034 0.266461
H76   H     H_    0.542487 0.688452 0.265229 0.146710
H77   H     H_    0.638865 0.722650 0.200164 0.128074
H78   H     H_    0.222126 0.541400 0.508093 0.222622
H79   H     H_    0.649371 0.738430 0.383895 0.242682
H80   H     H_    0.743361 0.775462 0.318053 0.212670
H81   H     H_    0.668993 0.877501 0.259638 0.271502
H82   H     H_    0.694529 0.899029 0.364878 0.263007
H83   H     H_    0.578968 0.842563 0.330652 0.264670
H84   H     H_    0.272045 0.247610 0.239848 0.160021
H85   H     H_    0.295723 0.336787 0.176238 0.132675
H86   H     H_    0.275571 0.343645 0.358234 0.233584
H87   H     H_    0.304758 0.438384 0.299560 0.203768
H88   H     H_    0.157258 0.372257 0.220256 0.261101
H89   H     H_    0.784070 0.724135 0.487642 0.156287
H90   H     H_    0.140680 0.390026 0.324666 0.275723
H91   H     H_    0.127177 0.280999 0.284671 0.268050
H92   H     H_    0.695134 0.587745 0.695083 0.118314
H93   H     H_    0.730799 0.645606 0.791418 0.139607
H94   H     H_    0.742730 0.729085 0.629555 0.218741
H95   H     H_    0.775070 0.787653 0.724816 0.225654
H96   H     H_    0.891606 0.714285 0.746243 0.262381
H97   H     H_    0.909663 0.770940 0.654973 0.292050
H98   H     H_    0.858842 0.653484 0.651547 0.260515
N1    N     N_2   0.513942 0.467037 0.014147 -0.162114
N2    N     N_2   0.523702 0.539440 0.986776 -0.168041
N3    N     N_R   0.489120 0.713640 0.490430 -0.130471
N4    N     N_R   0.510880 0.286360 0.509570 -0.124468
N5    N     N_2   0.462528 0.966814 0.496026 -0.104384
N6    N     N_2   0.531403 0.031359 0.512113 -0.149687
O1    O     O_R   0.503890 0.423710 0.387290 -0.577153
O2    O     O_3   0.604486 0.927360 0.592115 -0.624654
O3    O     O_3   0.032537 0.207962 0.459551 -0.668864
O4    O     O_3   0.962584 0.792176 0.491366 -0.672714
O5    O     O_3   0.840227 0.386032 0.374031 -0.639749
O6    O     O_3   0.158739 0.623877 0.582359 -0.660622
O7    O     O_3   0.389463 0.374247 0.743760 -0.624374
O8    O     O_3   0.633503 0.618108 0.269028 -0.625282
O9    O     O_3   0.401255 0.334124 0.257128 -0.638528
O10   O     O_3   0.617105 0.663094 0.736278 -0.619276
O11   O     O_R   0.496110 0.576290 0.612710 -0.572653
O12   O     O_R   0.496910 0.560910 0.381140 -0.634846
O13   O     O_R   0.503090 0.439090 0.618860 -0.613711
O14   O     O_R   0.373240 0.392210 0.504830 -0.620108
O15   O     O_R   0.626760 0.607790 0.495170 -0.623537
O16   O     O_R   0.366260 0.529410 0.498680 -0.639391
O17   O     O_R   0.633740 0.470590 0.501320 -0.646872
O18   O     O_3   0.386957 0.069668 0.417536 -0.644944
Zn1   Zn    Zn3+2 0.504660 0.408390 0.504100 0.946235
Zn2   Zn    Zn3+2 0.495340 0.591610 0.495900 0.942543

loop_
_geom_bond_atom_site_label_1
_geom_bond_atom_site_label_2
_ccdc_geom_bond_type
C25   C31   A    
C66   C68   S    
C46   H19   S    
C59   H50   S    
C34   C56   A    
C77   H94   S    
C23   C45   A    
C54   H40   S    
C27   C29   A    
C50   H37   S    
O17   Zn1   S    
C41   C42   S    
C14   C18   A    
C41   H9    S    
C11   N3    A    
C23   O5    S    
C43   C44   S    
C49   H24   S    
C10   C78   A    
C70   O8    S    
C32   H67   S    
C53   C54   S    
C26   C32   A    
C71   H80   S    
C59   H51   S    
C51   H33   S    
C57   H46   S    
C70   H76   S    
C17   C26   S    
C28   C37   A    
C40   H7    S    
C76   H93   S    
C35   C37   A    
C66   H70   S    
C22   N3    A    
C73   O9    S    
C10   O10   S    
C38   C39   A    
C14   O2    S    
C11   C14   A    
C9    O9    S    
C48   H27   S    
C52   H32   S    
C58   H49   S    
O14   Zn1   S    
C42   H13   S    
C33   C36   A    
C42   H11   S    
C73   C74   S    
C76   H92   S    
C11   H34   S    
C5    N1    S    
C57   O4    S    
C54   C55   S    
C37   C56   A    
C44   H18   S    
C69   H75   S    
C48   H26   S    
C60   O5    S    
C12   C78   S    
C43   H15   S    
C12   O13   A    
C31   C33   A    
C17   O15   A    
C70   C71   S    
C62   H59   S    
C13   H23   S    
C21   H56   S    
C50   H36   S    
C16   O16   A    
O16   Zn2   S    
C41   H10   S    
C55   H42   S    
C77   H95   S    
C42   H14   S    
C25   C29   A    
C80   O8    S    
C3    C80   A    
C74   H87   S    
C44   C46   S    
C43   H16   S    
C77   C79   S    
C24   C50   S    
C46   H21   S    
C55   H43   S    
C59   H52   S    
C74   C75   S    
C24   N4    A    
N4    Zn1   S    
C32   C35   A    
C34   O6    S    
C1    O12   A    
C2    O7    S    
C66   H69   S    
C4    C6    A    
C49   H22   S    
C5    C7    A    
C53   H38   S    
C68   C69   S    
C49   H25   S    
O11   Zn2   S    
C64   H64   S    
C43   O2    S    
C58   C59   S    
C47   H29   S    
C51   H35   S    
C51   C52   S    
C60   C61   S    
C15   C19   A    
N5    N6    D    
C9    C67   A    
C30   H89   S    
C68   H72   S    
C35   C39   A    
C44   H17   S    
C47   C48   S    
C52   H30   S    
C72   H81   S    
C66   O7    S    
C75   H90   S    
C79   H97   S    
C50   C51   S    
C63   H61   S    
C79   H98   S    
C36   C45   A    
C27   O3    S    
C76   C77   S    
C65   H68   S    
C17   O17   A    
C75   H88   S    
C76   O10   S    
C73   H85   S    
C40   C41   S    
C62   H58   S    
C54   H41   S    
C20   C22   A    
C26   C30   A    
C13   C15   A    
C75   H91   S    
O15   Zn2   S    
C12   O11   A    
C13   N4    A    
N3    Zn2   S    
O12   Zn2   S    
C65   H65   S    
C60   H54   S    
C74   H86   S    
C15   O18   S    
C16   O14   A    
C2    C78   A    
C61   H55   S    
C69   H73   S    
C16   C25   S    
C7    C9    A    
C46   H20   S    
C55   H44   S    
C48   C49   S    
C6    N2    S    
C34   C38   A    
C79   H96   S    
C45   H1    S    
C67   C80   A    
C69   H74   S    
C40   O18   S    
C63   C64   S    
C3    C5    A    
C19   N6    S    
C57   H47   S    
C6    C8    A    
C53   H39   S    
C64   H63   S    
C1    O1    A    
C27   C36   A    
C73   H84   S    
C63   O6    S    
C71   H79   S    
C33   C38   A    
C52   H31   S    
C70   H77   S    
C64   C65   S    
O1    Zn1   S    
C28   O4    S    
C53   O3    S    
C29   H2    S    
C68   H71   S    
C58   H48   S    
C8    H6    S    
C61   H57   S    
C57   C58   S    
C7    H5    S    
C4    H3    S    
C18   N5    S    
C23   C39   A    
C2    C4    A    
C28   C30   A    
C1    C67   S    
C72   H83   S    
C63   H62   S    
O13   Zn1   S    
C18   C20   A    
C61   C62   S    
C22   C47   S    
C31   H78   S    
N1    N2    D    
C20   H45   S    
C71   C72   S    
C8    C10   A    
C47   H28   S    
C21   C24   A    
C3    H4    S    
C72   H82   S    
C62   H60   S    
C65   H66   S    
C56   H12   S    
C60   H53   S    
C40   H8    S    
C19   C21   A    
