data_mof_unit_19203.cif
_audit_creation_date              2013-03-05T15:40:53-0500
_audit_creation_method            fapswitch 2.2
_symmetry_space_group_name_H-M    P1
_symmetry_Int_Tables_number       1
_space_group_crystal_system       triclinic
_cell_length_a                    27.967161
_cell_length_b                    18.78102
_cell_length_c                    16.81597
_cell_angle_alpha                 90.254201
_cell_angle_beta                  62.709862
_cell_angle_gamma                 90.465719
_cell_volume                      7849.25253153

loop_
_atom_site_label
_atom_site_type_symbol
_atom_site_description
_atom_site_fract_x
_atom_site_fract_y
_atom_site_fract_z
_atom_type_partial_charge
O1    O     O_R   0.255040 0.869590 0.478480 -0.514101
O2    O     O_R   0.744960 0.130410 0.521520 -0.530729
O3    O     O_R   0.744960 0.869590 0.521520 -0.530723
O4    O     O_R   0.255040 0.130410 0.478480 -0.516700
O5    O     O_R   0.755040 0.369590 0.478480 -0.520225
O6    O     O_R   0.244960 0.630410 0.521520 -0.531386
O7    O     O_R   0.244960 0.369590 0.521520 -0.534946
O8    O     O_R   0.755040 0.630410 0.478480 -0.531011
O9    O     O_R   0.182050 0.796550 0.624440 -0.580265
O10   O     O_R   0.817950 0.203450 0.375560 -0.580485
O11   O     O_R   0.817950 0.796550 0.375560 -0.589548
O12   O     O_R   0.182050 0.203450 0.624440 -0.579765
O13   O     O_R   0.682050 0.296550 0.624440 -0.559223
O14   O     O_R   0.317950 0.703450 0.375560 -0.568261
O15   O     O_R   0.317950 0.296550 0.375560 -0.578323
O16   O     O_R   0.682050 0.703450 0.624440 -0.571367
Cu1   Cu    Cu3+1 0.209920 0.785290 0.495070 1.050985
Cu2   Cu    Cu3+1 0.790080 0.214710 0.504930 1.025186
Cu3   Cu    Cu3+1 0.790080 0.785290 0.504930 1.055421
Cu4   Cu    Cu3+1 0.209920 0.214710 0.495070 1.061598
Cu5   Cu    Cu3+1 0.709920 0.285290 0.495070 1.025514
Cu6   Cu    Cu3+1 0.290080 0.714710 0.504930 1.015258
Cu7   Cu    Cu3+1 0.290080 0.285290 0.504930 1.013743
Cu8   Cu    Cu3+1 0.709920 0.714710 0.495070 1.038527
C1    C     C_R   0.292168 0.722933 0.331212 0.801061
C2    C     C_R   0.703960 0.269007 0.671341 0.794854
C3    C     C_R   0.704469 0.729968 0.671549 0.803235
C4    C     C_R   0.291926 0.277614 0.331409 0.793752
C5    C     C_R   0.792218 0.222993 0.331201 0.775809
C6    C     C_R   0.203920 0.768968 0.671332 0.766789
C7    C     C_R   0.203742 0.231375 0.671576 0.769045
C8    C     C_R   0.796548 0.768032 0.328105 0.744794
O17   O     O_R   0.250530 0.763330 0.367210 -0.587844
O18   O     O_R   0.749470 0.236670 0.632790 -0.593204
O19   O     O_R   0.749470 0.763330 0.632790 -0.573915
O20   O     O_R   0.250530 0.236670 0.367210 -0.583276
O21   O     O_R   0.750530 0.263330 0.367210 -0.605584
O22   O     O_R   0.249470 0.736670 0.632790 -0.599321
O23   O     O_R   0.249470 0.263330 0.632790 -0.598067
O24   O     O_R   0.750530 0.736670 0.367210 -0.594552
O25   O     O_R   0.177260 0.690030 0.513710 -0.586065
O26   O     O_R   0.822740 0.309970 0.486290 -0.585850
O27   O     O_R   0.822740 0.690030 0.486290 -0.577232
O28   O     O_R   0.177260 0.309970 0.513710 -0.587189
O29   O     O_R   0.677260 0.190030 0.513710 -0.592762
O30   O     O_R   0.322740 0.809970 0.486290 -0.593154
O31   O     O_R   0.322740 0.190030 0.486290 -0.595613
O32   O     O_R   0.677260 0.809970 0.513710 -0.584822
C9    C     C_R   0.196415 0.631789 0.527739 0.793276
C10   C     C_R   0.803972 0.368096 0.470154 0.826047
C11   C     C_R   0.803477 0.631820 0.471891 0.815965
C12   C     C_R   0.199399 0.369029 0.517675 0.796812
C13   C     C_R   0.697560 0.131339 0.524372 0.789470
C14   C     C_R   0.302509 0.868621 0.475441 0.820424
C15   C     C_R   0.298403 0.131242 0.489476 0.834929
C16   C     C_R   0.701721 0.868729 0.510232 0.820583
C17   C     C_R   0.040495 0.627601 0.528369 -0.083026
C18   C     C_R   0.969346 0.373685 0.434970 -0.078141
C19   C     C_R   0.955375 0.629690 0.483043 -0.084910
C20   C     C_R   0.063145 0.374341 0.457468 -0.077039
C21   C     C_R   0.529495 0.117537 0.573812 -0.080074
C22   C     C_R   0.471551 0.883036 0.423211 -0.076649
C23   C     C_R   0.431271 0.118212 0.563447 -0.077310
C24   C     C_R   0.568230 0.880344 0.438617 -0.079040
C25   C     C_R   0.014886 0.692618 0.530163 0.242520
C26   C     C_R   0.998382 0.310035 0.423432 0.253499
C27   C     C_R   0.973271 0.693971 0.505077 0.242054
C28   C     C_R   0.044748 0.309777 0.436401 0.212531
C29   C     C_R   0.493814 0.175481 0.609099 0.251790
C30   C     C_R   0.506943 0.824648 0.389015 0.249896
C31   C     C_R   0.444451 0.175183 0.605398 0.260934
C32   C     C_R   0.554778 0.822891 0.397647 0.250312
C33   C     C_R   0.979145 0.564862 0.485270 -0.021254
C34   C     C_R   0.033529 0.437051 0.471456 -0.017215
C35   C     C_R   0.023684 0.564325 0.503047 -0.020478
C36   C     C_R   0.987079 0.436954 0.458737 -0.019160
C37   C     C_R   0.466184 0.059592 0.530157 -0.020638
C38   C     C_R   0.534014 0.939880 0.469597 -0.019966
C39   C     C_R   0.515022 0.058981 0.536050 -0.022231
C40   C     C_R   0.485649 0.941085 0.462179 -0.020747
C41   C     C_R   0.451595 0.000806 0.492828 0.057438
C42   C     C_R   0.548878 0.999041 0.506009 0.057044
C43   C     C_R   0.959515 0.500877 0.466300 0.053394
C44   C     C_R   0.051287 0.500409 0.495728 0.053230
C45   C     C_R   0.384933 0.939837 0.459223 -0.037544
C46   C     C_R   0.615459 0.060032 0.539770 -0.041535
C47   C     C_R   0.629785 0.936733 0.488237 -0.039847
C48   C     C_R   0.370544 0.063107 0.511112 -0.038067
C49   C     C_R   0.889612 0.436006 0.445505 -0.036487
C50   C     C_R   0.114937 0.563798 0.534477 -0.038662
C51   C     C_R   0.127246 0.437212 0.496797 -0.033606
C52   C     C_R   0.887150 0.566064 0.455991 -0.035717
C53   C     C_R   0.330722 0.936716 0.472010 -0.213403
C54   C     C_R   0.669524 0.063175 0.527457 -0.211185
C55   C     C_R   0.676318 0.935477 0.502123 -0.233269
C56   C     C_R   0.324014 0.064479 0.497148 -0.233410
C57   C     C_R   0.837174 0.435056 0.450869 -0.229270
C58   C     C_R   0.164673 0.564818 0.539087 -0.229974
C59   C     C_R   0.171146 0.435981 0.518692 -0.207807
C60   C     C_R   0.836345 0.565805 0.454569 -0.223973
C61   C     C_R   0.300234 0.999679 0.493736 0.374820
C62   C     C_R   0.700060 0.000276 0.505666 0.371003
C63   C     C_R   0.813842 0.500288 0.446216 0.367426
C64   C     C_R   0.188054 0.499811 0.542693 0.363980
C65   C     C_R   0.402496 0.001348 0.487340 0.078680
C66   C     C_R   0.597917 0.998517 0.511640 0.075137
C67   C     C_R   0.911790 0.500924 0.456319 0.073733
C68   C     C_R   0.097527 0.500258 0.510150 0.068981
C69   C     C_R   0.616029 0.880164 0.447015 -0.125020
C70   C     C_R   0.384164 0.119375 0.552973 -0.129883
C71   C     C_R   0.421419 0.883241 0.422157 -0.122212
C72   C     C_R   0.579057 0.116615 0.576697 -0.125660
C73   C     C_R   0.111777 0.377671 0.461814 -0.125603
C74   C     C_R   0.915177 0.629245 0.455821 -0.117347
C75   C     C_R   0.921706 0.374550 0.426407 -0.134036
C76   C     C_R   0.082406 0.624598 0.551969 -0.127772
H1    H     H_    0.644405 0.837941 0.415431 0.204358
H2    H     H_    0.356663 0.162779 0.582181 0.210515
H3    H     H_    0.411234 0.839489 0.390981 0.205817
H4    H     H_    0.588542 0.159120 0.610545 0.201766
H5    H     H_    0.138179 0.334192 0.432007 0.184202
H6    H     H_    0.909070 0.678548 0.429868 0.201966
H7    H     H_    0.911252 0.327637 0.400724 0.208534
H8    H     H_    0.088274 0.669546 0.586618 0.201592
C77   C     C_R   0.217590 0.758769 0.955321 0.027742
C78   C     C_R   0.775326 0.220860 0.049027 0.027298
C79   C     C_R   0.794213 0.740282 0.033723 0.023345
C80   C     C_R   0.206724 0.260098 0.964388 0.023373
C81   C     C_R   0.719197 0.261334 0.954067 0.028618
C82   C     C_R   0.273795 0.718125 0.050141 0.029247
C83   C     C_R   0.267248 0.292292 0.056149 0.028244
C84   C     C_R   0.734788 0.707397 0.940266 0.024916
C85   C     C_R   0.261852 0.712488 0.915508 0.044524
C86   C     C_R   0.725790 0.256216 0.092936 0.041954
C87   C     C_R   0.752576 0.688836 0.068972 0.046431
C88   C     C_R   0.256675 0.295928 0.920203 0.045668
C89   C     C_R   0.763741 0.215513 0.914126 0.038065
C90   C     C_R   0.224259 0.753471 0.094195 0.036258
C91   C     C_R   0.213055 0.269012 0.104305 0.036173
C92   C     C_R   0.776246 0.758941 0.906169 0.035829
C93   C     C_R   0.294266 0.700915 0.958680 0.040648
C94   C     C_R   0.702704 0.285565 0.041988 0.047527
C95   C     C_R   0.725577 0.668361 0.018173 0.056145
C96   C     C_R   0.289433 0.304588 0.963326 0.022567
C97   C     C_R   0.796082 0.204052 0.957431 0.038629
C98   C     C_R   0.201117 0.782905 0.043308 0.040760
C99   C     C_R   0.184035 0.247597 0.057293 0.032887
C100  C     C_R   0.809587 0.768993 0.947881 0.037628
C101  C     C_R   0.151636 0.836744 0.941809 0.057909
C102  C     C_R   0.856264 0.174065 0.051153 0.058505
C103  C     C_R   0.865994 0.809545 0.044111 0.053256
C104  C     C_R   0.132803 0.193941 0.956012 0.051247
C105  C     C_R   0.652274 0.337853 0.941291 0.064635
C106  C     C_R   0.355272 0.672476 0.051550 0.059185
C107  C     C_R   0.352913 0.328646 0.053458 0.045613
C108  C     C_R   0.662695 0.640965 0.927597 0.062451
C109  C     C_R   0.122743 0.857318 0.893996 -0.121945
C110  C     C_R   0.882587 0.150269 0.101601 -0.121651
C111  C     C_R   0.887077 0.842274 0.098294 -0.121638
C112  C     C_R   0.112546 0.158859 0.901809 -0.116965
C113  C     C_R   0.622872 0.357495 0.893970 -0.121403
C114  C     C_R   0.382184 0.649808 0.101607 -0.126909
C115  C     C_R   0.381553 0.349804 0.101708 -0.122957
C116  C     C_R   0.627017 0.634017 0.888854 -0.111129
C117  C     C_R   0.138825 0.830404 0.807885 -0.287321
C118  C     C_R   0.860928 0.168045 0.192235 -0.278042
C119  C     C_R   0.864414 0.825111 0.189378 -0.279512
C120  C     C_R   0.135639 0.174930 0.810387 -0.278380
C121  C     C_R   0.638683 0.330019 0.808182 -0.250468
C122  C     C_R   0.360862 0.668280 0.191972 -0.242160
C123  C     C_R   0.361085 0.330531 0.191430 -0.256242
C124  C     C_R   0.639555 0.667947 0.807900 -0.260833
H9    H     H_    0.119590 0.849834 0.769140 0.197323
H10   H     H_    0.882592 0.153896 0.229217 0.204051
H11   H     H_    0.878830 0.852397 0.231219 0.193812
H12   H     H_    0.121103 0.147514 0.768792 0.193552
H13   H     H_    0.618918 0.348575 0.769872 0.208223
H14   H     H_    0.382984 0.655084 0.228503 0.209636
H15   H     H_    0.384595 0.341468 0.226487 0.194426
H16   H     H_    0.615432 0.657200 0.773866 0.194547
C125  C     C_R   0.180639 0.781285 0.769170 -0.117541
C126  C     C_R   0.810930 0.201173 0.236955 -0.124403
C127  C     C_R   0.822108 0.775944 0.228729 -0.113449
C128  C     C_R   0.178530 0.223196 0.770406 -0.112819
C129  C     C_R   0.680912 0.281518 0.769138 -0.122647
C130  C     C_R   0.310658 0.700843 0.237052 -0.121377
C131  C     C_R   0.309858 0.300478 0.237888 -0.115795
C132  C     C_R   0.683885 0.713363 0.768217 -0.126487
C133  C     C_R   0.203697 0.752144 0.821884 0.062743
C134  C     C_R   0.779902 0.212743 0.190676 0.053596
C135  C     C_R   0.802076 0.741394 0.173743 0.056315
C136  C     C_R   0.200122 0.256076 0.823847 0.056250
C137  C     C_R   0.704678 0.253391 0.821341 0.054221
C138  C     C_R   0.279174 0.711444 0.191292 0.047549
C139  C     C_R   0.276364 0.294657 0.194692 0.052051
C140  C     C_R   0.711974 0.733248 0.817875 0.055191
C141  C     C_R   0.190467 0.782100 0.906580 0.071673
C142  C     C_R   0.804047 0.202761 0.096965 0.073193
C143  C     C_R   0.820743 0.763815 0.084143 0.073914
C144  C     C_R   0.179788 0.236548 0.914676 0.073008
C145  C     C_R   0.691599 0.283807 0.905747 0.073650
C146  C     C_R   0.302938 0.700806 0.097688 0.075248
C147  C     C_R   0.299002 0.304772 0.101357 0.078254
C148  C     C_R   0.702954 0.694125 0.895459 0.075606
C149  C     C_R   0.144640 0.869410 0.022591 -0.169677
C150  C     C_R   0.879669 0.169873 0.956674 -0.166461
C151  C     C_R   0.888535 0.819638 0.950609 -0.170528
C152  C     C_R   0.107821 0.189192 0.050166 -0.170031
C153  C     C_R   0.645247 0.370773 0.021969 -0.180081
C154  C     C_R   0.378232 0.667643 0.957140 -0.162932
C155  C     C_R   0.375835 0.330871 0.959353 -0.149247
C156  C     C_R   0.660755 0.595351 0.995434 -0.161874
C157  C     C_R   0.165521 0.839810 0.075168 -0.206152
C158  C     C_R   0.849246 0.180359 0.911469 -0.205355
C159  C     C_R   0.859301 0.804066 0.904799 -0.198031
C160  C     C_R   0.133106 0.214305 0.099474 -0.180545
C161  C     C_R   0.666748 0.342024 0.074043 -0.219100
C162  C     C_R   0.347421 0.677290 0.912452 -0.210422
C163  C     C_R   0.344495 0.321270 0.915493 -0.158427
C164  C     C_R   0.690183 0.609833 0.041437 -0.168132
C165  C     C_R   0.240159 0.694600 0.792989 -0.178340
C166  C     C_R   0.725146 0.232736 0.234256 -0.178577
C167  C     C_R   0.764616 0.684591 0.203767 -0.170762
C168  C     C_R   0.241004 0.308775 0.791107 -0.149615
C169  C     C_R   0.741671 0.196387 0.792264 -0.159508
C170  C     C_R   0.224348 0.731162 0.235272 -0.160148
C171  C     C_R   0.220555 0.281925 0.241677 -0.166439
C172  C     C_R   0.748744 0.790581 0.793097 -0.139870
C173  C     C_R   0.271149 0.678280 0.835643 -0.212296
C174  C     C_R   0.699903 0.258703 0.186344 -0.215295
C175  C     C_R   0.739878 0.659692 0.153435 -0.154086
C176  C     C_R   0.270886 0.324875 0.835735 -0.131390
C177  C     C_R   0.773117 0.181090 0.834395 -0.199574
C178  C     C_R   0.198687 0.756381 0.187605 -0.200935
C179  C     C_R   0.189839 0.268648 0.197840 -0.183751
C180  C     C_R   0.781278 0.801810 0.834406 -0.174878
H17   H     H_    0.125733 0.919978 0.046227 0.189870
H18   H     H_    0.921982 0.160638 0.915295 0.179397
H19   H     H_    0.929010 0.838373 0.910091 0.189295
H20   H     H_    0.067748 0.168119 0.088385 0.193976
H21   H     H_    0.625565 0.420690 0.046349 0.171953
H22   H     H_    0.420534 0.658801 0.915267 0.178965
H23   H     H_    0.418547 0.337488 0.917606 0.202162
H24   H     H_    0.637978 0.546375 0.012608 0.155511
H25   H     H_    0.157176 0.865876 0.137724 0.163631
H26   H     H_    0.868871 0.174174 0.839466 0.159945
H27   H     H_    0.877314 0.816773 0.834246 0.177702
H28   H     H_    0.112296 0.204750 0.170575 0.191320
H29   H     H_    0.658333 0.368208 0.136567 0.148079
H30   H     H_    0.366817 0.670784 0.840496 0.153745
H31   H     H_    0.364610 0.323950 0.843202 0.212397
H32   H     H_    0.685703 0.572772 0.093265 0.134435
H33   H     H_    0.245080 0.660485 0.738135 0.169908
H34   H     H_    0.699939 0.227203 0.305164 0.185301
H35   H     H_    0.754628 0.656434 0.265060 0.173875
H36   H     H_    0.250653 0.339513 0.731866 0.172334
H37   H     H_    0.746613 0.161665 0.737849 0.179416
H38   H     H_    0.199459 0.726181 0.306349 0.194334
H39   H     H_    0.198793 0.284283 0.312998 0.170617
H40   H     H_    0.751724 0.829517 0.744030 0.178628
H41   H     H_    0.300433 0.636132 0.808041 0.148360
H42   H     H_    0.658791 0.276820 0.223080 0.156508
H43   H     H_    0.709664 0.618780 0.183890 0.155640
H44   H     H_    0.303855 0.362424 0.804839 0.155781
H45   H     H_    0.802685 0.139284 0.806720 0.155597
H46   H     H_    0.157587 0.774504 0.224552 0.167323
H47   H     H_    0.147385 0.260659 0.239026 0.182511
H48   H     H_    0.808632 0.846821 0.812036 0.158070
O33   O     O_R   0.051640 0.926880 0.885090 -0.587357
O34   O     O_R   0.948360 0.073120 0.114910 -0.582347
O35   O     O_R   0.948360 0.926880 0.114910 -0.580303
O36   O     O_R   0.051640 0.073120 0.885090 -0.588866
O37   O     O_R   0.551640 0.426880 0.885090 -0.572670
O38   O     O_R   0.448360 0.573120 0.114910 -0.559887
O39   O     O_R   0.448360 0.426880 0.114910 -0.574534
O40   O     O_R   0.551640 0.573120 0.885090 -0.588048
Cu9   Cu    Cu3+1 0.495240 0.500000 0.924150 0.986601
Cu10  Cu    Cu3+1 0.504760 0.500000 0.075850 0.996772
Cu11  Cu    Cu3+1 0.995240 0.000000 0.924150 0.963732
Cu12  Cu    Cu3+1 0.004760 0.000000 0.075850 0.975426
C181  C     C_R   0.927999 0.900376 0.064787 0.811322
C182  C     C_R   0.071698 0.100213 0.935502 0.786242
C183  C     C_R   0.076005 0.906296 0.931734 0.805489
C184  C     C_R   0.927471 0.098656 0.065303 0.800082
C185  C     C_R   0.427309 0.401108 0.065125 0.811290
C186  C     C_R   0.577278 0.590966 0.930392 0.800333
C187  C     C_R   0.575983 0.406242 0.931772 0.789547
C188  C     C_R   0.427366 0.598561 0.065329 0.820673
O41   O     O_R   0.940620 0.926560 0.986760 -0.590186
O42   O     O_R   0.059380 0.073440 0.013240 -0.595018
O43   O     O_R   0.059380 0.926560 0.013240 -0.595467
O44   O     O_R   0.940620 0.073440 0.986760 -0.592146
O45   O     O_R   0.440620 0.426560 0.986760 -0.591036
O46   O     O_R   0.559380 0.573440 0.013240 -0.583711
O47   O     O_R   0.559380 0.426560 0.013240 -0.612441
O48   O     O_R   0.440620 0.573440 0.986760 -0.598592
N1    N     N_R   0.589706 0.762570 0.363799 0.136883
O49   O     O_R   0.608951 0.744529 0.280007 -0.312586
O50   O     O_R   0.598483 0.722025 0.418231 -0.355907
N2    N     N_R   0.408007 0.233375 0.644043 0.129192
O51   O     O_R   0.423554 0.298310 0.617658 -0.326028
O52   O     O_R   0.361091 0.222117 0.711826 -0.385639
N3    N     N_R   0.493916 0.765715 0.347609 0.141971
O53   O     O_R   0.490715 0.775042 0.273570 -0.350179
O54   O     O_R   0.489954 0.701682 0.379399 -0.303712
N4    N     N_R   0.507006 0.234624 0.649991 0.139317
O55   O     O_R   0.475406 0.251429 0.732827 -0.340480
O56   O     O_R   0.547731 0.275762 0.602077 -0.351396
N5    N     N_R   0.070608 0.243234 0.434578 0.122176
O57   O     O_R   0.077988 0.195567 0.373716 -0.328093
O58   O     O_R   0.080771 0.226549 0.500323 -0.342382
N6    N     N_R   0.948216 0.760470 0.505021 0.133552
O59   O     O_R   0.977330 0.814587 0.460341 -0.304410
O60   O     O_R   0.896656 0.768362 0.554096 -0.346943
N7    N     N_R   0.979074 0.244611 0.403954 0.145569
O61   O     O_R   0.983719 0.233235 0.324354 -0.381868
O62   O     O_R   0.959387 0.194956 0.464373 -0.302533
N8    N     N_R   0.031691 0.757748 0.555267 0.137097
O63   O     O_R   0.996961 0.796479 0.620023 -0.321959
O64   O     O_R   0.080671 0.781254 0.508842 -0.355041
O65   O     O_3   0.246125 0.997873 0.514871 -0.530443
C189  C     C_3   0.215409 0.997247 0.609228 0.086952
H49   H     H_    0.222448 0.046592 0.639504 0.118192
H50   H     H_    0.225324 0.950028 0.638709 0.126227
C190  C     C_3   0.155914 0.993458 0.633875 -0.673964
H51   H     H_    0.147176 0.944169 0.606018 0.261905
H52   H     H_    0.131594 0.992914 0.707832 0.190396
H53   H     H_    0.144509 0.040528 0.606710 0.253718
O66   O     O_3   0.754148 0.002140 0.484641 -0.534644
C191  C     C_3   0.784898 0.002821 0.390295 0.088620
H54   H     H_    0.774711 0.049757 0.360735 0.120662
H55   H     H_    0.778174 0.953244 0.360061 0.119966
C192  C     C_3   0.844360 0.007368 0.365720 -0.672878
H56   H     H_    0.856062 0.960552 0.392858 0.251910
H57   H     H_    0.868698 0.008027 0.291769 0.195062
H58   H     H_    0.852757 0.056862 0.393645 0.260469
O67   O     O_3   0.767041 0.499924 0.437308 -0.531798
C193  C     C_3   0.781256 0.500673 0.345106 0.097111
H59   H     H_    0.805548 0.453024 0.310608 0.127199
H60   H     H_    0.804479 0.549832 0.312545 0.112219
C194  C     C_3   0.730325 0.499446 0.333814 -0.723428
H61   H     H_    0.705151 0.546404 0.367434 0.253681
H62   H     H_    0.741016 0.500976 0.261561 0.177998
H63   H     H_    0.706915 0.450050 0.363622 0.254329
O68   O     O_3   0.230721 0.499305 0.563108 -0.530830
C195  C     C_3   0.210100 0.499986 0.657098 0.105850
H64   H     H_    0.184964 0.451678 0.687428 0.121660
H65   H     H_    0.185660 0.548540 0.686953 0.115060
C196  C     C_3   0.256821 0.500190 0.679899 -0.760171
H66   H     H_    0.282057 0.548545 0.651948 0.246987
H67   H     H_    0.241294 0.499832 0.753666 0.184842
H68   H     H_    0.282096 0.452408 0.651004 0.252716

loop_
_geom_bond_atom_site_label_1
_geom_bond_atom_site_label_2
_geom_bond_distance
_ccdc_geom_bond_type
C189  H50   1.114915 S    
C140  C172  1.408396 A    
C159  H27   1.082030 S    
Cu2   Cu5   2.683583 S    
C30   N3    1.435908 S    
C70   H2    1.075897 S    
C174  H42   1.082845 S    
O67   C193  1.413161 S    
N3    O54   1.301369 A    
C192  H56   1.110711 S    
C25   N8    1.436434 S    
C110  C118  1.397655 A    
C122  H14   1.083485 S    
C112  C182  1.493595 S    
C77   C98   1.406879 A    
C2    C129  1.483988 S    
C64   O68   1.384818 S    
C189  C190  1.520337 S    
C139  C147  1.410593 A    
Cu6   O22   1.960459 S    
C137  C145  1.412384 A    
C22   C30   1.415283 A    
C82   C93   1.410274 A    
C95   C164  1.404345 A    
Cu11  O41   1.961680 S    
O3    Cu3   1.970421 S    
C50   C76   1.409487 A    
C140  C148  1.417505 A    
C102  C110  1.429248 A    
C19   C33   1.400765 A    
C82   C146  1.418998 A    
C55   C62   1.395697 A    
C109  C183  1.486996 S    
C150  C158  1.392039 A    
N5    O58   1.301504 A    
C162  H30   1.082209 S    
C36   C43   1.405522 A    
O25   C9    1.291041 A    
C17   C76   1.400873 A    
C105  C145  1.416734 A    
C37   C39   1.414154 A    
O36   C182  1.311427 A    
C118  H10   1.083539 S    
C75   H7    1.075418 S    
C191  H54   1.114959 S    
C154  H22   1.077630 S    
C4    C131  1.479325 S    
C53   C61   1.409162 A    
C72   H4    1.078231 S    
C81   C94   1.406356 A    
C156  C164  1.388544 A    
C3    O19   1.280619 A    
C26   N7    1.434035 S    
C105  C113  1.432839 A    
C93   C162  1.399679 A    
C38   C42   1.414966 A    
N3    O53   1.301219 A    
O12   Cu4   1.957413 S    
N4    O55   1.301075 A    
O13   Cu5   1.956696 S    
C150  H18   1.077867 S    
C188  O48   1.286020 A    
C57   C63   1.411921 A    
C23   C31   1.415543 A    
C164  H32   1.078703 S    
C91   C179  1.399674 A    
O37   C187  1.314156 A    
C28   N5    1.442168 S    
O38   C188  1.313454 A    
C109  C117  1.398059 A    
C82   C90   1.406506 A    
C135  C167  1.411427 A    
C8    O24   1.284828 A    
N2    O51   1.300955 A    
C168  H36   1.074489 S    
C192  H58   1.110607 S    
C133  C141  1.412410 A    
C50   C58   1.428148 A    
O2    C13   1.304605 A    
C80   C99   1.410774 A    
C160  H28   1.078225 S    
C139  C171  1.407977 A    
C153  C161  1.382831 A    
C137  C169  1.416013 A    
C106  C154  1.416296 A    
Cu3   O19   1.960589 S    
C63   O67   1.383956 S    
O10   Cu2   1.956696 S    
C187  O47   1.285675 A    
C112  C120  1.400758 A    
C97   C158  1.399980 A    
O4    Cu4   1.970423 S    
C81   C89   1.410200 A    
C184  O44   1.286809 A    
O65   C189  1.416272 S    
O33   C183  1.313825 A    
C126  C134  1.424677 A    
C103  C151  1.413278 A    
C33   C43   1.412001 A    
C138  C146  1.413970 A    
C16   C55   1.483126 S    
C49   C75   1.410741 A    
C196  H66   1.110387 S    
C118  C126  1.397708 A    
O27   C11   1.285209 A    
C32   N1    1.436682 S    
C18   C36   1.409118 A    
C181  O41   1.290826 A    
C6    O22   1.289502 A    
C34   C36   1.410013 A    
C22   C40   1.413151 A    
O7    C12   1.305074 A    
Cu2   O26   1.961945 S    
C38   C40   1.414550 A    
C35   C44   1.406659 A    
Cu10  O46   1.961680 S    
C104  C152  1.410225 A    
N6    O59   1.301096 A    
C186  O46   1.289084 A    
C71   H3    1.077254 S    
C190  H52   1.110737 S    
N8    O64   1.301297 A    
C19   C27   1.414760 A    
C45   C53   1.431079 A    
C182  O42   1.292450 A    
C22   C71   1.410321 A    
C111  C119  1.400873 A    
C47   C55   1.424064 A    
C29   N4    1.435961 S    
C81   C145  1.420394 A    
C78   C142  1.418175 A    
O16   C3    1.309801 A    
C136  C144  1.412757 A    
O29   C13   1.294121 A    
Cu9   Cu10  2.683509 S    
N1    O50   1.301236 A    
C123  H15   1.083604 S    
C46   C66   1.413482 A    
C161  H29   1.083094 S    
C107  C147  1.414812 A    
C121  H13   1.083367 S    
Cu4   O28   1.972918 S    
C78   C97   1.409902 A    
Cu5   O29   1.961945 S    
C194  H62   1.110636 S    
C179  H47   1.075119 S    
C41   C65   1.417970 A    
Cu12  O43   1.972543 S    
Cu7   O31   1.972919 S    
C5    C126  1.480099 S    
Cu8   O32   1.972918 S    
O39   Cu10  1.956542 S    
C102  C150  1.415937 A    
C153  H21   1.071460 S    
C107  C115  1.430268 A    
C103  C111  1.427405 A    
C195  H65   1.114536 S    
Cu4   Cu7   2.664788 S    
O5    Cu5   1.955875 S    
C114  C188  1.484207 S    
C157  H25   1.082986 S    
C20   C28   1.419060 A    
O9    C6    1.309684 A    
O26   C10   1.297463 A    
O11   C8    1.308020 A    
C196  H68   1.110220 S    
C193  H60   1.114745 S    
O12   C7    1.305171 A    
O13   C2    1.310357 A    
C116  C124  1.395909 A    
C5    O21   1.289497 A    
C115  C123  1.394475 A    
C195  C196  1.521064 S    
C119  H11   1.083431 S    
C11   C60   1.495589 S    
C120  H12   1.083421 S    
C175  H43   1.078335 S    
C176  H44   1.082042 S    
C13   C54   1.484356 S    
C24   C38   1.411531 A    
C130  C138  1.425702 A    
C34   C44   1.414620 A    
C15   C56   1.484136 S    
C79   C143  1.425812 A    
C39   C42   1.411631 A    
C172  H40   1.078785 S    
C173  H41   1.082339 S    
C193  C194  1.520842 S    
C155  C163  1.390605 A    
O1    Cu1   1.955875 S    
C170  C178  1.385006 A    
C116  C186  1.473904 S    
O34   C184  1.312311 A    
C17   C35   1.408759 A    
C50   C68   1.413301 A    
C48   C65   1.410257 A    
C24   C69   1.407209 A    
C21   C39   1.413787 A    
O7    Cu7   1.970421 S    
C110  C184  1.483195 S    
O8    Cu8   1.970423 S    
C62   O66   1.386833 S    
C59   C64   1.408935 A    
C42   C66   1.417506 A    
C83   C91   1.418080 A    
C177  H45   1.082266 S    
C73   H5    1.063030 S    
O40   Cu9   1.956543 S    
C166  C174  1.384210 A    
Cu11  O44   1.972540 S    
C87   C175  1.408630 A    
C51   C59   1.434775 A    
C21   C72   1.409248 A    
C1    O17   1.289183 A    
C48   C56   1.424803 A    
C7    C128  1.486177 S    
C33   C35   1.408097 A    
C8    C127  1.493566 S    
C170  H38   1.076499 S    
C115  C185  1.485859 S    
C69   H1    1.077359 S    
O40   C186  1.304424 A    
O11   Cu3   1.957413 S    
C191  H55   1.114214 S    
C89   C97   1.415381 A    
C79   C87   1.412364 A    
C80   C88   1.412022 A    
O35   C181  1.309291 A    
C108  C156  1.410436 A    
C27   N6    1.437238 S    
C21   C29   1.414606 A    
O6    Cu6   1.955873 S    
O33   Cu11  1.970402 S    
O66   C191  1.416206 S    
O34   Cu12  1.970399 S    
C14   C53   1.484574 S    
C125  C133  1.426677 A    
C167  C175  1.393541 A    
C25   C27   1.408540 A    
C191  C192  1.520314 S    
N4    O56   1.301167 A    
Cu11  Cu12  2.683509 S    
C128  C136  1.428371 A    
C83   C147  1.426768 A    
C151  H19   1.075999 S    
C79   C100  1.411862 A    
C48   C70   1.410723 A    
C124  H16   1.083618 S    
C84   C95   1.419921 A    
C166  H34   1.076399 S    
C189  H49   1.114261 S    
C149  C157  1.383803 A    
N7    O61   1.301060 A    
C163  H31   1.081556 S    
C56   C61   1.395679 A    
C152  H20   1.077173 S    
Cu1   O17   1.960458 S    
C106  C146  1.412427 A    
Cu3   O27   1.972919 S    
C192  H57   1.110722 S    
C84   C148  1.425627 A    
C155  H23   1.079139 S    
C136  C168  1.413911 A    
C101  C149  1.418015 A    
C183  O43   1.285861 A    
C194  H61   1.110761 S    
C60   C63   1.413086 A    
O37   Cu9   1.970402 S    
C80   C144  1.425044 A    
C86   C94   1.404255 A    
C114  C122  1.397433 A    
C37   C41   1.414525 A    
C122  C130  1.397824 A    
C151  C159  1.385320 A    
C149  H17   1.073136 S    
O35   Cu12  1.956542 S    
Cu6   O30   1.961945 S    
O4    C15   1.307843 A    
C6    C125  1.483586 S    
O5    C10   1.310737 A    
C90   C178  1.396969 A    
C134  C142  1.413527 A    
C76   H8    1.077091 S    
C51   C68   1.409156 A    
C17   C25   1.413867 A    
C45   C71   1.409997 A    
C106  C114  1.430266 A    
C47   C69   1.410193 A    
C84   C92   1.409697 A    
C85   C93   1.415673 A    
Cu1   Cu6   2.683583 S    
C169  C177  1.391107 A    
C138  C170  1.414971 A    
C134  C166  1.414564 A    
Cu3   Cu8   2.664788 S    
C88   C96   1.413281 A    
C105  C153  1.418276 A    
O10   C5    1.306909 A    
O14   Cu6   1.956696 S    
O15   C4    1.302441 A    
Cu9   O48   1.972540 S    
C19   C74   1.394703 A    
Cu10  O47   1.972543 S    
C111  C181  1.487231 S    
N6    O60   1.301335 A    
C3    C132  1.488150 S    
O14   C1    1.307578 A    
C190  H51   1.110628 S    
Cu12  O42   1.961680 S    
C98   C157  1.394074 A    
C1    C130  1.481035 S    
C169  H37   1.077882 S    
C49   C67   1.411902 A    
Cu4   O20   1.960587 S    
C44   C68   1.420857 A    
Cu5   O21   1.960458 S    
C4    O20   1.282422 A    
C165  C173  1.391375 A    
C92   C180  1.405471 A    
C129  C137  1.427020 A    
C101  C109  1.432599 A    
C102  C142  1.412104 A    
C83   C96   1.409798 A    
C26   C28   1.410149 A    
C104  C112  1.431076 A    
O2    Cu2   1.955873 S    
N1    O49   1.301218 A    
C92   C100  1.411687 A    
N5    O57   1.301030 A    
C88   C176  1.398836 A    
C91   C99   1.423269 A    
C135  C143  1.414484 A    
C168  C176  1.386405 A    
C133  C165  1.415208 A    
C178  H46   1.082918 S    
C117  H9    1.083402 S    
C152  C160  1.392401 A    
C20   C34   1.401163 A    
C29   C31   1.410127 A    
C31   N2    1.435268 S    
C46   C54   1.429772 A    
C9    C58   1.495048 S    
C2    O18   1.289000 A    
C119  C127  1.400067 A    
C7    O23   1.283437 A    
C120  C128  1.400281 A    
N2    O52   1.300671 A    
C171  H39   1.068353 S    
C180  H48   1.081554 S    
C86   C174  1.396681 A    
C77   C141  1.420515 A    
C196  H67   1.110609 S    
C104  C144  1.414362 A    
O30   C14   1.293582 A    
C20   C73   1.396007 A    
C45   C65   1.413616 A    
C78   C86   1.406402 A    
C18   C26   1.412572 A    
C113  C121  1.398247 A    
N7    O62   1.300842 A    
C103  C143  1.413743 A    
C96   C163  1.405375 A    
C99   C160  1.409191 A    
C51   C73   1.415394 A    
C49   C57   1.427405 A    
C190  H53   1.110707 S    
C46   C72   1.408337 A    
O1    C14   1.305212 A    
C94   C161  1.393310 A    
N8    O63   1.301120 A    
O3    C16   1.307200 A    
C52   C67   1.410266 A    
C158  H26   1.082207 S    
C165  H33   1.077075 S    
Cu2   O18   1.960459 S    
O8    C11   1.307603 A    
C132  C140  1.431077 A    
O9    Cu1   1.956696 S    
O36   Cu11  1.956543 S    
C18   C75   1.404441 A    
C89   C177  1.398929 A    
C85   C173  1.399605 A    
C108  C148  1.408921 A    
C100  C159  1.399114 A    
C52   C60   1.431957 A    
O31   C15   1.280647 A    
C23   C37   1.410535 A    
C194  H63   1.110788 S    
C77   C85   1.410149 A    
O32   C16   1.280966 A    
C10   C57   1.502473 S    
C131  C139  1.427807 A    
O38   Cu10  1.970399 S    
C61   O65   1.386924 S    
C40   C41   1.411672 A    
C127  C135  1.433060 A    
C171  C179  1.385317 A    
C12   C59   1.486389 S    
C154  C162  1.391975 A    
C123  C131  1.394935 A    
C90   C98   1.405197 A    
C117  C125  1.398742 A    
C23   C70   1.407279 A    
C107  C155  1.409548 A    
C121  C129  1.398837 A    
C156  H24   1.076753 S    
O28   C12   1.282245 A    
C195  H64   1.114630 S    
C47   C66   1.409530 A    
C124  C132  1.392508 A    
Cu7   O23   1.960589 S    
O15   Cu7   1.957413 S    
C87   C95   1.425317 A    
Cu8   O24   1.960587 S    
C43   C67   1.419557 A    
C24   C32   1.415958 A    
O6    C9    1.313472 A    
Cu1   O25   1.961945 S    
C172  C180  1.389283 A    
C74   H6    1.073108 S    
C167  H35   1.076303 S    
Cu9   O45   1.961680 S    
C108  C116  1.424918 A    
O16   Cu8   1.957413 S    
C193  H59   1.114820 S    
C185  O45   1.287041 A    
C30   C32   1.410908 A    
O68   C195  1.412428 S    
C52   C74   1.416073 A    
C58   C64   1.404208 A    
C113  C187  1.487222 S    
C54   C62   1.408791 A    
C101  C141  1.416451 A    
O39   C185  1.313582 A    
