data_mof_unit_31611.cif
_audit_creation_date              2012-10-26T19:04:42-0400
_audit_creation_method            fapswitch 2.2
_symmetry_space_group_name_H-M    P1
_symmetry_Int_Tables_number       1
_space_group_crystal_system       triclinic
_cell_length_a                    9.636425
_cell_length_b                    10.856361
_cell_length_c                    13.482103
_cell_angle_alpha                 93.744749
_cell_angle_beta                  74.537092
_cell_angle_gamma                 89.557
_cell_volume                      1356.03069499

loop_
_atom_site_label
_atom_site_type_symbol
_atom_type_description
_atom_site_fract_x
_atom_site_fract_y
_atom_site_fract_z
_atom_type_partial_charge
C1    C     C_R   0.500146 0.737375 0.494838 0.529538
C2    C     C_R   0.386140 0.549834 0.812358 -0.046883
C3    C     C_R   0.237795 0.888380 0.483024 -0.062249
C4    C     C_R   0.424709 0.513785 0.699449 0.538610
C5    C     C_R   0.105716 0.952356 0.515501 -0.104176
C6    C     C_R   0.097102 0.068911 0.565835 -0.119643
C7    C     C_R   0.222592 0.126336 0.574128 -0.092810
C8    C     C_R   0.359285 0.067125 0.531915 0.039298
C9    C     C_R   0.364392 0.940225 0.501378 0.042177
C10   C     C_R   0.495624 0.872128 0.490839 -0.005117
C11   C     C_R   0.622297 0.935327 0.489231 -0.159344
C12   C     C_R   0.449730 0.579015 0.975905 -0.030491
C13   C     C_R   0.621016 0.062810 0.497981 -0.142990
C14   C     C_R   0.491010 0.130076 0.517546 -0.002032
C15   C     C_R   0.910481 0.310318 0.376192 0.323483
C16   C     C_R   0.496782 0.263576 0.508211 0.571048
C17   C     C_R   0.004636 0.212171 0.331531 -0.097315
C18   C     C_R   0.146189 0.215793 0.333173 0.264120
C19   C     C_R   0.194177 0.318277 0.379191 -0.061118
C20   C     C_R   0.098532 0.409280 0.441059 0.054974
C21   C     C_R   0.949243 0.407690 0.440580 0.135329
C22   C     C_R   0.905772 0.588731 0.553488 -0.021491
C23   C     C_R   0.493181 0.570605 0.867125 -0.041606
C24   C     C_R   0.052682 0.587634 0.554740 0.005251
C25   C     C_R   0.575702 0.499152 0.300609 0.599291
C26   C     C_R   0.802238 0.524003 0.029906 -0.137942
C27   C     C_R   0.616437 0.507576 0.188257 0.010512
C28   C     C_R   0.239365 0.566191 0.868547 0.255525
C29   C     C_R   0.205100 0.620887 0.970123 0.262769
C30   C     C_R   0.307614 0.617958 0.025268 -0.099859
C31   C     C_3   0.349158 0.366794 0.137835 -0.106723
C32   C     C_3   0.111371 0.403793 0.830945 -0.124335
C33   C     C_3   0.041617 0.774700 0.974810 -0.107006
C34   C     C_R   0.551788 0.553679 0.030982 0.045394
C35   C     C_R   0.699610 0.551152 0.978426 0.005116
C36   C     C_R   0.742928 0.574829 0.874616 -0.148538
C37   C     C_R   0.641019 0.584863 0.819696 -0.111073
C38   C     C_R   0.510827 0.518686 0.133846 0.247658
C39   C     C_R   0.762254 0.507808 0.134644 -0.151526
Cu1   Cu    Cu3+1 0.359340 0.500010 0.500010 0.965362
Cu2   Cu    Cu3+1 0.640660 0.499990 0.499990 0.998032
F1    F     F_    0.792289 0.309438 0.342011 -0.621239
F2    F     F_    0.240710 0.125517 0.280898 -0.644386
H1    H     H_    0.845855 0.493308 0.173079 0.184907
H2    H     H_    0.855737 0.582634 0.834977 0.153706
H3    H     H_    0.089952 0.659647 0.599927 0.123483
H4    H     H_    0.913517 0.515072 0.988811 0.207874
H5    H     H_    0.276141 0.650482 0.105896 0.199068
H6    H     H_    0.680673 0.610469 0.742102 0.146573
H7    H     H_    0.723922 0.886241 0.479366 0.135321
H8    H     H_    0.409370 0.296225 0.167226 0.171732
H9    H     H_    0.380392 0.357534 0.052041 0.106844
H10   H     H_    0.232679 0.347766 0.162472 0.158946
H11   H     H_    0.093814 0.375545 0.911215 0.098970
H12   H     H_    0.238481 0.801288 0.439671 0.158328
H13   H     H_    0.205216 0.350239 0.780245 0.123775
H14   H     H_    0.015301 0.377843 0.804489 0.130231
H15   H     H_    0.031265 0.752916 0.895433 0.147789
H16   H     H_    0.126088 0.844349 0.974177 0.115782
H17   H     H_    0.937412 0.816843 0.021306 0.148502
H18   H     H_    0.009617 0.910497 0.502964 0.100352
H19   H     H_    0.993785 0.116682 0.595321 0.099251
H20   H     H_    0.210579 0.216358 0.615047 0.129008
H21   H     H_    0.722614 0.108585 0.489302 0.148518
H22   H     H_    0.835409 0.663456 0.595509 0.091645
H23   H     H_    0.970178 0.137522 0.287019 0.171914
H24   H     H_    0.307936 0.324810 0.360347 0.222776
N1    N     N_R   0.852480 0.498790 0.499000 -0.227716
N2    N     N_R   0.148360 0.498710 0.498970 -0.241433
O1    O     O_R   0.381190 0.680360 0.500010 -0.528699
O2    O     O_3   0.129260 0.532689 0.825159 -0.572393
O3    O     O_3   0.069092 0.667237 0.020624 -0.578196
O4    O     O_R   0.618760 0.680340 0.500000 -0.520349
O5    O     O_R   0.323240 0.499990 0.650990 -0.464083
O6    O     O_R   0.560820 0.499960 0.650980 -0.530895
O7    O     O_R   0.381240 0.319660 0.500000 -0.544604
O8    O     O_R   0.618810 0.319640 0.499990 -0.433964
O9    O     O_R   0.439180 0.500040 0.349020 -0.477752
O10   O     O_R   0.676760 0.500010 0.349010 -0.429130
O11   O     O_3   0.370573 0.486239 0.178637 -0.579678

loop_
_geom_bond_atom_site_label_1
_geom_bond_atom_site_label_2
_ccdc_geom_bond_type
C33   H15   S    
C19   C20   A    
C31   H9    S    
C7    C8    A    
C12   C23   A    
C17   H23   S    
Cu1   O1    S    
C30   H5    S    
C36   C37   A    
C16   O8    A    
Cu2   O8    S    
C5    C6    A    
C26   C39   A    
C27   C38   A    
C34   C35   A    
C4    O6    A    
C33   O3    S    
C3    H12   S    
C35   C36   A    
C27   C39   A    
C8    C9    A    
C19   H24   S    
C32   O2    S    
C9    C10   A    
C4    O5    A    
C29   O3    S    
C33   H16   S    
C16   O7    A    
C13   C14   A    
C32   H14   S    
C32   H11   S    
C24   N2    A    
Cu2   N1    S    
Cu1   N2    S    
C25   O9    A    
C31   O11   S    
C18   C19   A    
C23   C37   A    
Cu1   O7    S    
C34   C38   A    
C2    C4    S    
C22   H22   S    
C29   C30   A    
C3    C9    A    
Cu2   O6    S    
C37   H6    S    
C7    H20   S    
C17   C18   A    
C5    H18   S    
C36   H2    S    
C31   H10   S    
C22   N1    A    
C39   H1    S    
C26   H4    S    
Cu1   O9    S    
Cu1   Cu2   S    
C33   H17   S    
C21   N1    A    
C14   C16   S    
C20   N2    A    
C28   O2    S    
C12   C34   A    
C15   C17   A    
C28   C29   A    
C8    C14   A    
C12   C30   A    
C25   O10   A    
C1    C10   S    
C15   F1    S    
C31   H8    S    
C3    C5    A    
Cu2   O10   S    
C6    C7    A    
C25   C27   S    
C1    O1    A    
C1    O4    A    
C6    H19   S    
C24   H3    S    
C11   H7    S    
C18   F2    S    
C11   C13   A    
C13   H21   S    
C38   O11   S    
Cu1   O5    S    
C22   C24   A    
C10   C11   A    
Cu2   O4    S    
C26   C35   A    
C15   C21   A    
C20   C21   A    
C2    C23   A    
C2    C28   A    
C32   H13   S    
