data_mof_unit_60465.cif
_audit_creation_date              2012-12-10T20:15:00-0500
_audit_creation_method            fapswitch 2.2
_symmetry_space_group_name_H-M    P1
_symmetry_Int_Tables_number       1
_space_group_crystal_system       triclinic
_cell_length_a                    15.729663
_cell_length_b                    19.193437
_cell_length_c                    18.583047
_cell_angle_alpha                 88.589841
_cell_angle_beta                  89.187596
_cell_angle_gamma                 93.171343
_cell_volume                      5599.37172891

loop_
_atom_site_label
_atom_site_type_symbol
_atom_type_description
_atom_site_fract_x
_atom_site_fract_y
_atom_site_fract_z
_atom_type_partial_charge
C1    C     C_R   0.505785 0.365571 0.500511 0.870697
C2    C     C_R   0.501608 0.634085 0.499042 0.908101
C3    C     C_R   0.447530 0.821335 0.494029 -0.085465
C4    C     C_R   0.508838 0.171789 0.546500 -0.141709
C5    C     C_R   0.526485 0.853184 0.473538 0.094854
C6    C     C_R   0.543221 0.147928 0.482950 0.100358
C7    C     C_R   0.597450 0.814065 0.464514 -0.174312
C8    C     C_R   0.572406 0.194301 0.428606 -0.157836
C9    C     C_R   0.591316 0.742332 0.476439 -0.070195
C10   C     C_R   0.567097 0.265719 0.436800 -0.046673
C11   C     C_R   0.510952 0.709539 0.495754 -0.137158
C12   C     C_R   0.525375 0.290985 0.499065 -0.148158
C13   C     C_R   0.591855 0.961566 0.517234 -0.232518
C14   C     C_R   0.498321 0.041052 0.422594 -0.227803
C15   C     C_R   0.599917 0.033998 0.520566 -0.015324
C16   C     C_R   0.491912 0.968477 0.418040 -0.017419
C17   C     C_R   0.549906 0.073464 0.474181 0.009697
C18   C     C_R   0.537342 0.928867 0.467888 0.006841
C19   C     C_R   0.568872 0.527925 0.726272 0.066545
C20   C     C_R   0.446302 0.453653 0.275347 0.091166
C21   C     C_R   0.571076 0.524793 0.802106 -0.302189
C22   C     C_R   0.445125 0.452273 0.199571 -0.286816
C23   C     C_R   0.337994 0.500081 0.500448 0.882415
C24   C     C_R   0.661944 0.499004 0.499584 0.994072
C25   C     C_R   0.499233 0.502001 0.842879 -0.043544
C26   C     C_R   0.500264 0.496735 0.157830 -0.036581
C27   C     C_R   0.425802 0.479399 0.805650 -0.043959
C28   C     C_R   0.557083 0.542812 0.193336 -0.074891
C29   C     C_R   0.430415 0.471267 0.729308 0.188128
C30   C     C_R   0.554143 0.545783 0.270124 0.211901
C31   C     C_R   0.557340 0.460948 0.962014 -0.126333
C32   C     C_R   0.442980 0.538202 0.039280 -0.087994
C33   C     C_R   0.555574 0.457543 0.037819 -0.145381
C34   C     C_R   0.445314 0.542173 0.963619 -0.118194
C35   C     C_R   0.497783 0.495625 0.077224 0.127337
C36   C     C_R   0.501612 0.502747 0.923859 0.151772
C37   C     C_3   0.965925 0.447234 0.538890 -0.286764
C38   C     C_3   0.034423 0.557779 0.460443 -0.290793
C39   C     C_3   0.024564 0.443306 0.471694 -0.055812
C40   C     C_3   0.975656 0.561723 0.527629 -0.056026
C41   C     C_1   0.249381 0.501143 0.501361 -0.083508
C42   C     C_1   0.750707 0.500092 0.498609 -0.033407
C43   C     C_3   0.025775 0.506597 0.567692 -0.063272
C44   C     C_3   0.974444 0.498431 0.431673 -0.054759
C45   C     C_3   0.083517 0.501972 0.501000 0.052930
C46   C     C_3   0.916760 0.503018 0.498385 0.049499
C47   C     C_1   0.174271 0.501856 0.501494 0.109561
C48   C     C_1   0.825934 0.501537 0.498255 0.104601
C49   C     C_R   0.438063 0.748719 0.504497 0.127114
C50   C     C_R   0.500579 0.242909 0.556166 0.147557
H1    H     H_    0.627384 0.544709 0.829589 0.189234
H2    H     H_    0.401234 0.416049 0.173071 0.178453
H3    H     H_    0.601463 0.430118 0.933018 0.152807
H4    H     H_    0.399268 0.569311 0.068398 0.153345
H5    H     H_    0.599652 0.425460 0.065837 0.157486
H6    H     H_    0.402404 0.575574 0.935944 0.146907
H7    H     H_    0.936833 0.402169 0.570834 0.186802
H8    H     H_    0.063589 0.602841 0.428542 0.182234
H9    H     H_    0.394538 0.854078 0.501694 0.140007
H10   H     H_    0.488889 0.134320 0.588908 0.132501
H11   H     H_    0.658321 0.840364 0.450022 0.190958
H12   H     H_    0.602530 0.174532 0.380950 0.178234
H13   H     H_    0.627272 0.929910 0.554108 0.190656
H14   H     H_    0.461666 0.072862 0.386838 0.192927
N1    N     N_R   0.500010 0.499980 0.689440 -0.155808
N2    N     N_R   0.499990 0.500020 0.310560 -0.149100
O1    O     O_R   0.500000 0.398180 0.560840 -0.647084
O2    O     O_R   0.500000 0.601820 0.439160 -0.650506
O3    O     O_R   0.499960 0.398180 0.439210 -0.594848
O4    O     O_R   0.500040 0.601820 0.560790 -0.558568
O5    O     O_R   0.376800 0.500000 0.560800 -0.657891
O6    O     O_R   0.623200 0.500000 0.439200 -0.607115
O7    O     O_R   0.376760 0.499990 0.439180 -0.585018
O8    O     O_R   0.623240 0.500010 0.560820 -0.612007
Zn1   Zn    Zn3+2 0.500030 0.500000 0.581210 0.974638
Zn2   Zn    Zn3+2 0.499970 0.500000 0.418790 0.999322
C51   C     C_2   0.050515 0.376294 0.440314 0.959577
O9    O     O_2   0.995839 0.333878 0.419907 -0.589910
O10   O     O_R   0.136613 0.362615 0.434426 -0.779376
H15   H     H_    0.145812 0.315845 0.412237 0.356893
C52   C     C_2   0.949649 0.628917 0.558493 0.936074
O11   O     O_2   0.004176 0.670978 0.579822 -0.606192
O12   O     O_R   0.863676 0.643320 0.562498 -0.788561
H16   H     H_    0.854361 0.690292 0.584193 0.365752
C53   C     C_2   0.642309 0.563922 0.689098 0.973573
O13   O     O_2   0.632290 0.615249 0.650729 -0.555702
O14   O     O_R   0.724082 0.541589 0.701264 -0.793546
H17   H     H_    0.769650 0.570853 0.673422 0.376873
C54   C     C_2   0.387094 0.404343 0.314987 0.967823
O15   O     O_2   0.315812 0.421639 0.331054 -0.589168
O16   O     O_R   0.410080 0.336059 0.328612 -0.779753
H18   H     H_    0.363668 0.306549 0.355183 0.340900
C55   C     C_2   0.344690 0.464937 0.846367 0.894520
O17   O     O_2   0.280778 0.493647 0.827769 -0.625099
O18   O     O_R   0.341311 0.418433 0.905594 -0.791417
H19   H     H_    0.282543 0.413133 0.928837 0.356034
C56   C     C_2   0.619907 0.587202 0.149771 0.899612
O19   O     O_2   0.595364 0.629495 0.105510 -0.608969
O20   O     O_R   0.706994 0.579195 0.158249 -0.800553
H20   H     H_    0.743370 0.611960 0.125362 0.362064
C57   C     C_3   0.359204 0.429288 0.692510 -0.355479
C58   C     C_3   0.326597 0.361248 0.731666 -0.881258
H21   H     H_    0.378275 0.336786 0.761443 0.268171
H22   H     H_    0.273104 0.370289 0.769086 0.293529
H23   H     H_    0.300296 0.323640 0.692136 0.246920
H24   H     H_    0.304941 0.462664 0.682496 0.258890
H25   H     H_    0.383794 0.411770 0.641203 0.256590
C59   C     C_3   0.606992 0.603631 0.305329 -0.378016
C60   C     C_3   0.567443 0.674155 0.294487 -0.792117
H26   H     H_    0.565063 0.689078 0.236576 0.270292
H27   H     H_    0.501726 0.672243 0.317320 0.272928
H28   H     H_    0.606328 0.715312 0.321733 0.276294
H29   H     H_    0.614930 0.593994 0.362737 0.262687
H30   H     H_    0.673133 0.606933 0.283733 0.236050
C61   C     C_2   0.946685 0.494419 0.354940 0.957040
O21   O     O_2   0.000156 0.491284 0.306955 -0.585399
O22   O     O_R   0.860266 0.494427 0.338571 -0.782933
H31   H     H_    0.849779 0.491691 0.284986 0.366422
C62   C     C_2   0.053039 0.510837 0.644522 0.955156
O23   O     O_2   0.999216 0.513533 0.692291 -0.584633
O24   O     O_R   0.139381 0.511688 0.661227 -0.810839
H32   H     H_    0.149479 0.514559 0.714855 0.375339
C63   C     C_3   0.352259 0.711365 0.523859 -0.424140
C64   C     C_3   0.276735 0.757772 0.530622 -0.790568
H33   H     H_    0.287263 0.795370 0.574532 0.261355
H34   H     H_    0.266606 0.786173 0.478916 0.262338
H35   H     H_    0.218166 0.724705 0.543944 0.277176
H36   H     H_    0.336568 0.672518 0.481978 0.201390
H37   H     H_    0.358169 0.682418 0.575929 0.229801
C65   C     C_3   0.467290 0.264034 0.628455 -0.415964
C66   C     C_3   0.540586 0.287963 0.676869 -0.734933
H38   H     H_    0.581808 0.243872 0.687875 0.256840
H39   H     H_    0.580307 0.331616 0.651446 0.273966
H40   H     H_    0.515205 0.305509 0.728927 0.238011
H41   H     H_    0.420604 0.304061 0.621241 0.216228
H42   H     H_    0.431361 0.219480 0.656428 0.203090
C67   C     C_2   0.670552 0.704113 0.469135 0.896891
O25   O     O_2   0.679836 0.650993 0.504840 -0.596173
O26   O     O_R   0.736258 0.730404 0.422893 -0.802064
H43   H     H_    0.786949 0.699976 0.422802 0.364419
C68   C     C_2   0.611515 0.311548 0.381059 0.994634
O27   O     O_2   0.657960 0.361148 0.398784 -0.616591
O28   O     O_R   0.603173 0.296003 0.308297 -0.767844
H44   H     H_    0.636631 0.330854 0.275485 0.351231
C69   C     C_2   0.660394 0.066633 0.572608 0.910293
O29   O     O_2   0.681864 0.033242 0.625599 -0.608946
O30   O     O_R   0.694585 0.134813 0.560488 -0.786125
H45   H     H_    0.734712 0.150783 0.599768 0.355830
C70   C     C_2   0.438356 0.935971 0.361058 0.908620
O31   O     O_2   0.381204 0.968085 0.334166 -0.606475
O32   O     O_R   0.454235 0.869508 0.336605 -0.793966
H46   H     H_    0.413541 0.853493 0.297752 0.355676

loop_
_geom_bond_atom_site_label_1
_geom_bond_atom_site_label_2
_ccdc_geom_bond_type
C28   C56   S    
C33   H5    S    
C38   C40   S    
O14   H17   S    
C57   H25   S    
C55   O17   D    
C27   C29   A    
O22   H31   S    
C24   C42   S    
O18   H19   S    
O6    Zn2   S    
C66   H40   S    
C69   O29   D    
C3    C49   A    
C63   C64   S    
C53   O13   D    
C34   H6    S    
C67   O26   S    
C57   C58   S    
C13   C18   A    
C58   H23   S    
C39   C51   S    
C20   N2    A    
C19   C21   A    
C64   H34   S    
C2    O2    A    
C8    H12   S    
C70   O32   S    
C61   O21   D    
C49   C63   S    
C59   C60   S    
O3    Zn2   S    
C15   C17   A    
C59   H30   S    
C7    H11   S    
C38   C45   S    
C50   C65   S    
C60   H27   S    
C69   O30   S    
C38   H8    S    
C9    C67   S    
C40   C43   S    
O30   H45   S    
C44   C61   S    
C61   O22   S    
O32   H46   S    
C31   C33   A    
C16   C70   S    
C54   O16   S    
C39   C45   S    
C45   C47   S    
N2    Zn2   S    
C55   O18   S    
C63   H37   S    
C14   C17   A    
C1    C12   S    
C23   O7    A    
C19   C53   S    
C2    C11   S    
C32   H4    S    
C52   O12   S    
C44   C46   S    
C56   O19   D    
C62   O24   S    
C46   C48   S    
O8    Zn1   S    
C53   O14   S    
C32   C35   A    
C23   O5    A    
C4    C6    A    
C56   O20   S    
C60   H28   S    
O16   H18   S    
C15   C69   S    
C6    C8    A    
C5    C18   S    
C52   O11   D    
C66   H39   S    
C51   O9    D    
C1    O3    A    
C4    C50   A    
C10   C68   S    
C32   C34   A    
C59   H29   S    
C37   C43   S    
C40   C46   S    
C38   C44   S    
C11   C49   A    
C43   C45   S    
O12   H16   S    
C13   H13   S    
C62   O23   D    
C14   H14   S    
C4    H10   S    
C41   C47   T    
C51   O10   S    
C29   C57   S    
C42   C48   T    
O2    Zn2   S    
C31   H3    S    
C58   H22   S    
C9    C11   A    
O24   H32   S    
C30   N2    A    
C10   C12   A    
C64   H35   S    
C29   N1    A    
C16   C18   A    
C65   H41   S    
C20   C22   A    
C13   C15   A    
O7    Zn2   S    
C14   C16   A    
C27   C55   S    
O1    Zn1   S    
C66   H38   S    
C21   H1    S    
C24   O6    A    
C5    C7    A    
C20   C54   S    
C57   H24   S    
C7    C9    A    
C6    C17   S    
C21   C25   A    
C30   C59   S    
C40   C52   S    
C65   H42   S    
C3    C5    A    
N1    Zn1   S    
C12   C50   A    
O26   H43   S    
C39   C44   S    
C1    O1    A    
C25   C27   A    
C67   O25   D    
C26   C28   A    
C23   C41   S    
O20   H20   S    
C68   O28   S    
C65   C66   S    
C54   O15   D    
C37   C39   S    
C70   O31   D    
O5    Zn1   S    
C24   O8    A    
C63   H36   S    
C28   C30   A    
C33   C35   A    
C19   N1    A    
C22   H2    S    
C34   C36   A    
C58   H21   S    
C68   O27   D    
C25   C36   S    
O10   H15   S    
C26   C35   S    
C8    C10   A    
C22   C26   A    
C60   H26   S    
O4    Zn1   S    
C31   C36   A    
C37   C46   S    
C2    O4    A    
C37   H7    S    
O28   H44   S    
C43   C62   S    
C64   H33   S    
C3    H9    S    
