data_mof_unit_40405.cif
_audit_creation_date              2012-12-11T15:29:46-0500
_audit_creation_method            fapswitch 2.2
_symmetry_space_group_name_H-M    P1
_symmetry_Int_Tables_number       1
_space_group_crystal_system       triclinic
_cell_length_a                    13.486277
_cell_length_b                    13.49761
_cell_length_c                    27.570201
_cell_angle_alpha                 90.594761
_cell_angle_beta                  90.060533
_cell_angle_gamma                 60.034552
_cell_volume                      4347.52699098

loop_
_atom_site_label
_atom_site_type_symbol
_atom_type_description
_atom_site_fract_x
_atom_site_fract_y
_atom_site_fract_z
_atom_type_partial_charge
C1    C     C_R   0.620375 0.101218 0.569875 0.546595
C2    C     C_1   0.649825 0.704356 0.657789 -0.058455
C3    C     C_3   0.090767 0.133026 0.737261 -0.101615
C4    C     C_R   0.599787 0.779236 0.568446 0.547264
C5    C     C_3   0.182792 0.059399 0.775179 -0.100449
C6    C     C_1   0.097673 0.200000 0.900257 -0.016207
C7    C     C_1   0.229602 0.137774 0.617073 -0.014545
C8    C     C_3   0.055473 0.241373 0.768811 -0.101332
C9    C     C_3   0.147929 0.167577 0.805875 0.052718
C10   C     C_3   0.144186 0.262250 0.742108 -0.098944
C11   C     C_3   0.179084 0.154190 0.711331 0.052574
C12   C     C_1   0.631377 0.731684 0.615897 -0.015119
C13   C     C_3   0.236171 0.188716 0.779875 -0.101905
C14   C     C_3   0.271570 0.080350 0.748371 -0.103221
C15   C     C_1   0.125447 0.180797 0.858179 -0.058816
C16   C     C_R   0.277746 0.121677 0.569375 0.550124
C17   C     C_1   0.201647 0.146617 0.659083 -0.058657
C18   C     C_3   0.629045 0.276711 0.738967 -0.101650
C19   C     C_3   0.554955 0.258167 0.776799 -0.100077
C20   C     C_1   0.691494 0.206643 0.901390 -0.015879
C21   C     C_1   0.635671 0.133331 0.617797 -0.015957
C22   C     C_3   0.737038 0.204106 0.769958 -0.101387
C23   C     C_3   0.699490 0.560743 0.766934 -0.101470
C24   C     C_3   0.662790 0.185291 0.806951 0.052821
C25   C     C_3   0.758691 0.094381 0.742519 -0.099163
C26   C     C_3   0.650949 0.167133 0.712302 0.052581
C27   C     C_3   0.684685 0.075784 0.780232 -0.102044
C28   C     C_R   0.621894 0.100236 0.431526 0.541876
C29   C     C_3   0.576665 0.148322 0.749270 -0.103138
C30   C     C_1   0.674458 0.195773 0.859293 -0.058639
C31   C     C_1   0.644007 0.152283 0.659949 -0.058914
C32   C     C_R   0.640968 0.720109 0.383480 0.027640
C33   C     C_R   0.726267 0.730460 0.358768 -0.120394
C34   C     C_3   0.679598 0.654332 0.804366 0.052754
C35   C     C_R   0.739818 0.711316 0.309241 -0.122158
C36   C     C_R   0.670991 0.677828 0.284015 0.038107
C37   C     C_R   0.594594 0.655196 0.309587 -0.120882
C38   C     C_R   0.578949 0.677126 0.359135 -0.129127
C39   C     C_R   0.577664 0.702378 0.203712 -0.122236
C40   C     C_R   0.602139 0.776430 0.430584 0.541913
C41   C     C_R   0.585908 0.680835 0.154086 -0.130988
C42   C     C_R   0.790968 0.606360 0.158014 -0.127010
C43   C     C_R   0.783147 0.625056 0.207601 -0.123823
C44   C     C_R   0.677131 0.669186 0.231058 0.036892
C45   C     C_3   0.590288 0.648241 0.739936 -0.099182
C46   C     C_R   0.693453 0.627876 0.131451 0.023665
C47   C     C_R   0.226393 0.136823 0.383082 0.040121
C48   C     C_R   0.258878 0.039419 0.353827 -0.178273
C49   C     C_R   0.236188 0.050196 0.304612 -0.143310
C50   C     C_R   0.177489 0.158655 0.283962 -0.006212
C51   C     C_R   0.136150 0.256601 0.313586 -0.111631
C52   C     C_R   0.278784 0.120161 0.431001 0.571916
C53   C     C_R   0.163137 0.246812 0.363127 0.266019
C54   C     C_R   0.171946 0.253562 0.206406 -0.121201
C55   C     C_R   0.144258 0.272005 0.157522 -0.129016
C56   C     C_3   0.663741 0.682926 0.709932 0.052710
C57   C     C_R   0.103036 0.116324 0.157194 -0.126869
C58   C     C_R   0.129483 0.098797 0.206104 -0.118214
C59   C     C_R   0.160311 0.169835 0.231386 0.041694
C60   C     C_R   0.105267 0.206384 0.133098 0.022801
C61   C     C_R   0.640738 0.139439 0.384961 0.025517
C62   C     C_R   0.548043 0.231590 0.361904 -0.128132
C63   C     C_R   0.554975 0.251602 0.313120 -0.123666
C64   C     C_3   0.772822 0.595826 0.736141 -0.101368
C65   C     C_R   0.655397 0.181198 0.286891 0.038447
C66   C     C_R   0.751496 0.095624 0.310973 -0.119066
C67   C     C_3   0.570612 0.741364 0.778097 -0.102030
C68   C     C_R   0.744068 0.074436 0.359701 -0.127176
C69   C     C_R   0.715538 0.097249 0.204031 -0.119447
C70   C     C_R   0.727969 0.109543 0.154799 -0.126950
C71   C     C_R   0.617371 0.315877 0.164580 -0.127402
C72   C     C_R   0.606620 0.303623 0.213911 -0.122273
C73   C     C_R   0.658666 0.194288 0.234232 0.035718
C74   C     C_R   0.682117 0.218992 0.135136 0.024420
C75   C     C_R   0.049890 0.234815 0.947969 0.545722
C76   C     C_3   0.753177 0.688992 0.774436 -0.100346
C77   C     C_R   0.711977 0.561826 0.946409 0.545554
C78   C     C_3   0.643867 0.776525 0.747356 -0.103139
C79   C     C_R   0.722555 0.224070 0.949114 0.545260
C80   C     C_R   0.048130 0.243581 0.086263 0.542324
C81   C     C_R   0.709370 0.572128 0.084327 0.540482
C82   C     C_R   0.719748 0.233406 0.087459 0.541366
C83   C     C_1   0.697330 0.607345 0.898612 -0.016463
C84   C     C_3   0.157865 0.418894 0.374704 -0.000162
C85   C     C_3   0.154439 0.497064 0.415587 -0.355390
C86   C     C_1   0.688347 0.633522 0.856571 -0.059192
Cr1   Cr    Cr6+3 0.417550 0.169090 0.500530 1.023521
Cr2   Cr    Cr6+3 0.669180 0.913420 0.499920 1.019221
Cr3   Cr    Cr6+3 0.413260 0.917540 0.499520 1.020201
Cr4   Cr    Cr6+3 0.909770 0.175810 0.018240 1.020312
Cr5   Cr    Cr6+3 0.913300 0.427650 0.016090 1.019509
Cr6   Cr    Cr6+3 0.657770 0.431010 0.016900 1.021196
H1    H     H_    0.819746 0.706185 0.789260 0.104060
H2    H     H_    0.803372 0.227037 0.779054 0.099447
H3    H     H_    0.775847 0.763049 0.376704 0.130608
H4    H     H_    0.855657 0.535794 0.718394 0.103651
H5    H     H_    0.494261 0.740787 0.220934 0.100045
H6    H     H_    0.509561 0.699119 0.134066 0.123508
H7    H     H_    0.799380 0.729397 0.290461 0.096095
H8    H     H_    0.861226 0.598434 0.227781 0.098403
H9    H     H_    0.875251 0.565254 0.141466 0.133475
H10   H     H_    0.543895 0.624807 0.291019 0.098684
H11   H     H_    0.513771 0.667132 0.377689 0.123312
H12   H     H_    0.296178 0.211176 0.797822 0.103238
H13   H     H_    0.309440 0.954032 0.368200 0.143607
H14   H     H_    0.199060 0.306997 0.225049 0.095962
H15   H     H_    0.147564 0.341368 0.139632 0.124833
H16   H     H_    0.620921 0.865626 0.738666 0.100588
H17   H     H_    0.268895 0.973444 0.282414 0.113546
H18   H     H_    0.119994 0.033626 0.224625 0.101766
H19   H     H_    0.073356 0.064222 0.139243 0.130808
H20   H     H_    0.084337 0.340315 0.297960 0.100036
H21   H     H_    0.467219 0.283472 0.380525 0.123329
H22   H     H_    0.753149 0.011927 0.218708 0.104253
H23   H     H_    0.127845 0.345790 0.727979 0.104375
H24   H     H_    0.777802 0.033811 0.132572 0.122906
H25   H     H_    0.479675 0.318130 0.295426 0.093853
H26   H     H_    0.562638 0.379780 0.236442 0.101552
H27   H     H_    0.487716 0.801392 0.795806 0.103140
H28   H     H_    0.582391 0.401378 0.150325 0.134196
H29   H     H_    0.831179 0.042684 0.291736 0.102118
H30   H     H_    0.817038 0.003605 0.376798 0.124446
H31   H     H_    0.523673 0.631019 0.725182 0.104244
H32   H     H_    0.722348 0.471666 0.775617 0.098824
H33   H     H_    0.199091 0.975944 0.789384 0.104058
H34   H     H_    0.966217 0.307966 0.777804 0.099336
H35   H     H_    0.030757 0.110639 0.719271 0.103381
H36   H     H_    0.360841 0.013848 0.739346 0.100436
H37   H     H_    0.097256 0.473144 0.346173 0.117333
H38   H     H_    0.246703 0.373127 0.359624 0.114266
H39   H     H_    0.214911 0.445613 0.444650 0.168934
H40   H     H_    0.179498 0.558266 0.401500 0.079484
H41   H     H_    0.066588 0.545891 0.431002 0.159778
H42   H     H_    0.471110 0.325135 0.791498 0.104262
H43   H     H_    0.606674 0.359036 0.721534 0.102783
H44   H     H_    0.510413 0.125298 0.740140 0.100439
H45   H     H_    0.707124 0.993397 0.797627 0.103161
H46   H     H_    0.842607 0.027381 0.727881 0.104244
O1    O     O_R   0.301780 0.195490 0.553940 -0.506363
O2    O     O_R   0.636050 0.541380 0.962520 -0.507098
O3    O     O_R   0.666480 0.323610 0.968170 -0.494038
O4    O     O_R   0.522450 0.158840 0.550250 -0.496188
O5    O     O_R   0.817280 0.156800 0.072180 -0.519289
O6    O     O_R   0.005110 0.187160 0.067410 -0.504208
O7    O     O_R   0.026450 0.340060 0.069950 -0.523031
O8    O     O_R   0.808300 0.527240 0.065170 -0.506153
O9    O     O_R   0.634070 0.548770 0.069460 -0.521637
O10   O     O_R   0.664650 0.330470 0.067300 -0.504126
O11   O     O_3   0.826940 0.344820 0.017080 -0.244172
O12   O     O_R   0.658840 0.818280 0.449970 -0.505485
O13   O     O_R   0.694460 0.003360 0.553820 -0.506385
O14   O     O_R   0.657750 0.819520 0.549120 -0.493483
O15   O     O_R   0.501990 0.803120 0.552700 -0.506919
O16   O     O_R   0.318230 0.023430 0.549370 -0.493732
O17   O     O_R   0.302950 0.194150 0.446980 -0.479447
O18   O     O_R   0.523540 0.157600 0.451100 -0.510327
O19   O     O_R   0.695630 0.002030 0.446860 -0.521790
O20   O     O_3   0.124411 0.342490 0.393119 -0.539667
O21   O     O_R   0.503160 0.801780 0.445740 -0.523730
O22   O     O_R   0.319320 0.022190 0.450230 -0.516846
O23   O     O_3   0.499990 0.000010 0.499990 -0.248590
O24   O     O_R   0.819250 0.149410 0.965240 -0.507537
O25   O     O_R   0.006940 0.180310 0.968270 -0.494671
O26   O     O_R   0.028420 0.332670 0.963010 -0.506641
O27   O     O_R   0.810130 0.520390 0.966030 -0.494497

loop_
_geom_bond_atom_site_label_1
_geom_bond_atom_site_label_2
_ccdc_geom_bond_type
C52   O22   A    
C66   C68   A    
C63   C65   A    
C1    C21   S    
C51   H20   S    
C23   C45   S    
C27   C29   S    
Cr2   O14   S    
C79   O3    A    
C40   O21   A    
C35   C36   A    
C18   C26   S    
C24   C27   S    
C2    C12   T    
C57   C58   A    
C14   H36   S    
C6    C75   S    
C39   C41   A    
C20   C30   T    
C45   H31   S    
C52   O17   A    
C5    C9    S    
C21   C31   T    
C53   O20   S    
C37   C38   A    
C71   H28   S    
Cr4   O24   S    
C50   C59   S    
C78   H16   S    
C36   C37   A    
C76   C78   S    
C85   H40   S    
C34   C86   S    
C37   H10   S    
C63   H25   S    
C11   C14   S    
C3    H35   S    
C39   H5    S    
Cr6   O10   S    
C77   C83   S    
C77   O27   A    
Cr2   O23   S    
C84   H37   S    
C56   C78   S    
C75   O25   A    
C18   C19   S    
C42   C46   A    
C9    C13   S    
C1    O4    A    
C6    C15   T    
C11   C17   S    
C47   C48   A    
C45   C56   S    
C8    C9    S    
C80   O6    A    
C22   C25   S    
C45   C67   S    
C41   C46   A    
C77   O2    A    
C69   C73   A    
C32   C38   A    
C4    C12   S    
C1    O13   A    
Cr4   O5    S    
C47   C53   A    
C28   C61   S    
C4    O15   A    
C26   C31   S    
C18   C22   S    
C13   C14   S    
Cr6   O9    S    
C22   H2    S    
C61   C62   A    
C67   C78   S    
C74   C82   S    
Cr4   O11   S    
C35   H7    S    
C33   H3    S    
Cr3   O23   S    
Cr3   O21   S    
C54   C59   A    
C4    O14   A    
C69   H22   S    
C54   H14   S    
C3    C11   S    
C43   H8    S    
C64   H4    S    
C62   H21   S    
C85   H41   S    
C3    C8    S    
C65   C73   S    
C68   H30   S    
Cr5   O11   S    
C84   O20   S    
C72   C73   A    
C57   C60   A    
C7    C17   T    
C25   C26   S    
C41   H6    S    
C55   H15   S    
C75   O26   A    
C19   H42   S    
C43   C44   A    
C70   C74   A    
C38   H11   S    
C76   H1    S    
C46   C81   S    
Cr3   O15   S    
C48   H13   S    
C23   C34   S    
C83   C86   T    
C62   C63   A    
C56   C64   S    
C50   C51   A    
C64   C76   S    
C66   H29   S    
C40   O12   A    
C18   H43   S    
C81   O8    A    
C27   H45   S    
Cr2   O19   S    
C84   C85   S    
C13   H12   S    
Cr6   O3    S    
C5    C14   S    
C47   C52   S    
C8    H34   S    
C23   C64   S    
Cr1   O23   S    
C65   C66   A    
C16   O16   A    
Cr2   O13   S    
Cr1   O17   S    
Cr5   O26   S    
C36   C44   S    
C16   O1    A    
C42   C43   A    
C79   O24   A    
C5    H33   S    
Cr6   O2    S    
C42   H9    S    
Cr5   O7    S    
Cr3   O22   S    
C49   H17   S    
C54   C55   A    
C60   C80   S    
C20   C79   S    
C58   H18   S    
Cr2   O12   S    
Cr5   O27   S    
C7    C16   S    
Cr1   O1    S    
C82   O5    A    
C3    C5    S    
C10   C13   S    
C34   C67   S    
C71   C74   A    
C82   O10   A    
C39   C44   A    
C25   C27   S    
Cr4   O25   S    
C70   H24   S    
C32   C33   A    
C25   H46   S    
C58   C59   A    
C71   C72   A    
C2    C56   S    
C85   H39   S    
C61   C68   A    
C81   O9    A    
Cr3   O16   S    
C57   H19   S    
C48   C49   A    
C84   H38   S    
C28   O19   A    
C33   C35   A    
C19   C24   S    
C22   C24   S    
C32   C40   S    
Cr1   O4    S    
C9    C15   S    
C69   C70   A    
C24   C30   S    
C80   O7    A    
C10   C11   S    
C29   H44   S    
C26   C29   S    
C8    C10   S    
C49   C50   A    
C72   H26   S    
Cr6   O11   S    
C28   O18   A    
Cr1   O18   S    
C51   C53   A    
C55   C60   A    
C23   H32   S    
C67   H27   S    
Cr5   O8    S    
Cr4   O6    S    
C10   H23   S    
C34   C76   S    
C19   C29   S    
