data_mof_unit_62095.cif
_audit_creation_date              2012-12-10T18:16:55-0500
_audit_creation_method            fapswitch 2.2
_symmetry_space_group_name_H-M    P1
_symmetry_Int_Tables_number       1
_space_group_crystal_system       triclinic
_cell_length_a                    15.901347
_cell_length_b                    15.922981
_cell_length_c                    14.698359
_cell_angle_alpha                 90.262385
_cell_angle_beta                  90.408993
_cell_angle_gamma                 89.953557
_cell_volume                      3721.44317762

loop_
_atom_site_label
_atom_site_type_symbol
_atom_type_description
_atom_site_fract_x
_atom_site_fract_y
_atom_site_fract_z
_atom_type_partial_charge
C1    C     C_R   0.499996 0.339966 0.499810 0.819203
C2    C     C_3   0.083334 0.499640 0.499155 -0.073906
C3    C     C_3   0.972711 0.572081 0.533844 -0.187078
C4    C     C_3   0.916663 0.499411 0.500613 -0.096256
C5    C     C_3   0.027626 0.563752 0.447642 -0.243507
C6    C     C_3   0.971100 0.489972 0.414973 0.388621
C7    C     C_1   0.174778 0.499820 0.498810 0.086886
C8    C     C_1   0.825195 0.499523 0.501001 0.126060
C9    C     C_3   0.540795 0.048818 0.587349 0.189229
C10   C     C_3   0.551212 0.047836 0.416345 0.544841
C11   C     C_3   0.555211 0.950097 0.422215 -0.392639
C12   C     C_R   0.339553 0.499976 0.499650 0.811174
C13   C     C_1   0.499474 0.749401 0.500515 -0.093744
C14   C     C_3   0.497151 0.083123 0.498444 -0.142716
C15   C     C_3   0.529783 0.952137 0.592839 0.163508
C16   C     C_3   0.497752 0.916968 0.499407 -0.062703
C17   C     C_3   0.405951 0.949492 0.483612 -0.327489
C18   C     C_3   0.403364 0.048458 0.491683 0.194309
C19   C     C_1   0.498829 0.824702 0.500281 0.075377
C20   C     C_1   0.498544 0.175400 0.498937 0.154947
C21   C     C_1   0.499372 0.250672 0.499299 -0.028087
C22   C     C_3   0.512342 0.592469 0.055068 0.222696
C23   C     C_R   0.499985 0.660056 0.500175 0.810165
C24   C     C_3   0.413708 0.468207 0.050495 -0.325376
C25   C     C_3   0.420172 0.458372 0.943932 0.189879
C26   C     C_3   0.500301 0.499401 0.092249 -0.161296
C27   C     C_3   0.503349 0.592732 0.946974 -0.385398
C28   C     C_3   0.502455 0.500667 0.907659 -0.154952
C29   C     C_3   0.581809 0.454609 0.947785 0.200018
C30   C     C_3   0.573111 0.440424 0.053660 0.088117
C31   C     C_1   0.502047 0.501194 0.804561 0.324139
C32   C     C_1   0.498849 0.498786 0.195462 0.286803
C33   C     C_R   0.660441 0.499931 0.500339 0.823157
C34   C     C_3   0.972904 0.436056 0.551494 0.318949
C35   C     C_3   0.027565 0.426774 0.465829 -0.212387
C36   C     C_1   0.250113 0.499907 0.498962 -0.106609
C37   C     C_1   0.749869 0.499708 0.500961 -0.070843
C38   C     C_3   0.029154 0.509082 0.584998 0.378773
Cu1   Cu    Cu3+1 0.499890 0.499910 0.589920 1.083542
Cu2   Cu    Cu3+1 0.500110 0.500090 0.410080 1.066493
H1    H     H_    0.620804 0.928774 0.435260 0.247973
H2    H     H_    0.536756 0.920939 0.356125 0.225960
H3    H     H_    0.365957 0.922018 0.537711 0.202640
H4    H     H_    0.482403 0.936958 0.645625 0.200978
H5    H     H_    0.441663 0.621314 0.928621 0.215940
H6    H     H_    0.365427 0.517116 0.063248 0.208312
H7    H     H_    0.365437 0.492025 0.913531 0.148068
H8    H     H_    0.636324 0.497003 0.936949 0.170001
H9    H     H_    0.050592 0.616193 0.404971 0.205029
H10   H     H_    0.608954 0.063055 0.584250 0.215581
N1    N     N_1   0.501700 0.501390 0.724970 -0.129694
N2    N     N_1   0.498280 0.498620 0.275030 -0.130722
O1    O     O_R   0.499910 0.379360 0.575970 -0.531983
O2    O     O_R   0.500090 0.379510 0.424100 -0.569524
O3    O     O_R   0.378990 0.499920 0.575920 -0.558230
O4    O     O_R   0.379170 0.500070 0.424050 -0.573643
O5    O     O_R   0.499910 0.620490 0.575900 -0.572623
O6    O     O_R   0.500090 0.620640 0.424030 -0.560507
O7    O     O_R   0.620830 0.499930 0.575950 -0.560368
O8    O     O_R   0.621010 0.500080 0.424080 -0.548894
C39   C     C_1   0.058388 0.347038 0.428230 0.445001
N3    N     N_1   0.082735 0.284191 0.398606 -0.166273
Cl1   Cl    Cl    0.656755 0.089047 0.417865 -0.463897
Cl2   Cl    Cl    0.342567 0.076194 0.590027 -0.472022
C40   C     C_1   0.354993 0.088680 0.416915 0.396958
N4    N     N_1   0.316796 0.120224 0.359050 -0.162852
Cl3   Cl    Cl    0.511291 0.099310 0.692029 -0.357867
C41   C     C_1   0.370298 0.916275 0.396955 0.307814
N5    N     N_1   0.342590 0.890276 0.329478 -0.156965
Cl4   Cl    Cl    0.936044 0.351886 0.620010 -0.406702
Cl5   Cl    Cl    0.434259 0.662310 0.101560 -0.567243
C42   C     C_1   0.378167 0.393783 0.096241 0.361434
N6    N     N_1   0.350072 0.335820 0.132241 -0.157245
Cl6   Cl    Cl    0.408676 0.351954 0.903335 -0.423243
Cl7   Cl    Cl    0.673172 0.459442 0.107709 -0.506243
C43   C     C_1   0.556603 0.351188 0.074868 0.493189
N7    N     N_1   0.544376 0.281283 0.091579 -0.108198
C44   C     C_1   0.592793 0.629441 0.087187 0.410138
N8    N     N_1   0.655257 0.659161 0.112300 -0.148925
C45   C     C_1   0.566217 0.646514 0.901090 0.285969
N9    N     N_1   0.615167 0.688411 0.865179 -0.153818
Cl8   Cl    Cl    0.931669 0.477263 0.301990 -0.444269
Cl9   Cl    Cl    0.611757 0.361875 0.884680 -0.398640
C46   C     C_1   0.942034 0.651868 0.571354 0.395729
N10   N     N_1   0.917795 0.714770 0.600943 -0.168245
Cl10  Cl    Cl    0.068649 0.522015 0.697981 -0.448403
Cl11  Cl    Cl    0.626608 0.904125 0.629590 -0.486549
Cl12  Cl    Cl    0.511503 0.078106 0.306544 -0.484824

loop_
_geom_bond_atom_site_label_1
_geom_bond_atom_site_label_2
_ccdc_geom_bond_type
C2    C35   S    
C23   O6    A    
Cu1   N1    S    
C1    C21   S    
Cu2   O8    S    
C45   N9    T    
C7    C36   T    
C14   C18   S    
C10   Cl1   S    
C4    C8    S    
C9    Cl3   S    
C25   C28   S    
C26   C32   S    
C10   Cl12  S    
C38   Cl10  S    
C6    Cl8   S    
C28   C29   S    
C24   C26   S    
C15   H4    S    
C29   Cl9   S    
C5    C6    S    
C34   C35   S    
C15   C16   S    
Cu1   O5    S    
C6    C35   S    
C13   C23   S    
C11   H2    S    
C25   Cl6   S    
C1    O1    A    
C32   N2    T    
C46   N10   T    
Cu1   O3    S    
C2    C7    S    
C3    C38   S    
C41   N5    T    
Cu2   O4    S    
C12   C36   S    
C34   Cl4   S    
C27   H5    S    
C33   O7    A    
C5    H9    S    
C4    C34   S    
Cu2   O6    S    
C13   C19   T    
C29   H8    S    
C14   C20   S    
C43   N7    T    
C22   C44   S    
C4    C6    S    
C27   C45   S    
C10   C14   S    
Cu1   Cu2   S    
C44   N8    T    
C16   C17   S    
Cu2   N2    S    
C33   C37   S    
C18   C40   S    
C9    C14   S    
C17   H3    S    
C29   C30   S    
C30   C43   S    
C11   C16   S    
C2    C38   S    
Cu1   O7    S    
C17   C18   S    
C35   C39   S    
C24   C25   S    
C12   O4    A    
C1    O2    A    
C26   C30   S    
C33   O8    A    
Cu2   O2    S    
C22   C27   S    
C2    C5    S    
C8    C37   T    
C3    C4    S    
C22   Cl5   S    
C3    C46   S    
C24   C42   S    
C15   Cl11  S    
C23   O5    A    
C25   H7    S    
C17   C41   S    
C34   C38   S    
C28   C31   S    
C9    H10   S    
C31   N1    T    
C42   N6    T    
C3    C5    S    
C24   H6    S    
C9    C15   S    
C30   Cl7   S    
C18   Cl2   S    
Cu1   O1    S    
C16   C19   S    
C11   H1    S    
C39   N3    T    
C12   O3    A    
C10   C11   S    
C20   C21   T    
C40   N4    T    
C22   C26   S    
C27   C28   S    
