data_mof_unit_67302.cif
_audit_creation_date              2013-03-05T16:02:16-0500
_audit_creation_method            fapswitch 2.2
_symmetry_space_group_name_H-M    P1
_symmetry_Int_Tables_number       1
_space_group_crystal_system       triclinic
_cell_length_a                    8.617774
_cell_length_b                    14.668634
_cell_length_c                    15.245133
_cell_angle_alpha                 95.397138
_cell_angle_beta                  99.862369
_cell_angle_gamma                 92.002411
_cell_volume                      1887.6931081

loop_
_atom_site_label
_atom_site_type_symbol
_atom_site_description
_atom_site_fract_x
_atom_site_fract_y
_atom_site_fract_z
_atom_type_partial_charge
P1    P     P_3+3 0.018600 0.416790 0.295970 0.575852
O1    O     O_2   0.841230 0.444160 0.280430 -0.354462
O2    O     O_3   0.112860 0.447350 0.393710 -0.309558
O3    O     O_3   0.597940 0.615700 0.327690 -0.336078
O4    O     O_2   0.697287 0.546544 0.178766 -0.347080
O5    O     O_3   0.985417 0.298692 0.259323 -0.565547
O6    O     O_3   0.554685 0.699099 0.162991 -0.607871
H1    H     H_    0.774379 0.750394 0.213529 0.133975
C1    C     C_3   0.619207 0.865259 0.183177 -0.637525
P2    P     P_3+3 0.635660 0.716530 0.560900 0.466926
P3    P     P_3+3 0.053034 0.781514 0.364137 0.453975
O7    O     O_2   0.802240 0.729740 0.532850 -0.370664
O8    O     O_3   0.017180 0.664790 0.371080 -0.353039
O9    O     O_2   0.915760 0.829623 0.399714 -0.425801
O10   O     O_3   0.696112 0.744680 0.675859 -0.582772
O11   O     O_3   0.029850 0.803809 0.250002 -0.585311
C2    C     C_3   0.091754 0.733719 0.197392 0.318612
C3    C     C_3   0.035358 0.734905 0.094083 -0.583004
C4    C     C_3   0.203856 0.771759 0.686277 0.326918
C5    C     C_3   0.158255 0.864023 0.731222 -0.731104
Ba1   Ba    Ba6+2 0.833400 0.543310 0.453520 1.641156
C6    C     C_3   0.021937 0.237411 0.323630 0.397487
H2    H     H_    0.140381 0.248981 0.362662 0.140384
C7    C     C_3   0.006409 0.140637 0.274608 -0.977432
C8    C     C_3   0.760437 0.669444 0.716451 0.385595
C9    C     C_3   0.819670 0.695447 0.817912 -0.789834
H3    H     H_    0.947131 0.683373 0.835108 0.183115
P4    P     P_3+3 0.171090 0.583290 0.704030 0.531161
O12   O     O_2   0.348480 0.555870 0.719620 -0.364134
O13   O     O_3   0.076830 0.552730 0.606300 -0.325371
O14   O     O_3   0.591760 0.384380 0.672320 -0.399740
O15   O     O_3   0.152784 0.702393 0.734776 -0.558458
P5    P     P_3+3 0.145855 0.215118 0.633084 0.432963
O16   O     O_3   0.629090 0.386350 0.459240 -0.290017
O17   O     O_3   0.172520 0.335290 0.628920 -0.385483
O18   O     O_2   0.264198 0.172831 0.577552 -0.410151
O19   O     O_3   0.222513 0.184401 0.741389 -0.596644
Ba2   Ba    Ba6+2 0.356420 0.456770 0.546480 1.632432
P6    P     P_3+3 0.558304 0.595036 0.211393 0.513923
C10   C     C_3   0.653734 0.768379 0.216862 0.187177
H4    H     H_    0.643028 0.769712 0.288616 0.196678
O20   O     O_3   0.560610 0.613730 0.540770 -0.370750
C11   C     C_3   0.519243 0.287717 0.271593 0.328955
C12   C     C_3   0.553190 0.253970 0.178161 -0.698399
P7    P     P_3+3 0.562527 0.269083 0.446239 0.532530
O21   O     O_2   0.387460 0.270290 0.467210 -0.368297
O22   O     O_3   0.558542 0.223647 0.333636 -0.556967
H5    H     H_    0.091584 0.677221 0.061203 0.116817
C13   C     C_3   0.160972 0.236576 0.809398 0.313476
C14   C     C_3   0.162050 0.182161 0.893858 -0.394662
P8    P     P_3+3 0.645143 0.403843 0.789724 0.431764
C15   C     C_3   0.618783 0.219138 0.799229 0.218034
O23   O     O_2   0.530878 0.472213 0.822798 -0.403858
O24   O     O_3   0.612454 0.306640 0.846354 -0.546962
H6    H     H_    0.506145 0.204968 0.751973 0.116042
C16   C     C_3   0.644288 0.143708 0.866621 -0.452289
C17   C     C_R   0.847472 0.453934 0.832281 0.203335
C18   C     C_R   0.912898 0.461430 0.924814 0.012447
C19   C     C_R   0.049797 0.462976 0.111108 -0.081765
C20   C     C_R   0.896225 0.428907 0.078401 -0.015463
C21   C     C_R   0.826649 0.433071 0.989178 0.042170
C22   C     C_R   0.113567 0.471494 0.205521 0.130811
H7    H     H_    0.827176 0.400471 0.122372 0.203838
H8    H     H_    0.703873 0.412480 0.971422 0.219585
C23   C     C_R   0.266716 0.512333 0.232224 -0.508267
C24   C     C_R   0.087063 0.525826 0.795917 0.189044
C25   C     C_R   0.155747 0.532898 0.891281 -0.036877
C26   C     C_R   0.070294 0.494627 0.953927 0.064313
C27   C     C_R   0.307733 0.572772 0.928456 -0.106605
C28   C     C_R   0.381625 0.557438 0.014235 -0.099058
C29   C     C_R   0.297285 0.525313 0.076922 0.002684
C30   C     C_R   0.139210 0.494097 0.047424 0.027435
C31   C     C_R   0.362647 0.533648 0.169478 0.196105
C32   C     C_R   0.936814 0.481967 0.769868 -0.562123
C33   C     C_R   0.709361 0.936967 0.543181 -0.118551
C34   C     C_R   0.513333 0.802341 0.504058 0.174082
C35   C     C_R   0.361520 0.769515 0.464151 -0.357588
C36   C     C_R   0.246357 0.827257 0.429775 0.321674
C37   C     C_R   0.284533 0.919522 0.435230 -0.216937
C38   C     C_R   0.439087 0.956580 0.471950 0.129838
C39   C     C_R   0.555601 0.898198 0.508504 0.028766
C40   C     C_R   0.630991 0.090600 0.506458 -0.045336
C41   C     C_R   0.748499 0.031490 0.541853 0.117045
C42   C     C_R   0.672910 0.187238 0.515153 0.169679
C43   C     C_R   0.821477 0.220674 0.561819 -0.417645
C44   C     C_R   0.943293 0.162592 0.584249 0.275542
C45   C     C_R   0.906159 0.067336 0.573180 -0.191701
C46   C     C_R   0.479027 0.049567 0.464938 -0.021630
H9    H     H_    0.800526 0.894493 0.571791 0.145423
H10   H     H_    0.199739 0.867710 0.804875 0.253630
C47   C     C_2   0.224632 0.948872 0.698455 0.461317
H11   H     H_    0.244703 0.012740 0.741719 0.113944
O25   O     O_2   0.254175 0.948099 0.622617 -0.662406
H12   H     H_    0.027705 0.867134 0.721224 0.194852
C48   C     C_2   0.911888 0.244944 0.386093 0.470685
H13   H     H_    0.833790 0.186947 0.389133 0.023108
O26   O     O_2   0.910842 0.316366 0.433460 -0.551984
H14   H     H_    0.886638 0.127318 0.234029 0.314851
H15   H     H_    0.025861 0.087969 0.322549 0.200064
H16   H     H_    0.093132 0.133374 0.228807 0.290232
H17   H     H_    0.859804 0.645814 0.684343 0.101854
H18   H     H_    0.669738 0.611917 0.708011 0.127775
C49   C     C_2   0.771049 0.924322 0.194636 0.758836
H19   H     H_    0.849767 0.931668 0.258712 0.068068
O27   O     O_2   0.801953 0.969685 0.135738 -0.459652
H20   H     H_    0.757985 0.649579 0.856562 0.211647
C50   C     C_2   0.799238 0.794046 0.849030 0.852228
H21   H     H_    0.866688 0.848012 0.826728 0.033570
O28   O     O_2   0.708162 0.813960 0.900507 -0.544142
C51   C     C_2   0.518750 0.914150 0.241998 0.697566
H22   H     H_    0.396445 0.927760 0.216819 0.071598
O29   O     O_2   0.575564 0.938961 0.319932 -0.604626
C52   C     C_2   0.350781 0.301382 0.265537 0.441501
H23   H     H_    0.261382 0.265696 0.214095 -0.032324
O30   O     O_2   0.314069 0.350696 0.324720 -0.550230
H24   H     H_    0.587983 0.353850 0.293432 0.150302
C53   C     C_2   0.497661 0.155528 0.151465 0.867867
H25   H     H_    0.391764 0.136961 0.101875 -0.108662
O31   O     O_2   0.570479 0.095348 0.187105 -0.518984
C54   C     C_2   0.474421 0.312741 0.109000 0.417261
H26   H     H_    0.349074 0.302669 0.082638 0.033362
O32   O     O_2   0.548787 0.373080 0.082839 -0.557264
H27   H     H_    0.682609 0.259618 0.180409 0.248284
C55   C     C_2   0.532949 0.859312 0.086085 0.656038
H28   H     H_    0.512740 0.794717 0.044468 0.077643
O33   O     O_2   0.486865 0.927964 0.052444 -0.502086
C56   C     C_2   0.256514 0.326706 0.834628 0.502646
H29   H     H_    0.269697 0.371640 0.784041 0.105604
O34   O     O_2   0.319065 0.351413 0.911609 -0.578893
H30   H     H_    0.039855 0.254205 0.784470 0.058870
H31   H     H_    0.281226 0.191201 0.935377 0.051878
C57   C     C_2   0.053427 0.217736 0.955376 0.571157
H32   H     H_    0.066139 0.196925 0.022523 0.049891
O35   O     O_2   0.949257 0.268103 0.930900 -0.632236
C58   C     C_2   0.134836 0.079583 0.874803 0.557068
H33   H     H_    0.232425 0.036601 0.893923 0.048236
O36   O     O_2   0.006131 0.042801 0.842262 -0.557786
C59   C     C_2   0.747296 0.212075 0.745096 0.497610
H34   H     H_    0.795813 0.271602 0.720834 0.001107
O37   O     O_2   0.799898 0.137198 0.727972 -0.608552
H35   H     H_    0.768138 0.123477 0.875715 0.256412
C60   C     C_2   0.549256 0.056245 0.829858 0.483266
H36   H     H_    0.513566 0.041748 0.758059 0.058939
O38   O     O_2   0.526244 0.997058 0.878139 -0.498327
H37   H     H_    0.057257 0.664581 0.214222 0.077128
C61   C     C_2   0.623362 0.175659 0.959890 0.758732
H38   H     H_    0.529820 0.219118 0.971310 0.014515
O39   O     O_2   0.718287 0.156460 0.023419 -0.554127
H39   H     H_    0.503351 0.581732 0.033948 0.190836
C62   C     C_2   0.379584 0.650813 0.895348 0.665026
H40   H     H_    0.498259 0.647330 0.881393 0.089073
O40   O     O_2   0.316056 0.723781 0.896883 -0.596092
C63   C     C_2   0.315686 0.543819 0.327359 0.848367
H41   H     H_    0.249668 0.594484 0.356790 -0.026787
O41   O     O_2   0.419996 0.508636 0.374991 -0.481678
H42   H     H_    0.883505 0.474741 0.699772 0.172476
H43   H     H_    0.332532 0.697608 0.461441 0.177928
H44   H     H_    0.190975 0.961373 0.407820 0.113343
H45   H     H_    0.998160 0.021740 0.591604 0.166795
C64   C     C_2   0.266324 0.746662 0.213533 0.412310
H46   H     H_    0.323198 0.771908 0.162343 0.007144
O42   O     O_2   0.345494 0.733323 0.283932 -0.655829
H47   H     H_    0.846749 0.293970 0.574871 0.179150
C65   C     C_2   0.364487 0.093594 0.400994 0.628072
H48   H     H_    0.263422 0.123508 0.422705 0.006236
O43   O     O_2   0.367355 0.082473 0.321075 -0.578153
C66   C     C_2   0.862101 0.717344 0.064248 0.644306
H49   H     H_    0.786222 0.774701 0.065153 0.064129
O44   O     O_2   0.805766 0.639356 0.038167 -0.621961
C67   C     C_2   0.090151 0.819611 0.055958 0.485700
H50   H     H_    0.180801 0.814582 0.013907 0.076949
O45   O     O_2   0.037563 0.894153 0.072712 -0.496747
C68   C     C_2   0.378332 0.776135 0.695501 0.646296
H51   H     H_    0.436017 0.823424 0.660332 -0.029207
O46   O     O_2   0.458146 0.734958 0.750361 -0.543388
C69   C     C_2   0.121873 0.763529 0.591227 0.410614
H52   H     H_    0.066091 0.821895 0.563210 0.086878
O47   O     O_2   0.120330 0.692807 0.541985 -0.521599

loop_
_geom_bond_atom_site_label_1
_geom_bond_atom_site_label_2
_geom_bond_distance
_ccdc_geom_bond_type
C41   C45   1.425172 A    
P1    Ba1   3.527345 S    
P2    O20   1.600984 S    
C7    H15   1.110146 S    
C6    C48   1.454418 S    
P4    C24   1.929798 S    
C4    C5    1.552593 S    
C11   C12   1.542641 S    
C8    H17   1.106991 S    
P1    C22   1.940082 S    
C9    H20   1.113257 S    
C37   H44   1.081192 S    
C4    C68   1.484526 S    
C58   H33   1.085079 S    
C66   O44   1.229623 D    
C35   C36   1.393224 A    
C9    H3    1.109203 S    
C20   H7    1.072068 S    
C7    H14   1.109348 S    
C27   C62   1.454259 S    
C6    C7    1.531161 S    
P4    O12   1.578511 D    
Ba2   O20   2.865665 S    
C14   C58   1.507722 S    
C53   O31   1.216719 D    
P3    O9    1.548476 D    
C8    H18   1.112915 S    
O10   C8    1.400688 S    
C67   H50   1.092416 S    
C12   C54   1.510765 S    
O5    C6    1.395730 S    
P5    O18   1.543619 D    
C23   C31   1.416092 A    
O13   Ba2   3.060506 S    
P1    O1    1.578119 D    
C2    C64   1.484684 S    
C51   H22   1.090247 S    
C23   C63   1.464796 S    
C4    C69   1.491280 S    
P2    C34   1.852475 S    
Ba1   Ba2   4.741883 S    
C48   H13   1.075621 S    
O2    Ba2   2.844906 S    
C15   O24   1.418240 S    
O11   C2    1.419400 S    
O12   Ba2   2.903792 S    
C15   C59   1.491105 S    
O6    C10   1.406435 S    
C28   C29   1.400842 A    
P8    C17   1.853186 S    
C63   O41   1.216979 D    
C15   H6    1.105722 S    
C1    C49   1.519009 S    
C19   C30   1.435187 A    
C16   C60   1.504940 S    
C18   C21   1.411862 A    
C68   O46   1.210117 D    
C24   C25   1.465371 A    
C19   C20   1.389511 A    
C14   C57   1.506964 S    
C65   O43   1.218561 D    
C50   O28   1.225200 D    
C65   H48   1.076471 S    
C28   H39   1.078639 S    
C4    O15   1.413297 S    
O16   Ba2   3.056018 S    
C54   O32   1.211400 D    
C61   O39   1.217597 D    
P7    O22   1.776295 S    
P2    Ba1   3.537743 S    
C13   C56   1.514436 S    
C5    C47   1.513575 S    
O8    Ba1   2.858179 S    
C25   C26   1.443075 A    
P4    O15   1.785338 S    
O17   Ba2   2.858807 S    
C42   C43   1.401554 A    
C52   H23   1.081765 S    
C14   H31   1.106802 S    
C66   H49   1.083977 S    
C29   C31   1.419050 A    
C36   C37   1.373015 A    
C33   C39   1.417572 A    
Ba1   O16   2.866309 S    
C8    C9    1.550336 S    
C43   C44   1.392554 A    
C5    H10   1.114112 S    
O7    Ba1   2.924653 S    
C1    C10   1.576789 S    
P5    O19   1.775597 S    
P1    O5    1.767339 S    
C20   C21   1.397217 A    
P1    O2    1.585983 S    
C64   O42   1.205660 D    
C17   C32   1.403438 A    
C9    C50   1.505066 S    
C21   H8    1.071522 S    
C2    H37   1.112085 S    
P5    C44   1.883628 S    
C56   O34   1.220186 D    
P3    C36   1.857853 S    
C11   H24   1.111014 S    
C47   O25   1.224832 D    
O19   C13   1.417553 S    
P3    O11   1.779610 S    
O3    P6    1.742465 S    
P4    Ba2   3.528001 S    
C26   C30   1.448059 A    
O1    Ba1   2.903254 S    
C2    C3    1.568620 S    
C32   H42   1.082301 S    
C49   O27   1.225504 D    
O16   P7    1.776294 S    
C34   C35   1.393490 A    
P2    O7    1.577229 D    
C16   H35   1.107076 S    
C18   C26   1.407445 A    
C69   H52   1.083381 S    
C13   C14   1.576360 S    
C40   C42   1.438749 A    
O4    P6    1.544339 D    
C43   H47   1.082363 S    
C62   O40   1.219223 D    
O2    Ba1   3.059489 S    
P7    C42   1.850592 S    
C50   H21   1.079948 S    
C56   H29   1.078198 S    
C47   H11   1.084434 S    
C54   H26   1.085887 S    
C44   C45   1.410377 A    
C55   O33   1.220733 D    
C61   H38   1.072215 S    
C13   H30   1.096442 S    
C1    C51   1.502081 S    
C58   O36   1.219329 D    
C5    H12   1.112303 S    
C10   H4    1.111845 S    
C19   C22   1.442121 A    
Ba1   O20   3.056983 S    
C22   C23   1.407583 A    
C7    H16   1.108047 S    
O14   P8    1.763317 S    
C38   C39   1.417853 A    
C3    H5    1.110882 S    
C34   C39   1.432544 A    
C3    C66   1.490297 S    
C48   O26   1.216435 D    
C59   O37   1.225314 D    
Ba1   O13   2.844343 S    
C12   H27   1.109894 S    
C62   H40   1.081649 S    
O14   Ba2   2.849924 S    
P2    O10   1.746278 S    
P8    O24   1.773295 S    
C64   H46   1.076605 S    
P4    O13   1.585856 S    
C29   C30   1.405510 A    
C38   C46   1.413374 A    
C46   C65   1.474804 S    
C53   H25   1.089086 S    
C11   C52   1.460893 S    
O3    Ba1   2.850467 S    
P3    O8    1.745449 S    
C33   C41   1.418302 A    
C17   C18   1.419174 A    
C67   O45   1.219819 D    
C12   C53   1.501401 S    
C40   C46   1.437788 A    
C69   O47   1.220261 D    
P5    O17   1.778170 S    
C45   H45   1.072812 S    
C57   H32   1.084339 S    
C60   O38   1.221908 D    
C1    C55   1.531455 S    
P6    C31   1.865148 S    
C16   C61   1.497451 S    
C27   C28   1.395096 A    
C51   O29   1.220945 D    
Ba2   O21   2.924798 S    
C59   H34   1.078091 S    
C33   H9    1.078694 S    
P8    O23   1.540672 D    
C68   H51   1.073750 S    
C37   C38   1.421125 A    
P7    O21   1.595211 D    
C57   O35   1.214262 D    
C40   C41   1.424994 A    
C3    C67   1.514430 S    
C49   H19   1.083568 S    
C60   H36   1.083628 S    
O6    P6    1.755813 S    
C6    H2    1.088846 S    
H1    C10   1.089901 S    
C25   C27   1.417260 A    
C63   H41   1.063760 S    
C11   O22   1.404388 S    
C15   C16   1.575302 S    
C35   H43   1.070759 S    
C55   H28   1.080828 S    
C52   O30   1.195176 D    
C24   C32   1.402041 A    
