data_mof_unit_55331.cif
_audit_creation_date              2012-12-10T17:15:52-0500
_audit_creation_method            fapswitch 2.2
_symmetry_space_group_name_H-M    P1
_symmetry_Int_Tables_number       1
_space_group_crystal_system       triclinic
_cell_length_a                    10.086131
_cell_length_b                    10.716038
_cell_length_c                    10.881287
_cell_angle_alpha                 90.208825
_cell_angle_beta                  95.588574
_cell_angle_gamma                 82.61944
_cell_volume                      1160.75135526

loop_
_atom_site_label
_atom_site_type_symbol
_atom_type_description
_atom_site_fract_x
_atom_site_fract_y
_atom_site_fract_z
_atom_type_partial_charge
C1    C     C_R   0.443487 0.515711 0.267658 0.879895
C2    C     C_R   0.590930 0.045952 0.438517 -0.019303
C3    C     C_R   0.490827 0.125298 0.494726 -0.180092
C4    C     C_R   0.405860 0.074216 0.572740 -0.123501
C5    C     C_R   0.419838 0.945146 0.591601 0.355498
C6    C     C_R   0.521939 0.869106 0.537966 -0.176874
C7    C     C_2   0.409838 0.524646 0.134846 -0.234860
C8    C     C_2   0.508991 0.535203 0.062166 -0.101691
C9    C     C_2   0.591811 0.507138 0.860901 -0.363605
C10   C     C_2   0.509589 0.474926 0.940574 0.389309
C11   C     C_2   0.075980 0.483426 0.494327 -0.025139
C12   C     C_R   0.496253 0.259666 0.495091 0.881742
C13   C     C_2   0.932059 0.500511 0.516020 0.035782
C14   C     C_R   0.556901 0.491485 0.731813 0.974231
C15   C     C_R   0.507177 0.738086 0.515548 0.904041
C16   C     C_R   0.662179 0.083112 0.340909 -0.138248
C17   C     C_R   0.784540 0.012704 0.316663 0.367407
C18   C     C_R   0.833035 0.904733 0.387186 0.367228
C19   C     C_R   0.751436 0.859124 0.468125 -0.234319
C20   C     C_R   0.622727 0.923392 0.483386 -0.009584
H1    H     H_    0.899993 0.559514 0.591677 0.094748
H2    H     H_    0.115486 0.413265 0.430834 0.204573
H3    H     H_    0.118979 0.618034 0.611315 0.211242
H4    H     H_    0.791252 0.775146 0.520869 0.193403
H5    H     H_    0.668455 0.567750 0.885427 0.129482
N1    N     N_2   0.157290 0.551390 0.551110 -0.182187
N2    N     N_2   0.842740 0.448550 0.448960 0.056985
O1    O     O_R   0.568950 0.489660 0.307530 -0.570441
O2    O     O_R   0.348880 0.522640 0.340350 -0.602637
O3    O     O_R   0.610060 0.300270 0.483590 -0.580799
O4    O     O_R   0.389990 0.333260 0.516410 -0.633458
O5    O     O_R   0.651120 0.477360 0.659650 -0.634689
O6    O     O_R   0.431050 0.510340 0.692470 -0.562022
O7    O     O_R   0.610010 0.666740 0.483590 -0.653026
O8    O     O_R   0.389940 0.699730 0.516410 -0.537988
Zn1   Zn    Zn3+2 0.646940 0.477980 0.478090 1.046779
Zn2   Zn    Zn3+2 0.353060 0.522020 0.521910 1.054639
C21   C     C_1   0.302998 0.151134 0.633755 0.406496
N3    N     N_1   0.220461 0.211943 0.682245 -0.101027
C22   C     C_1   0.273742 0.509829 0.086089 0.354284
N4    N     N_1   0.164870 0.498398 0.047731 -0.094362
Cl1   Cl    Cl    0.884427 0.363185 0.319395 -0.453703
C23   C     C_1   0.599148 0.176570 0.251451 0.356039
N5    N     N_1   0.548552 0.249299 0.177762 -0.123815
Cl2   Cl    Cl    0.875954 0.057695 0.197240 -0.433968
Cl3   Cl    Cl    0.990764 0.818947 0.369073 -0.516923
Cl4   Cl    Cl    0.316352 0.880363 0.691538 -0.553329
Cl5   Cl    Cl    0.415217 0.347791 0.903641 -0.569790
C24   C     C_1   0.621490 0.602618 0.106035 0.259020
N6    N     N_1   0.710388 0.656141 0.140795 -0.111443

loop_
_geom_bond_atom_site_label_1
_geom_bond_atom_site_label_2
_ccdc_geom_bond_type
C1    O1    A    
C9    C14   S    
N1    Zn2   S    
N2    Zn1   S    
C6    C20   A    
C9    C10   D    
C11   H2    S    
C19   C20   A    
C16   C23   S    
O3    Zn1   S    
C23   N5    T    
C14   O6    A    
C1    O2    A    
C19   H4    S    
C9    H5    S    
C7    C8    D    
C5    Cl4   S    
N2    Cl1   S    
C21   N3    T    
C18   Cl3   S    
C15   O8    A    
C22   N4    T    
O8    Zn2   S    
C4    C21   S    
C17   C18   A    
O7    Zn1   S    
C14   O5    A    
C12   O4    A    
C10   Cl5   S    
C5    C6    A    
C16   C17   A    
C13   H1    S    
C3    C4    A    
O5    Zn1   S    
C11   C13   S    
C2    C16   A    
O1    Zn1   S    
C8    C10   S    
C18   C19   A    
H3    N1    S    
O2    Zn2   S    
C24   N6    T    
C13   N2    D    
C2    C3    A    
C3    C12   S    
C15   O7    A    
C11   N1    D    
C12   O3    A    
C6    C15   S    
C1    C7    S    
C7    C22   S    
C2    C20   A    
C8    C24   S    
O6    Zn2   S    
O4    Zn2   S    
C17   Cl2   S    
C4    C5    A    
