data_mof_unit_44174.cif
_audit_creation_date              2012-10-26T20:02:57-0400
_audit_creation_method            fapswitch 2.2
_symmetry_space_group_name_H-M    P1
_symmetry_Int_Tables_number       1
_space_group_crystal_system       triclinic
_cell_length_a                    10.704236
_cell_length_b                    12.322355
_cell_length_c                    13.148484
_cell_angle_alpha                 116.703899
_cell_angle_beta                  77.325581
_cell_angle_gamma                 101.281989
_cell_volume                      1502.17295029

loop_
_atom_site_label
_atom_site_type_symbol
_atom_type_description
_atom_site_fract_x
_atom_site_fract_y
_atom_site_fract_z
_atom_type_partial_charge
C1    C     C_R   0.510654 0.854956 0.286460 0.537423
C2    C     C_R   0.493550 0.566007 0.009768 0.048962
C3    C     C_R   0.456915 0.650509 0.124457 0.039587
C4    C     C_R   0.740080 0.999375 0.499171 0.546212
C5    C     C_R   0.453855 0.439211 0.978274 0.022915
C6    C     C_R   0.367773 0.399514 0.057565 0.059837
C7    C     C_R   0.318773 0.487943 0.164516 -0.143677
C8    C     C_R   0.361262 0.610763 0.196626 -0.126491
C9    C     C_R   0.499111 0.350798 0.870130 -0.139505
C10   C     C_R   0.372568 0.188247 0.914291 -0.132232
C11   C     C_R   0.515387 0.773153 0.163115 0.008573
C12   C     C_3   0.122526 0.000233 0.498673 0.046631
C13   C     C_R   0.702843 0.341846 0.323047 -0.134477
C14   C     C_R   0.325773 0.759552 0.646230 0.051061
C15   C     C_R   0.288612 0.662937 0.677886 -0.158792
C16   C     C_R   0.480904 0.145125 0.713786 0.544920
C17   C     C_R   0.354574 0.559568 0.622313 -0.131520
C18   C     C_R   0.459400 0.551339 0.533620 -0.014310
C19   C     C_R   0.493519 0.652575 0.504101 0.151295
C20   C     C_R   0.531307 0.447140 0.473628 -0.039196
C21   C     C_R   0.635650 0.445846 0.384751 0.016426
C22   C     C_R   0.669024 0.547216 0.357823 0.017095
C23   C     C_3   0.045228 0.023690 0.619766 -0.236686
C24   C     C_R   0.597845 0.646873 0.416617 -0.110842
C25   C     C_R   0.503970 0.343007 0.497937 0.038813
C26   C     C_R   0.671677 0.243819 0.352141 0.017958
C27   C     C_R   0.260255 0.000037 0.499429 0.539552
C28   C     C_3   0.960763 0.101184 0.465679 -0.230903
C29   C     C_3   0.103683 0.101845 0.466124 -0.233023
C30   C     C_3   0.901104 0.023830 0.619904 -0.233694
C31   C     C_3   0.924190 0.874470 0.410290 -0.226484
C32   C     C_3   0.878428 0.999576 0.498713 0.037269
C33   C     C_3   0.242750 0.223347 0.107608 -0.254228
C34   C     C_3   0.068700 0.875140 0.409441 -0.230517
C35   C     C_3   0.311532 0.232635 0.202874 -0.288136
C36   C     C_3   0.411931 0.142313 0.156201 -0.421071
C37   C     C_2   0.781017 0.555335 0.270823 0.530290
C38   C     C_R   0.330236 0.272458 0.026172 0.019591
C39   C     C_R   0.453955 0.227789 0.835903 -0.023531
C40   C     C_R   0.590055 0.814915 0.083123 -0.132133
C41   C     C_R   0.612536 0.735458 0.967508 -0.136209
C42   C     C_R   0.567344 0.612108 0.930947 -0.110927
Cu1   Cu    Cu3+1 0.529690 0.098270 0.475420 0.903497
Cu2   Cu    Cu3+1 0.470310 0.901730 0.524580 0.907315
H1    H     H_    0.930242 0.192482 0.527815 0.136381
H2    H     H_    0.668927 0.768903 0.906163 0.115094
H3    H     H_    0.946744 0.085788 0.378524 0.120396
H4    H     H_    0.315191 0.674215 0.278048 0.145352
H5    H     H_    0.723868 0.164411 0.304956 0.117361
H6    H     H_    0.778386 0.334071 0.251328 0.146971
H7    H     H_    0.427069 0.336355 0.563765 0.118697
H8    H     H_    0.274300 0.839556 0.689980 0.117755
H9    H     H_    0.321325 0.487901 0.650705 0.095805
H10   H     H_    0.208473 0.668220 0.745859 0.101102
H11   H     H_    0.630203 0.720448 0.392706 0.199968
H12   H     H_    0.081442 0.799818 0.429732 0.145378
H13   H     H_    0.158273 0.086917 0.379292 0.123513
H14   H     H_    0.141139 0.193174 0.528753 0.124096
H15   H     H_    0.869074 0.113580 0.684613 0.115666
H16   H     H_    0.082816 0.113104 0.684935 0.110250
H17   H     H_    0.868303 0.800294 0.433089 0.148575
H18   H     H_    0.907376 0.854505 0.322678 0.136047
H19   H     H_    0.122500 0.857273 0.321761 0.107896
H20   H     H_    0.367245 0.047482 0.109971 0.144742
H21   H     H_    0.491674 0.165580 0.096805 0.165061
H22   H     H_    0.452460 0.146554 0.228817 0.164757
H23   H     H_    0.843471 0.952332 0.645908 0.131124
H24   H     H_    0.358881 0.326669 0.247550 0.173431
H25   H     H_    0.238327 0.212092 0.267995 0.139166
H26   H     H_    0.155684 0.272652 0.146355 0.123699
H27   H     H_    0.205229 0.126097 0.059858 0.128685
H28   H     H_    0.970610 0.541669 0.211857 0.331717
H29   H     H_    0.056523 0.951648 0.645111 0.122824
H30   H     H_    0.339247 0.091860 0.887235 0.116358
H31   H     H_    0.247260 0.464044 0.225336 0.118363
H32   H     H_    0.569403 0.375103 0.809316 0.124329
H33   H     H_    0.633537 0.908808 0.110221 0.119784
H34   H     H_    0.589222 0.556277 0.839947 0.102647
N1    N     N_R   0.574690 0.246280 0.438200 -0.235169
N2    N     N_R   0.426100 0.754320 0.561190 -0.232599
O1    O     O_R   0.537340 0.972510 0.318130 -0.511330
O2    O     O_R   0.901665 0.530115 0.273825 -0.733110
O3    O     O_R   0.487200 0.806530 0.359650 -0.518339
O4    O     O_R   0.707380 0.082980 0.479220 -0.502599
O5    O     O_R   0.657240 0.917000 0.520740 -0.523784
O6    O     O_R   0.512800 0.193470 0.640350 -0.504269
O7    O     O_R   0.462660 0.027490 0.681870 -0.504077
O8    O     O_R   0.342760 0.083000 0.479260 -0.511979
O9    O     O_R   0.292620 0.917020 0.520780 -0.517935
O10   O     O_2   0.768766 0.589416 0.199697 -0.534441

loop_
_geom_bond_atom_site_label_1
_geom_bond_atom_site_label_2
_ccdc_geom_bond_type
C28   H3    S    
C34   H12   S    
C12   C29   S    
C41   C42   A    
C31   H17   S    
C35   C36   S    
C1    C11   S    
Cu2   O3    S    
C25   H7    S    
C7    C8    A    
C24   H11   S    
C12   C23   S    
C37   O10   D    
Cu1   O8    S    
C28   C29   S    
C2    C3    A    
C5    C6    A    
C36   H22   S    
C20   C25   A    
C1    O1    A    
C9    C39   A    
C18   C19   A    
C14   H8    S    
C16   O7    A    
C41   H2    S    
C6    C38   A    
C9    H32   S    
C14   N2    A    
Cu2   O7    S    
C30   H23   S    
C21   C22   A    
C16   O6    A    
Cu1   O4    S    
C31   H18   S    
C19   N2    A    
C23   H29   S    
C23   H16   S    
C28   H1    S    
C12   C27   S    
C11   C40   A    
C23   C30   S    
Cu2   N2    S    
C3    C8    A    
C26   H5    S    
C36   H21   S    
C7    H31   S    
C4    O5    A    
C22   C37   S    
C10   C39   A    
Cu1   Cu2   S    
C8    H4    S    
C5    C9    A    
C31   C32   S    
C4    O4    A    
C28   C32   S    
C30   H15   S    
C17   C18   A    
C31   C34   S    
C13   C21   A    
C20   C21   A    
C15   H10   S    
C4    C32   S    
C33   H26   S    
C40   C41   A    
C29   H13   S    
C42   H34   S    
Cu1   O1    S    
C22   C24   A    
C37   O2    S    
C2    C5    A    
C12   C34   S    
Cu2   O5    S    
C17   H9    S    
C15   C17   A    
C25   N1    A    
Cu1   O6    S    
C26   N1    A    
C6    C7    A    
C1    O3    A    
C33   C38   S    
C10   C38   A    
C19   C24   A    
C30   C32   S    
C10   H30   S    
C35   H24   S    
C2    C42   A    
C34   H19   S    
C33   C35   S    
C27   O9    A    
C18   C20   A    
C40   H33   S    
C27   O8    A    
C13   C26   A    
C3    C11   A    
C33   H27   S    
C16   C39   S    
C13   H6    S    
C29   H14   S    
C35   H25   S    
C14   C15   A    
C36   H20   S    
Cu1   N1    S    
H28   O2    S    
Cu2   O9    S    
