data_mof_unit_55179.cif
_audit_creation_date              2012-12-10T20:39:57-0500
_audit_creation_method            fapswitch 2.2
_symmetry_space_group_name_H-M    P1
_symmetry_Int_Tables_number       1
_space_group_crystal_system       triclinic
_cell_length_a                    23.322906
_cell_length_b                    10.81809
_cell_length_c                    9.889135
_cell_angle_alpha                 91.250039
_cell_angle_beta                  88.725002
_cell_angle_gamma                 90.160195
_cell_volume                      2493.90261053

loop_
_atom_site_label
_atom_site_type_symbol
_atom_type_description
_atom_site_fract_x
_atom_site_fract_y
_atom_site_fract_z
_atom_type_partial_charge
C1    C     C_R   0.499715 0.260348 0.497949 0.981839
C2    C     C_R   0.976747 0.310938 0.638459 -0.044444
C3    C     C_R   0.036574 0.320523 0.634882 -0.177571
C4    C     C_R   0.063807 0.430574 0.597671 -0.032386
C5    C     C_R   0.031051 0.535458 0.570640 -0.008384
C6    C     C_R   0.058417 0.646790 0.534392 -0.025434
C7    C     C_R   0.025613 0.753053 0.514781 -0.125527
C8    C     C_R   0.966103 0.747494 0.525190 -0.143688
C9    C     C_R   0.123432 0.437868 0.584594 0.606445
C10   C     C_R   0.117963 0.647433 0.514349 0.544351
C11   C     C_R   0.244125 0.616061 0.589195 -0.078450
C12   C     C_R   0.389498 0.498608 0.501139 0.929307
C13   C     C_R   0.302980 0.603931 0.580087 -0.203311
C14   C     C_R   0.327441 0.507277 0.502933 -0.080691
C15   C     C_R   0.292619 0.425849 0.425739 -0.123650
C16   C     C_R   0.233892 0.455491 0.414129 -0.057779
C17   C     C_R   0.209258 0.541329 0.508730 0.218905
C18   C     C_R   0.757294 0.444007 0.627880 -0.053609
C19   C     C_R   0.698609 0.440686 0.610720 -0.204115
C20   C     C_R   0.673673 0.500509 0.501798 -0.134039
C21   C     C_R   0.709279 0.561514 0.405884 -0.087409
C22   C     C_R   0.768760 0.555373 0.419312 -0.115677
C23   C     C_R   0.500528 0.740192 0.500053 0.920504
C24   C     C_R   0.792700 0.501669 0.532671 0.251232
C25   C     C_R   0.475435 0.066438 0.603243 0.020407
C26   C     C_R   0.494827 0.128961 0.490616 -0.204885
C27   C     C_R   0.506681 0.063101 0.368891 0.430749
C28   C     C_R   0.512048 0.934987 0.372555 -0.156369
C29   C     C_R   0.496949 0.872584 0.494608 -0.303391
C30   C     C_R   0.472818 0.940114 0.604204 0.074173
C31   C     C_3   0.485243 0.941352 0.753522 0.356870
C32   C     C_3   0.491613 0.080481 0.747076 -0.449157
C33   C     C_R   0.450234 0.516703 0.075261 0.230613
C34   C     C_R   0.610853 0.501486 0.499154 0.914990
C35   C     C_R   0.549079 0.476417 0.066265 -0.016475
C36   C     C_R   0.549170 0.483815 0.923616 -0.178888
C37   C     C_R   0.449853 0.513656 0.932113 0.071717
C38   C     C_3   0.400043 0.425439 0.932647 -0.273203
C39   C     C_3   0.399972 0.432165 0.085686 -0.486476
C40   C     C_R   0.878895 0.624989 0.548938 0.521949
C41   C     C_R   0.884039 0.406403 0.576873 0.541932
C42   C     C_R   0.943325 0.413938 0.600402 -0.089855
C43   C     C_R   0.970867 0.528209 0.575669 -0.017420
C44   C     C_R   0.938431 0.634727 0.551181 -0.014071
H1    H     H_    0.672392 0.393752 0.685603 0.171155
H2    H     H_    0.796866 0.599970 0.346434 0.196446
H3    H     H_    0.525802 0.894670 0.781206 0.091384
H4    H     H_    0.459125 0.133562 0.808249 0.223755
H5    H     H_    0.536640 0.112498 0.758685 0.169144
H6    H     H_    0.061965 0.241211 0.661482 0.220644
H7    H     H_    0.588237 0.466474 0.865444 0.184664
H8    H     H_    0.411777 0.332408 0.890572 0.157733
H9    H     H_    0.362233 0.479049 0.134533 0.235232
H10   H     H_    0.410926 0.342905 0.131164 0.218162
H11   H     H_    0.045705 0.840155 0.489335 0.216517
H12   H     H_    0.941851 0.830515 0.507021 0.212160
H13   H     H_    0.225402 0.683362 0.659696 0.163252
H14   H     H_    0.329518 0.666588 0.638616 0.155861
H15   H     H_    0.775181 0.402969 0.716468 0.182709
N1    N     N_R   0.853151 0.511263 0.554375 -0.351795
N2    N     N_R   0.148825 0.542687 0.535876 -0.339424
N3    N     N_R   0.499610 0.499140 0.142800 -0.130072
N4    N     N_R   0.499610 0.499180 0.857150 -0.132697
O1    O     O_R   0.500010 0.316790 0.614690 -0.638528
O2    O     O_2   0.857882 0.295251 0.568657 -0.512642
O3    O     O_2   0.155898 0.339971 0.616419 -0.507435
O4    O     O_2   0.144683 0.750560 0.471085 -0.534890
O5    O     O_R   0.500000 0.316760 0.385350 -0.526155
O6    O     O_R   0.416160 0.499980 0.614700 -0.633651
O7    O     O_R   0.416150 0.499940 0.385360 -0.600385
O8    O     O_R   0.500000 0.683240 0.614650 -0.649244
O9    O     O_R   0.499990 0.683210 0.385310 -0.571608
O10   O     O_R   0.583850 0.500060 0.614640 -0.634892
O11   O     O_R   0.583840 0.500020 0.385300 -0.587806
O12   O     O_2   0.846916 0.728097 0.538892 -0.536606
Zn1   Zn    Zn3+2 0.500000 0.500020 0.653130 0.942903
Zn2   Zn    Zn3+2 0.500000 0.499980 0.346870 1.048393
C45   C     C_2   0.951859 0.194551 0.690766 1.014101
O13   O     O_2   0.911752 0.197908 0.772569 -0.563498
O14   O     O_R   0.976435 0.081121 0.651868 -0.804824
H16   H     H_    0.956529 0.008525 0.696146 0.352508
C46   C     C_2   0.687168 0.643312 0.300637 0.997524
O15   O     O_2   0.641812 0.697660 0.318956 -0.613012
O16   O     O_R   0.719943 0.663908 0.183032 -0.753056
H17   H     H_    0.700720 0.722814 0.119901 0.371127
O17   O     O_3   0.522530 0.124191 0.251959 -0.548003
C47   C     C_3   0.476774 0.118800 0.160857 -0.190996
H18   H     H_    0.485372 0.186288 0.079952 0.174103
H19   H     H_    0.434991 0.143300 0.210708 0.178290
H20   H     H_    0.473611 0.026153 0.111256 0.183745
C48   C     C_2   0.540843 0.875314 0.252405 1.060852
O18   O     O_2   0.590730 0.901560 0.225092 -0.558845
O19   O     O_R   0.509727 0.800171 0.163522 -0.811591
H21   H     H_    0.534420 0.766900 0.085396 0.323007
O20   O     O_3   0.436033 0.914962 0.833970 -0.600824
C49   C     C_3   0.433099 0.788442 0.860832 -0.146785
H22   H     H_    0.475059 0.751038 0.891333 0.139556
H23   H     H_    0.416330 0.736610 0.772060 0.183375
H24   H     H_    0.402581 0.775470 0.946912 0.223860
C50   C     C_2   0.600866 0.423008 0.123820 0.946793
O21   O     O_2   0.648222 0.460061 0.087764 -0.634181
O22   O     O_R   0.596130 0.321381 0.207875 -0.715948
H25   H     H_    0.634769 0.290366 0.237485 0.349025
C51   C     C_2   0.345609 0.475939 0.877080 1.013370
O23   O     O_2   0.316776 0.410535 0.802498 -0.580036
O24   O     O_R   0.326670 0.594343 0.915595 -0.837559
H26   H     H_    0.288085 0.614948 0.876833 0.346711
C52   C     C_2   0.313939 0.301470 0.377344 0.954894
O25   O     O_2   0.365136 0.280747 0.362653 -0.683131
O26   O     O_R   0.274992 0.204502 0.357250 -0.730574
H27   H     H_    0.294417 0.124468 0.327159 0.355949
C53   C     C_2   0.200161 0.406781 0.297139 1.001222
O27   O     O_2   0.225256 0.369997 0.194047 -0.590042
O28   O     O_R   0.140234 0.409688 0.299925 -0.800282
H28   H     H_    0.123098 0.376127 0.213202 0.361263

loop_
_geom_bond_atom_site_label_1
_geom_bond_atom_site_label_2
_ccdc_geom_bond_type
C47   H18   S    
O19   H21   S    
C40   N1    A    
C41   C42   A    
N3    Zn2   S    
O20   C49   S    
C7    H11   S    
C12   O6    A    
C8    H12   S    
C51   O24   S    
O28   H28   S    
C7    C8    A    
C39   H9    S    
C10   O4    S    
C26   C27   A    
C29   C30   A    
C18   C24   A    
C23   C29   S    
C28   C29   A    
C30   C31   S    
C45   O14   S    
C39   H10   S    
C38   H8    S    
N4    Zn1   S    
C15   C16   A    
C49   H24   S    
O5    Zn2   S    
C1    O5    A    
C52   O25   D    
O6    Zn1   S    
C18   C19   A    
O26   H27   S    
C53   O27   D    
C38   C51   S    
O9    Zn2   S    
C17   N2    S    
C9    O3    S    
C35   C36   A    
C16   C17   A    
O11   Zn2   S    
C49   H23   S    
C35   N3    A    
C36   N4    A    
C20   C34   S    
C25   C32   S    
C5    C43   A    
C31   H3    S    
C13   C14   A    
O7    Zn2   S    
C32   H4    S    
C53   O28   S    
C51   O23   D    
C37   N4    A    
C3    H6    S    
C38   C39   S    
C23   O8    A    
O16   H17   S    
C48   O18   D    
C45   O13   D    
C33   N3    A    
C41   O2    S    
C13   H14   S    
C25   C26   A    
C33   C37   A    
C15   C52   S    
C27   O17   S    
C43   C44   A    
C37   C38   S    
C2    C45   S    
C48   O19   S    
C31   C32   S    
C40   C44   A    
C24   N1    S    
C49   H22   S    
C50   O22   S    
O1    Zn1   S    
C33   C39   S    
C20   C21   A    
C36   H7    S    
C34   O11   A    
C22   H2    S    
C12   C14   S    
C46   O16   S    
C47   H19   S    
C1    C26   S    
O10   Zn1   S    
C9    N2    A    
C10   N2    A    
C42   C43   A    
C3    C4    A    
C1    O1    A    
O8    Zn1   S    
C16   C53   S    
C25   C30   A    
C12   O7    A    
C11   C17   A    
O17   C47   S    
C23   O9    A    
C8    C44   A    
C41   N1    A    
O14   H16   S    
C6    C10   A    
C19   H1    S    
C6    C7    A    
C40   O12   S    
C19   C20   A    
C2    C3    A    
C11   H13   S    
C11   C13   A    
C5    C6    A    
C2    C42   A    
C31   O20   S    
C50   O21   D    
C52   O26   S    
C28   C48   S    
C22   C24   A    
O22   H25   S    
C32   H5    S    
C34   O10   A    
C18   H15   S    
C4    C5    A    
C21   C46   S    
C46   O15   D    
O24   H26   S    
C47   H20   S    
C27   C28   A    
C14   C15   A    
C4    C9    A    
C21   C22   A    
C35   C50   S    
