data_mof_unit_7294.cif
_audit_creation_date              2012-12-10T18:46:17-0500
_audit_creation_method            fapswitch 2.2
_symmetry_space_group_name_H-M    P1
_symmetry_Int_Tables_number       1
_space_group_crystal_system       triclinic
_cell_length_a                    9.919849
_cell_length_b                    10.620226
_cell_length_c                    13.233197
_cell_angle_alpha                 91.304113
_cell_angle_beta                  70.013733
_cell_angle_gamma                 90.462423
_cell_volume                      1309.82947814

loop_
_atom_site_label
_atom_site_type_symbol
_atom_type_description
_atom_site_fract_x
_atom_site_fract_y
_atom_site_fract_z
_atom_type_partial_charge
C1    C     C_R   0.499527 0.739362 0.502169 0.912511
C2    C     C_R   0.445133 0.519358 0.977016 0.016975
C3    C     C_R   0.465637 0.465234 0.874524 0.023400
C4    C     C_R   0.552095 0.496575 0.022992 0.015609
C5    C     C_R   0.686272 0.443291 0.960878 0.019574
C6    C     C_R   0.702724 0.386676 0.861096 0.467990
C7    C     C_R   0.586756 0.388173 0.824018 -0.223845
C8    C     C_R   0.523034 0.511771 0.132263 -0.174418
C9    C     C_R   0.772759 0.476254 0.110480 0.432989
C10   C     C_R   0.369709 0.495721 0.820958 -0.075365
C11   C     C_R   0.591077 0.932376 0.418526 -0.305312
C12   C     C_R   0.420244 0.494256 0.703606 0.835083
C13   C     C_R   0.590058 0.062141 0.415823 0.469040
C14   C     C_R   0.496868 0.128096 0.504619 -0.299639
C15   C     C_R   0.403916 0.067229 0.596124 0.373669
C16   C     C_R   0.404114 0.937198 0.597159 0.477857
C17   C     C_R   0.498356 0.871634 0.507319 -0.258217
C18   C     C_R   0.958167 0.423637 0.430670 0.376144
C19   C     C_R   0.100999 0.423017 0.429996 0.430942
C20   C     C_R   0.041778 0.576815 0.568954 -0.182292
C21   C     C_R   0.898805 0.577610 0.568787 0.380196
C22   C     C_R   0.499237 0.260560 0.500563 0.955804
C23   C     C_R   0.580253 0.501918 0.295799 0.921911
C24   C     C_R   0.797878 0.440167 0.003578 -0.114462
C25   C     C_R   0.629723 0.500731 0.178009 -0.204559
C26   C     C_R   0.239782 0.555780 0.876738 -0.235085
C27   C     C_R   0.216375 0.606247 0.978712 -0.086680
C28   C     C_R   0.322128 0.598095 0.025716 0.392866
H1    H     H_    0.071964 0.638415 0.623946 0.204679
H2    H     H_    0.904402 0.408795 0.954693 0.216640
H3    H     H_    0.412603 0.520533 0.183473 0.240479
H4    H     H_    0.163543 0.576723 0.837176 0.186951
H5    H     H_    0.121753 0.663402 0.016397 0.192630
H6    H     H_    0.594492 0.332609 0.752639 0.150249
H7    H     H_    0.661252 0.878324 0.350558 0.168150
N1    N     N_R   0.142790 0.500030 0.500030 -0.178996
N2    N     N_R   0.857180 0.499940 0.500010 -0.200306
O1    O     O_R   0.385370 0.683250 0.500010 -0.603852
O2    O     O_R   0.614700 0.683220 0.500010 -0.562718
O3    O     O_R   0.328400 0.499990 0.653620 -0.626582
O4    O     O_R   0.557730 0.499960 0.653620 -0.578884
O5    O     O_R   0.385300 0.316780 0.499990 -0.643974
O6    O     O_R   0.614630 0.316750 0.499990 -0.560646
O7    O     O_R   0.442270 0.500040 0.346380 -0.625457
O8    O     O_R   0.671600 0.500010 0.346380 -0.572786
Zn1   Zn    Zn3+2 0.346870 0.500020 0.500000 0.992059
Zn2   Zn    Zn3+2 0.653130 0.499980 0.500000 1.055226
O9    O     O_3   0.887813 0.478893 0.146119 -0.696474
H8    H     H_    0.873488 0.550470 0.197936 0.353022
O10   O     O_3   0.675608 0.126538 0.327069 -0.685543
H9    H     H_    0.734095 0.065337 0.272131 0.362125
O11   O     O_3   0.314014 0.130274 0.686502 -0.664322
H10   H     H_    0.339004 0.220653 0.684483 0.317261
O12   O     O_3   0.313823 0.878915 0.687951 -0.675409
H11   H     H_    0.338203 0.788634 0.686355 0.322875
Cl1   Cl    Cl    0.911646 0.322850 0.340862 -0.395566
O13   O     O_3   0.194552 0.343260 0.355887 -0.699522
H12   H     H_    0.282347 0.336006 0.372934 0.389818
Cl2   Cl    Cl    0.777317 0.682693 0.657807 -0.536815
O14   O     O_3   0.829049 0.325105 0.804054 -0.748159
H13   H     H_    0.823383 0.293052 0.734629 0.344464
Cl3   Cl    Cl    0.304771 0.709784 0.130653 -0.583301

loop_
_geom_bond_atom_site_label_1
_geom_bond_atom_site_label_2
_ccdc_geom_bond_type
C12   O3    A    
C2    C4    A    
C9    C24   A    
C26   H4    S    
C12   O4    A    
C23   O8    A    
N2    Zn2   S    
C1    C17   S    
C22   O6    A    
C14   C15   A    
C18   Cl1   S    
C4    C8    A    
C20   C21   A    
C10   C26   A    
C11   H7    S    
C2    C3    A    
C26   C27   A    
C9    C25   A    
C27   H5    S    
C3    C10   A    
C13   C14   A    
C19   O13   S    
N1    Zn1   S    
C8    C25   A    
C11   C13   A    
C14   C22   S    
O13   H12   S    
C22   O5    A    
C5    C24   A    
C10   C12   S    
C1    O1    A    
O9    H8    S    
C18   N2    A    
O7    Zn1   S    
C21   Cl2   S    
C6    C7    A    
C3    C7    A    
C20   H1    S    
C23   C25   S    
O4    Zn2   S    
C5    C6    A    
C7    H6    S    
C16   O12   S    
O1    Zn1   S    
C24   H2    S    
O3    Zn1   S    
C13   O10   S    
C20   N1    A    
C6    O14   S    
C4    C5    A    
C21   N2    A    
O11   H10   S    
C9    O9    S    
O2    Zn2   S    
C18   C19   A    
O5    Zn1   S    
O8    Zn2   S    
C27   C28   A    
C1    O2    A    
O12   H11   S    
O14   H13   S    
C2    C28   A    
O10   H9    S    
C19   N1    A    
C15   O11   S    
C8    H3    S    
O6    Zn2   S    
C11   C17   A    
C23   O7    A    
C15   C16   A    
C16   C17   A    
C28   Cl3   S    
