data_mof_unit_12668.cif
_audit_creation_date              2012-12-10T17:17:20-0500
_audit_creation_method            fapswitch 2.2
_symmetry_space_group_name_H-M    P1
_symmetry_Int_Tables_number       1
_space_group_crystal_system       triclinic
_cell_length_a                    27.594097
_cell_length_b                    13.051499
_cell_length_c                    11.753172
_cell_angle_alpha                 100.388716
_cell_angle_beta                  94.104786
_cell_angle_gamma                 92.013038
_cell_volume                      4147.78886398

loop_
_atom_site_label
_atom_site_type_symbol
_atom_type_description
_atom_site_fract_x
_atom_site_fract_y
_atom_site_fract_z
_atom_type_partial_charge
C1    C     C_R   0.499529 0.299298 0.478038 0.873970
C2    C     C_R   0.500412 0.700741 0.521919 0.885705
C3    C     C_R   0.101505 0.534467 0.469616 -0.041402
C4    C     C_R   0.900365 0.495125 0.530376 -0.048152
C5    C     C_R   0.124908 0.452866 0.401987 -0.126161
C6    C     C_R   0.877064 0.577494 0.597013 -0.091706
C7    C     C_R   0.096204 0.368122 0.334180 -0.095133
C8    C     C_R   0.905633 0.663880 0.661778 -0.085408
C9    C     C_R   0.128416 0.628768 0.517450 -0.013703
C10   C     C_R   0.873309 0.400741 0.483177 -0.082229
C11   C     C_R   0.354584 0.505691 0.501820 -0.076192
C12   C     C_R   0.645876 0.504760 0.497777 -0.076502
C13   C     C_R   0.974063 0.421069 0.451872 0.051556
C14   C     C_R   0.027816 0.608260 0.548295 0.100430
C15   C     C_R   0.978584 0.595169 0.573862 -0.011857
C16   C     C_R   0.023311 0.434289 0.425827 -0.049183
C17   C     C_R   0.950955 0.504589 0.517208 0.037939
C18   C     C_R   0.050928 0.524805 0.482722 0.038945
C19   C     C_R   0.948420 0.323628 0.423689 -0.089831
C20   C     C_R   0.053425 0.705717 0.577024 -0.179048
C21   C     C_R   0.898239 0.312974 0.432077 -0.034263
C22   C     C_R   0.103467 0.716151 0.569103 -0.045034
C23   C     C_R   0.407512 0.499588 0.499946 0.855439
C24   C     C_R   0.592591 0.501249 0.499985 0.869591
C25   C     C_R   0.045241 0.364479 0.338989 0.318786
C26   C     C_R   0.956504 0.665925 0.659277 0.271693
C27   C     C_R   0.499119 0.814384 0.535169 -0.245771
C28   C     C_R   0.501154 0.185778 0.464672 -0.246888
C29   C     C_R   0.529558 0.021982 0.366861 0.402868
C30   C     C_R   0.471457 0.978703 0.633490 0.415040
C31   C     C_R   0.527659 0.129893 0.378002 0.343937
C32   C     C_R   0.473232 0.870839 0.622753 0.337212
C33   C     C_R   0.475551 0.132179 0.537521 -0.098384
C34   C     C_R   0.524599 0.867614 0.461602 -0.115980
C35   C     C_R   0.486596 0.028132 0.543196 -0.079427
C36   C     C_R   0.513994 0.972032 0.456469 -0.083958
C37   C     C_R   0.450779 0.405040 0.019893 -0.147360
C38   C     C_R   0.549136 0.594614 0.980282 -0.152451
C39   C     C_R   0.456189 0.413857 0.142539 0.090148
C40   C     C_R   0.543717 0.586045 0.857778 0.106308
C41   C     C_R   0.521956 0.537816 0.157691 0.083889
C42   C     C_R   0.478028 0.461976 0.842206 0.082643
C43   C     C_R   0.517937 0.533723 0.035062 0.016185
C44   C     C_R   0.481972 0.465974 0.964936 0.017932
C45   C     C_R   0.176276 0.463257 0.401169 0.633134
C46   C     C_R   0.826085 0.565974 0.601289 0.553555
C47   C     C_R   0.178697 0.632847 0.502882 0.546708
C48   C     C_R   0.822659 0.397915 0.495471 0.625750
C49   C     C_R   0.287541 0.615638 0.556214 -0.039624
C50   C     C_R   0.716902 0.418163 0.423655 0.046075
C51   C     C_R   0.336938 0.603754 0.540234 -0.199121
C52   C     C_R   0.666677 0.419132 0.433355 -0.295781
C53   C     C_R   0.323186 0.415896 0.490760 -0.112450
C54   C     C_R   0.675160 0.597057 0.539829 -0.075172
C55   C     C_R   0.272976 0.428830 0.504970 -0.014609
C56   C     C_R   0.725406 0.597052 0.521425 -0.086827
C57   C     C_R   0.253916 0.530098 0.512692 0.200941
C58   C     C_R   0.747590 0.500066 0.491620 0.199806
Cu1   Cu    Cu3+1 0.503580 0.507730 0.615930 1.016837
Cu2   Cu    Cu3+1 0.496420 0.492270 0.384070 1.018646
H1    H     H_    0.450072 0.414025 0.786673 0.155564
H2    H     H_    0.549984 0.585657 0.213072 0.155619
H3    H     H_    0.643232 0.354720 0.385970 0.187814
H4    H     H_    0.362693 0.669890 0.567052 0.208777
H5    H     H_    0.967472 0.253969 0.395083 0.217278
H6    H     H_    0.034596 0.775681 0.606035 0.188264
N1    N     N_R   0.202257 0.541956 0.476768 -0.424478
N2    N     N_R   0.799632 0.489225 0.524233 -0.437237
N3    N     N_R   0.508960 0.519350 0.790140 -0.217030
N4    N     N_R   0.491040 0.480650 0.209860 -0.216541
O1    O     O_R   0.502540 0.354460 0.582000 -0.618575
O2    O     O_R   0.497460 0.645540 0.418000 -0.622194
O3    O     O_R   0.496500 0.341410 0.386200 -0.496839
O4    O     O_R   0.503500 0.658590 0.613800 -0.493689
O5    O     O_R   0.433290 0.506540 0.597890 -0.588134
O6    O     O_R   0.566710 0.493460 0.402110 -0.579890
O7    O     O_R   0.427240 0.493490 0.402090 -0.595678
O8    O     O_R   0.572760 0.506510 0.597910 -0.600786
O9    O     O_2   0.199976 0.399269 0.322979 -0.550950
O10   O     O_2   0.803630 0.625166 0.686004 -0.507038
O11   O     O_2   0.798045 0.306314 0.491552 -0.544121
O12   O     O_2   0.201396 0.724418 0.497048 -0.491241
C59   C     C_2   0.342730 0.309804 0.471410 0.322807
H7    H     H_    0.326140 0.247518 0.507209 0.123933
O13   O     O_2   0.377374 0.290026 0.413757 -0.544994
C60   C     C_2   0.654644 0.693164 0.601873 0.441098
H8    H     H_    0.677508 0.747412 0.666120 0.153072
O14   O     O_2   0.612504 0.713571 0.582162 -0.576760
Cl1   Cl    Cl    0.442261 0.808609 0.720759 -0.440657
Cl2   Cl    Cl    0.559243 0.193034 0.281714 -0.484082
Cl3   Cl    Cl    0.544958 0.951478 0.231823 -0.380522
Cl4   Cl    Cl    0.456986 0.050185 0.768889 -0.364504
C61   C     C_2   0.575340 0.653538 0.804459 0.504285
H9    H     H_    0.609223 0.624972 0.773437 0.024803
O15   O     O_2   0.565754 0.744164 0.804688 -0.446093
C62   C     C_2   0.424776 0.345930 0.196405 0.502236
H10   H     H_    0.391185 0.374238 0.229792 0.082158
O16   O     O_2   0.434371 0.255150 0.195037 -0.435343
C63   C     C_2   0.411771 0.332344 0.952737 0.420721
H11   H     H_    0.376014 0.328732 0.985140 0.077448
O17   O     O_2   0.419863 0.271950 0.865006 -0.479812
C64   C     C_2   0.588187 0.667090 0.047583 0.420638
H12   H     H_    0.624119 0.669769 0.015922 0.070528
O18   O     O_2   0.579927 0.728345 0.134501 -0.480582
C65   C     C_2   0.241242 0.338887 0.521796 0.394391
H13   H     H_    0.246430 0.260543 0.476496 0.088371
O19   O     O_2   0.208843 0.351994 0.587760 -0.520238
C66   C     C_2   0.752454 0.694238 0.505005 0.511082
H14   H     H_    0.788190 0.689327 0.472068 0.092960
O20   O     O_2   0.734875 0.779644 0.521858 -0.484813
C67   C     C_2   0.118843 0.280259 0.261854 0.590763
H15   H     H_    0.145804 0.236491 0.301898 0.074674
O21   O     O_2   0.108762 0.258196 0.157226 -0.426769
C68   C     C_2   0.883819 0.755885 0.728851 0.565620
H16   H     H_    0.896324 0.784781 0.818921 0.126808
O22   O     O_2   0.853244 0.803217 0.681891 -0.480611
C69   C     C_2   0.733231 0.343934 0.324576 0.462511
H17   H     H_    0.712626 0.270785 0.292352 0.111287
O23   O     O_2   0.768155 0.366119 0.273939 -0.541118
C70   C     C_2   0.275082 0.705341 0.644007 0.559275
H18   H     H_    0.243096 0.699531 0.691456 0.104802
O24   O     O_2   0.300747 0.785708 0.666044 -0.444329
C71   C     C_2   0.873245 0.211320 0.377750 0.524914
H19   H     H_    0.836440 0.207655 0.337942 0.136770
O25   O     O_2   0.894243 0.130047 0.373629 -0.494345
C72   C     C_2   0.127421 0.818408 0.623809 0.535305
H20   H     H_    0.109152 0.889625 0.616988 0.073808
O26   O     O_2   0.165686 0.824014 0.683992 -0.479098
Cl5   Cl    Cl    0.009556 0.286789 0.220337 -0.497809
Cl6   Cl    Cl    0.991402 0.742929 0.779706 -0.580627
C73   C     C_2   0.567742 0.819907 0.407964 0.638358
H21   H     H_    0.567349 0.737976 0.370147 0.083783
O27   O     O_2   0.605687 0.871877 0.411338 -0.450220
C74   C     C_2   0.431880 0.178940 0.589606 0.590906
H22   H     H_    0.431012 0.261663 0.622696 0.071305
O28   O     O_2   0.394859 0.124974 0.590254 -0.479054

loop_
_geom_bond_atom_site_label_1
_geom_bond_atom_site_label_2
_ccdc_geom_bond_type
C46   O10   S    
C61   H9    S    
C50   C69   S    
C8    C26   A    
C14   C18   A    
C35   C36   A    
C29   Cl3   S    
C40   C61   S    
C25   Cl5   S    
C68   H16   S    
C71   H19   S    
C67   O21   D    
C48   O11   S    
C65   O19   D    
C29   C36   A    
C1    O1    A    
C30   C35   A    
C55   C65   S    
C20   H6    S    
C19   C21   A    
C26   Cl6   S    
C69   O23   D    
C60   O14   D    
C9    C22   A    
C71   O25   D    
C49   C70   S    
Cu2   O2    S    
Cu2   O3    S    
C49   C57   A    
C66   H14   S    
C3    C18   A    
C47   O12   S    
C56   C66   S    
C33   C74   S    
C59   H7    S    
C7    C67   S    
C49   C51   A    
C62   O16   D    
C45   N1    A    
C1    C28   S    
C50   C52   A    
C2    C27   S    
C11   C53   A    
C8    C68   S    
Cu1   Cu2   S    
C27   C34   A    
C38   C40   A    
C41   C43   A    
C42   C44   A    
C41   H2    S    
C57   N1    S    
C2    O2    A    
Cu1   O8    S    
C47   N1    A    
C12   C52   A    
C70   O24   D    
C53   C55   A    
C10   C21   A    
C54   C56   A    
Cu2   O7    S    
C40   N3    A    
C13   C19   A    
C50   C58   A    
C14   C20   A    
C4    C6    A    
C5    C7    A    
C60   H8    S    
C24   O6    A    
C15   C26   A    
C74   O28   D    
C3    C5    A    
C5    C45   A    
Cu2   O6    S    
C42   N3    A    
C23   O7    A    
C21   C71   S    
C43   C44   A    
C46   N2    A    
C3    C9    A    
C68   O22   D    
C63   H11   S    
Cu1   O4    S    
Cu2   N4    S    
C29   C31   A    
C31   Cl2   S    
C62   H10   S    
C45   O9    S    
C16   C18   A    
C48   N2    A    
C64   O18   D    
C42   H1    S    
Cu1   N3    S    
C4    C17   A    
C58   N2    S    
C63   O17   D    
C20   C22   A    
C28   C33   A    
C9    C47   A    
C55   C57   A    
C32   Cl1   S    
C10   C48   A    
C4    C10   A    
C73   H21   S    
Cu1   O5    S    
C37   C63   S    
C70   H18   S    
C54   C60   S    
C24   O8    A    
C16   C25   A    
C15   C17   A    
C72   O26   D    
C6    C46   A    
C67   H15   S    
C59   O13   D    
C27   C32   A    
C28   C31   A    
C51   H4    S    
C23   O5    A    
C73   O27   D    
C52   H3    S    
C2    O4    A    
C34   C73   S    
C6    C8    A    
C66   O20   D    
C74   H22   S    
C65   H13   S    
C12   C24   S    
C7    C25   A    
C13   C17   A    
C53   C59   S    
C1    O3    A    
C37   C44   A    
C38   C43   A    
C38   C64   S    
C69   H17   S    
C30   C32   A    
C61   O15   D    
C72   H20   S    
C11   C23   S    
C33   C35   A    
C39   N4    A    
C56   C58   A    
C19   H5    S    
C34   C36   A    
C64   H12   S    
C39   C62   S    
C11   C51   A    
C37   C39   A    
C13   C16   A    
C14   C15   A    
C22   C72   S    
C12   C54   A    
Cu1   O1    S    
C41   N4    A    
C30   Cl4   S    
