data_mof_unit_20896.cif
_audit_creation_date              2012-12-10T18:10:16-0500
_audit_creation_method            fapswitch 2.2
_symmetry_space_group_name_H-M    P1
_symmetry_Int_Tables_number       1
_space_group_crystal_system       triclinic
_cell_length_a                    10.735116
_cell_length_b                    9.436748
_cell_length_c                    15.888317
_cell_angle_alpha                 90.008161
_cell_angle_beta                  89.58486
_cell_angle_gamma                 90.059293
_cell_volume                      1609.51622544

loop_
_atom_site_label
_atom_site_type_symbol
_atom_type_description
_atom_site_fract_x
_atom_site_fract_y
_atom_site_fract_z
_atom_type_partial_charge
C1    C     C_R   0.259808 0.500039 0.502491 0.783911
C2    C     C_3   0.593692 0.616148 0.951881 0.772813
C3    C     C_3   0.586373 0.617233 0.050288 -0.396370
C4    C     C_1   0.501522 0.499933 0.824706 -0.021390
C5    C     C_1   0.500987 0.498532 0.175356 -0.058741
C6    C     C_1   0.500850 0.499676 0.250822 -0.162210
C7    C     C_3   0.073090 0.645888 0.537694 -0.405494
C8    C     C_3   0.073539 0.384459 0.567279 -0.320339
C9    C     C_3   0.929420 0.649330 0.538460 -0.146363
C10   C     C_3   0.928877 0.378005 0.566001 -0.171831
C11   C     C_3   0.070444 0.471788 0.416831 -0.388898
C12   C     C_3   0.121844 0.500371 0.505851 0.064598
C13   C     C_3   0.877432 0.501044 0.509361 0.068208
C14   C     C_R   0.500293 0.499971 0.340345 0.828519
C15   C     C_3   0.926995 0.474629 0.418429 -0.424979
C16   C     C_3   0.595749 0.083607 0.559738 -0.262900
C17   C     C_3   0.595757 0.916764 0.559702 -0.223595
C18   C     C_3   0.375858 0.083997 0.526608 0.255229
C19   C     C_3   0.375806 0.915833 0.526471 0.246435
C20   C     C_3   0.529251 0.084365 0.416526 0.312635
C21   C     C_3   0.529321 0.915655 0.416532 0.300540
C22   C     C_R   0.739518 0.500208 0.504535 0.792453
C23   C     C_R   0.499891 0.500001 0.659741 0.855729
C24   C     C_3   0.366680 0.527361 0.048416 -0.148645
C25   C     C_3   0.554587 0.353813 0.047248 -0.135233
C26   C     C_3   0.543806 0.352314 0.949569 -0.376230
C27   C     C_3   0.368221 0.525270 0.950597 -0.522541
C28   C     C_1   0.500715 0.499979 0.749249 -0.131323
C29   C     C_3   0.500277 0.496267 0.082954 0.029608
C30   C     C_3   0.502418 0.499923 0.916921 0.116730
Cu1   Cu    Cu3+1 0.499860 0.642410 0.500040 0.996112
Cu2   Cu    Cu3+1 0.499860 0.357590 0.500040 0.970465
H1    H     H_    0.305741 0.440849 0.925849 0.197386
H2    H     H_    0.475557 0.270817 0.928630 0.196266
H3    H     H_    0.901026 0.729384 0.490759 0.141793
H4    H     H_    0.903642 0.275848 0.535322 0.116237
H5    H     H_    0.105848 0.553344 0.372001 0.182932
H6    H     H_    0.103122 0.366669 0.393798 0.177782
H7    H     H_    0.893449 0.559255 0.375336 0.183935
H8    H     H_    0.890883 0.372224 0.393639 0.197545
H9    H     H_    0.583150 0.123762 0.624766 0.140892
H10   H     H_    0.583379 0.876487 0.624721 0.167094
H11   H     H_    0.690135 0.121113 0.541129 0.201291
H12   H     H_    0.690068 0.879820 0.540838 0.209597
H13   H     H_    0.455189 0.119536 0.372144 0.017066
H14   H     H_    0.455363 0.880216 0.372097 0.024423
H15   H     H_    0.307186 0.116732 0.478171 0.085847
H16   H     H_    0.307382 0.883342 0.477801 0.085553
H17   H     H_    0.655578 0.350889 0.062838 0.177302
H18   H     H_    0.340474 0.636614 0.068577 0.180327
H19   H     H_    0.635232 0.322212 0.921379 0.210716
H20   H     H_    0.330018 0.626457 0.926046 0.190454
H21   H     H_    0.551864 0.721226 0.073916 0.171489
H22   H     H_    0.681301 0.604954 0.077206 0.202901
H23   H     H_    0.107527 0.732573 0.496003 0.178217
H24   H     H_    0.110450 0.278793 0.548528 0.190297
H25   H     H_    0.111528 0.666544 0.601527 0.198232
H26   H     H_    0.110830 0.406883 0.630998 0.212712
N1    N     N_3   0.500250 0.143650 0.501830 -0.176878
N2    N     N_3   0.500250 0.856350 0.501830 -0.185527
O1    O     O_R   0.317570 0.620260 0.500050 -0.565883
O2    O     O_R   0.317570 0.379740 0.500050 -0.567946
O3    O     O_R   0.499890 0.620310 0.379470 -0.564670
O4    O     O_R   0.499890 0.379690 0.379470 -0.565423
O5    O     O_R   0.682190 0.620260 0.500020 -0.534743
O6    O     O_R   0.682190 0.379740 0.500020 -0.580135
O7    O     O_R   0.499870 0.620210 0.620600 -0.539358
O8    O     O_R   0.499870 0.379790 0.620600 -0.579755
O9    O     O_3   0.330798 0.142840 0.602459 -0.680011
H27   H     H_    0.385971 0.115016 0.649082 0.327363
O10   O     O_3   0.330194 0.856651 0.602093 -0.682995
H28   H     H_    0.386028 0.882791 0.648726 0.328931
O11   O     O_3   0.644306 0.137923 0.387533 -0.670434
H29   H     H_    0.643773 0.131736 0.325144 0.311814
O12   O     O_3   0.644447 0.862447 0.387604 -0.673796
H30   H     H_    0.644109 0.868927 0.325228 0.313961
C31   C     C_2   0.267742 0.428556 0.082678 0.394041
H31   H     H_    0.262450 0.319800 0.060922 0.077749
O13   O     O_2   0.191272 0.470871 0.134050 -0.543945
C32   C     C_2   0.499849 0.221121 0.086284 0.329871
H32   H     H_    0.435672 0.227134 0.139170 0.075522
O14   O     O_2   0.532002 0.104454 0.061030 -0.531952
O15   O     O_3   0.564962 0.751532 0.919328 -0.707933
H33   H     H_    0.484803 0.783626 0.944046 0.313980
O16   O     O_3   0.717076 0.582698 0.928432 -0.703420
H34   H     H_    0.726663 0.602502 0.867353 0.369565
C33   C     C_2   0.881737 0.707134 0.621969 0.357938
H35   H     H_    0.925861 0.800522 0.648333 0.090600
O17   O     O_2   0.792646 0.655792 0.659102 -0.556577
C34   C     C_2   0.869237 0.370157 0.652772 0.438111
H36   H     H_    0.770201 0.348693 0.658181 0.064492
O18   O     O_2   0.929241 0.385935 0.717111 -0.517740

loop_
_geom_bond_atom_site_label_1
_geom_bond_atom_site_label_2
_ccdc_geom_bond_type
C23   O8    A    
C33   H35   S    
C25   C32   S    
O11   H29   S    
Cu1   O1    S    
C19   O10   S    
C24   C27   S    
C7    H23   S    
C1    O2    A    
C8    H24   S    
C31   H31   S    
C27   H1    S    
Cu1   O7    S    
C5    C6    T    
C3    H22   S    
C2    O16   S    
C11   H5    S    
C18   C19   S    
C23   O7    A    
C3    C29   S    
C9    C13   S    
C24   C29   S    
C22   O6    A    
C8    H26   S    
C17   H10   S    
C11   C15   S    
C26   H2    S    
Cu1   Cu2   S    
C16   C17   S    
C13   C22   S    
C20   H13   S    
Cu2   O8    S    
C18   O9    S    
C18   H15   S    
C27   C30   S    
C24   H18   S    
C2    O15   S    
C1    C12   S    
C4    C28   T    
C5    C29   S    
C31   O13   D    
C25   C29   S    
C7    C12   S    
Cu1   O3    S    
Cu2   O4    S    
C21   N2    S    
C32   O14   D    
C19   H16   S    
C25   C26   S    
O16   H34   S    
C16   N1    S    
Cu1   N2    S    
C11   H6    S    
O12   H30   S    
C22   O5    A    
C6    C14   S    
C18   N1    S    
C34   O18   D    
O15   H33   S    
C8    C12   S    
C14   O4    A    
C23   C28   S    
C20   N1    S    
C16   H11   S    
C15   H7    S    
C26   C30   S    
C13   C15   S    
C27   H20   S    
Cu2   O6    S    
C21   H14   S    
Cu1   O5    S    
C32   H32   S    
C10   C13   S    
C1    O1    A    
C11   C12   S    
C19   N2    S    
C21   O12   S    
C2    C30   S    
C33   O17   D    
C2    C3    S    
C17   H12   S    
Cu2   O2    S    
O10   H28   S    
C26   H19   S    
C9    C33   S    
C3    H21   S    
C34   H36   S    
C14   O3    A    
C20   O11   S    
O9    H27   S    
C25   H17   S    
C15   H8    S    
C17   N2    S    
C7    C9    S    
C24   C31   S    
C20   C21   S    
C10   C34   S    
C8    C10   S    
C9    H3    S    
C10   H4    S    
Cu2   N1    S    
C16   H9    S    
C7    H25   S    
C4    C30   S    
