data_mof_unit_50923.cif
_audit_creation_date              2012-12-10T18:04:30-0500
_audit_creation_method            fapswitch 2.2
_symmetry_space_group_name_H-M    P1
_symmetry_Int_Tables_number       1
_space_group_crystal_system       triclinic
_cell_length_a                    10.886275
_cell_length_b                    9.583959
_cell_length_c                    9.074586
_cell_angle_alpha                 89.999672
_cell_angle_beta                  91.582228
_cell_angle_gamma                 89.999804
_cell_volume                      946.423363562

loop_
_atom_site_label
_atom_site_type_symbol
_atom_type_description
_atom_site_fract_x
_atom_site_fract_y
_atom_site_fract_z
_atom_type_partial_charge
C1    C     C_R   0.262270 0.500000 0.500486 0.938567
C2    C     C_R   0.063505 0.626911 0.500859 0.516501
C3    C     C_R   0.871665 0.499999 0.498991 -0.501788
C4    C     C_R   0.128335 0.500001 0.501009 -0.501788
C5    C     C_R   0.424015 0.074400 0.405128 0.035524
C6    C     C_R   0.575985 0.925600 0.594872 0.035524
C7    C     C_R   0.575984 0.074398 0.594873 0.035500
C8    C     C_R   0.424016 0.925602 0.405127 0.035500
C9    C     C_1   0.343063 0.148305 0.303391 0.397466
C10   C     C_1   0.656937 0.851695 0.696609 0.397466
C11   C     C_1   0.656930 0.148301 0.696618 0.397517
C12   C     C_R   0.737730 0.500000 0.499514 0.938567
C13   C     C_1   0.343070 0.851699 0.303382 0.397517
C14   C     C_R   0.499841 0.500002 0.220783 0.830994
C15   C     C_R   0.500159 0.499998 0.779217 0.830994
C16   C     C_1   0.499941 0.500001 0.065574 -0.129128
C17   C     C_1   0.500059 0.499999 0.934426 -0.129128
C18   C     C_R   0.063509 0.373092 0.500913 0.516504
C19   C     C_R   0.936490 0.626908 0.499087 0.516504
C20   C     C_R   0.936495 0.373089 0.499141 0.516501
Cu1   Cu    Cu3+1 0.500000 0.640660 0.500000 1.026893
Cu2   Cu    Cu3+1 0.500000 0.359340 0.500000 1.026893
F1    F     F_    0.121997 0.247920 0.503224 -0.567019
F2    F     F_    0.878003 0.752080 0.496776 -0.567019
F3    F     F_    0.878013 0.247911 0.496961 -0.567029
F4    F     F_    0.121987 0.752089 0.503039 -0.567029
N1    N     N_R   0.500000 0.852070 0.500000 -0.211188
N2    N     N_R   0.500000 0.147930 0.500000 -0.211188
N3    N     N_1   0.277861 0.206368 0.221227 -0.228553
N4    N     N_1   0.722139 0.793632 0.778773 -0.228553
N5    N     N_1   0.722126 0.206363 0.778788 -0.228496
N6    N     N_1   0.277874 0.793637 0.221212 -0.228496
O1    O     O_R   0.319640 0.618740 0.499990 -0.537636
O2    O     O_R   0.680360 0.381260 0.500010 -0.537636
O3    O     O_R   0.680360 0.618740 0.500010 -0.537623
O4    O     O_R   0.319640 0.381260 0.499990 -0.537623
O5    O     O_R   0.500000 0.618760 0.288390 -0.593501
O6    O     O_R   0.500000 0.381240 0.711610 -0.593501
O7    O     O_R   0.500000 0.618760 0.711610 -0.593504
O8    O     O_R   0.500000 0.381240 0.288390 -0.593504

loop_
_geom_bond_atom_site_label_1
_geom_bond_atom_site_label_2
_ccdc_geom_bond_type
C6    C10   S    
C5    C8    A    
C2    C4    A    
C15   O6    A    
C5    C9    S    
C6    C7    A    
Cu1   O3    S    
C5    N2    A    
Cu2   O4    S    
C10   N4    T    
C13   N6    T    
C6    N1    A    
Cu1   O7    S    
C9    N3    T    
C1    C4    S    
Cu2   O8    S    
C19   F2    S    
Cu1   N1    S    
C11   N5    T    
C3    C20   A    
C2    F4    S    
Cu2   N2    S    
Cu1   Cu2   S    
C12   O3    A    
C3    C19   A    
C15   O7    A    
C8    C13   S    
C7    C11   S    
C18   C20   A    
Cu2   O2    S    
C14   C16   S    
Cu1   O1    S    
C20   F3    S    
C1    O1    A    
C18   F1    S    
Cu2   O6    S    
Cu1   O5    S    
C15   C17   S    
C8    N1    A    
C3    C12   S    
C12   O2    A    
C2    C19   A    
C14   O8    A    
C4    C18   A    
C7    N2    A    
C1    O4    A    
C16   C17   T    
C14   O5    A    
