data_mof_unit_38461.cif
_audit_creation_date              2013-03-05T15:52:18-0500
_audit_creation_method            fapswitch 2.2
_symmetry_space_group_name_H-M    P1
_symmetry_Int_Tables_number       1
_space_group_crystal_system       triclinic
_cell_length_a                    21.495016
_cell_length_b                    7.282843
_cell_length_c                    14.996864
_cell_angle_alpha                 90.506888
_cell_angle_beta                  73.145962
_cell_angle_gamma                 89.892683
_cell_volume                      2246.72819552

loop_
_atom_site_label
_atom_site_type_symbol
_atom_site_description
_atom_site_fract_x
_atom_site_fract_y
_atom_site_fract_z
_atom_type_partial_charge
O1    O     O_R   0.464160 0.506670 0.130070 -0.582093
O2    O     O_R   0.535840 0.006670 0.869930 -0.581793
O3    O     O_R   0.589710 0.179080 0.006710 -0.563856
O4    O     O_R   0.410290 0.679080 0.993290 -0.560751
C1    C     C_R   0.615888 0.344150 0.002421 1.151630
C2    C     C_R   0.384214 0.844280 0.996893 1.160766
O5    O     O_R   0.467940 0.177220 0.138010 -0.570500
O6    O     O_R   0.532060 0.677220 0.861990 -0.571806
O7    O     O_R   0.413200 0.002810 0.002170 -0.609254
O8    O     O_R   0.586800 0.502810 0.997830 -0.611764
C3    C     C_R   0.456185 0.346968 0.173908 1.040289
C4    C     C_R   0.544617 0.845150 0.825823 1.036245
O9    O     O_3   0.482180 0.337850 0.955280 -0.297153
O10   O     O_3   0.517820 0.837850 0.044720 -0.300089
V1    V     V_3+5 0.503310 0.064600 0.008300 1.301832
V2    V     V_3+5 0.496690 0.564600 0.991700 1.304407
C5    C     C_R   0.571957 0.860492 0.724432 -0.324572
C6    C     C_R   0.429040 0.365798 0.274816 -0.325451
C7    C     C_R   0.928852 0.865723 0.276014 -0.162727
C8    C     C_R   0.071580 0.354010 0.725335 -0.155097
C9    C     C_R   0.568117 0.019766 0.585750 -0.112496
C10   C     C_R   0.434086 0.508624 0.418227 -0.110454
C11   C     C_R   0.537764 0.963711 0.676061 -0.212053
C12   C     C_R   0.462849 0.468529 0.324575 -0.214258
C13   C     C_R   0.637024 0.811120 0.680763 0.788606
C14   C     C_R   0.365042 0.310857 0.318110 0.788485
C15   C     C_R   0.671949 0.894079 0.595437 -0.023811
C16   C     C_R   0.331305 0.379022 0.408031 -0.027128
C17   C     C_R   0.634853 0.988787 0.545788 0.025157
C18   C     C_R   0.368981 0.462232 0.460474 0.023547
C19   C     C_R   0.741596 0.887186 0.557016 -0.164481
C20   C     C_R   0.262680 0.359741 0.449577 -0.181704
C21   C     C_R   0.769489 0.935182 0.461482 -0.132848
C22   C     C_R   0.236439 0.382794 0.548497 -0.128615
C23   C     C_R   0.731087 0.038935 0.417248 0.515132
C24   C     C_R   0.280240 0.428724 0.600825 0.542555
C25   C     C_R   0.664920 0.061851 0.458777 -0.203801
C26   C     C_R   0.343043 0.485616 0.555948 -0.212754
C27   C     C_R   0.785177 0.859053 0.611685 0.515780
C28   C     C_R   0.218962 0.327420 0.395834 0.513783
C29   C     C_R   0.852641 0.842641 0.568853 0.347130
C30   C     C_R   0.155304 0.269699 0.439022 0.343225
C31   C     C_R   0.878073 0.852330 0.471412 -0.096330
C32   C     C_R   0.130212 0.278371 0.536211 -0.097539
C33   C     C_R   0.836205 0.894087 0.416704 0.078766
C34   C     C_R   0.168189 0.356200 0.590153 0.079600
C35   C     C_R   0.945192 0.826712 0.427296 -0.000683
C36   C     C_R   0.065863 0.222915 0.580213 -0.001761
C37   C     C_R   0.970257 0.836873 0.330835 -0.081409
C38   C     C_R   0.037895 0.254491 0.674688 -0.092512
C39   C     C_R   0.862111 0.887273 0.318447 -0.015275
C40   C     C_R   0.135207 0.411006 0.682519 -0.052857
H1    H     H_    0.637041 0.144474 0.424042 0.179798
H2    H     H_    0.374124 0.531239 0.597251 0.179514
H3    H     H_    0.830729 0.893100 0.273748 0.189064
H4    H     H_    0.157447 0.499040 0.722452 0.197638
H5    H     H_    0.021958 0.819585 0.298860 0.196945
H6    H     H_    0.989305 0.204815 0.707959 0.195904
H7    H     H_    0.540168 0.096936 0.549051 0.144584
H8    H     H_    0.462495 0.577552 0.457453 0.145263
H9    H     H_    0.487712 0.003678 0.709103 0.189106
H10   H     H_    0.512026 0.513977 0.291253 0.185335
H11   H     H_    0.979204 0.799154 0.466444 0.181075
H12   H     H_    0.036593 0.153709 0.542603 0.182228
C41   C     C_3   0.219007 0.661865 0.971031 0.963682
C42   C     C_3   0.780945 0.165812 0.029835 0.948435
C43   C     C_3   0.288743 0.654325 0.981525 0.545417
C44   C     C_3   0.711518 0.156379 0.018438 0.545480
H13   H     H_    0.321948 0.595672 0.916098 0.133706
H14   H     H_    0.678167 0.100595 0.083779 0.122148
C45   C     C_3   0.194993 0.904565 0.103271 0.588425
C46   C     C_3   0.805485 0.398519 0.895065 0.579293
C47   C     C_3   0.228562 0.998820 0.932456 0.287241
C48   C     C_3   0.771203 0.507843 0.063620 0.281402
C49   C     C_3   0.186997 0.856686 0.003692 -0.756326
C50   C     C_3   0.813133 0.358254 0.995344 -0.730732
H15   H     H_    0.213873 0.138494 0.959327 0.156801
H16   H     H_    0.784396 0.643039 0.031939 0.146759
C51   C     C_3   0.312816 0.849581 0.999608 -0.713591
C52   C     C_3   0.687291 0.349953 0.999354 -0.696085
C53   C     C_3   0.269413 0.923726 0.095795 0.269271
C54   C     C_3   0.730898 0.419172 0.902742 0.268395
C55   C     C_3   0.302547 0.978546 0.922808 0.416627
C56   C     C_3   0.697256 0.483212 0.075685 0.404507
H17   H     H_    0.322354 0.117170 0.930131 0.107201
H18   H     H_    0.675910 0.620178 0.069396 0.099799
H19   H     H_    0.281052 0.072165 0.098788 0.164022
H20   H     H_    0.719539 0.567789 0.899632 0.162409
O11   O     O_R   0.913210 0.208550 0.002110 -0.553467
O12   O     O_R   0.086790 0.708550 0.997890 -0.554686
O13   O     O_R   0.032060 0.539960 0.861980 -0.577989
O14   O     O_R   0.967940 0.039960 0.138020 -0.564380
C57   C     C_R   0.044262 0.371280 0.826066 0.977107
C58   C     C_R   0.955245 0.873153 0.174305 0.967893
O15   O     O_R   0.910290 0.538020 0.993280 -0.559789
O16   O     O_R   0.089710 0.038020 0.006720 -0.559921
O17   O     O_R   0.964160 0.712340 0.130090 -0.579061
O18   O     O_R   0.035840 0.212340 0.869910 -0.585520
C59   C     C_R   0.884417 0.368914 0.996229 1.169320
C60   C     C_R   0.115599 0.868484 0.003585 1.160108
O19   O     O_3   0.017820 0.379210 0.044690 -0.254860
O20   O     O_3   0.982180 0.879210 0.955310 -0.259402
V3    V     V_3+5 0.996690 0.652500 0.991710 1.367358
V4    V     V_3+5 0.003310 0.152500 0.008290 1.375217
Cl1   Cl    Cl    0.174105 0.468010 0.027628 -0.436434
Cl2   Cl    Cl    0.825939 0.967319 0.975126 -0.450642
F1    F     F_    0.223307 0.634805 0.878130 -0.620486
F2    F     F_    0.775979 0.147074 0.123344 -0.616183
F3    F     F_    0.291818 0.537411 0.052848 -0.590949
F4    F     F_    0.709056 0.035821 0.947273 -0.592016
Cl3   Cl    Cl    0.153903 0.741313 0.189428 -0.404600
Cl4   Cl    Cl    0.846249 0.228521 0.810646 -0.402127
Cl5   Cl    Cl    0.291584 0.829057 0.193037 -0.356437
Cl6   Cl    Cl    0.708500 0.322139 0.805631 -0.367357
Cl7   Cl    Cl    0.212648 0.992611 0.820946 -0.415886
Cl8   Cl    Cl    0.788227 0.529404 0.173590 -0.428695
F5    F     F_    0.336646 0.911001 0.835432 -0.623468
F6    F     F_    0.665104 0.417243 0.163487 -0.622514
Cl9   Cl    Cl    0.155317 0.114770 0.149071 -0.423784
Cl10  Cl    Cl    0.845844 0.604960 0.846663 -0.425633
Cl11  Cl    Cl    0.905719 0.815168 0.638982 -0.474615
Cl12  Cl    Cl    0.104260 0.208226 0.369904 -0.475541
F7    F     F_    0.663768 0.675512 0.719235 -0.637647
F8    F     F_    0.338426 0.181903 0.274689 -0.641005
Cl13  Cl    Cl    0.764670 0.189027 0.324606 -0.475178
Cl14  Cl    Cl    0.267091 0.383380 0.719886 -0.506043
Cl15  Cl    Cl    0.760559 0.891905 0.734046 -0.308918
Cl16  Cl    Cl    0.236417 0.399742 0.278667 -0.309769

loop_
_geom_bond_atom_site_label_1
_geom_bond_atom_site_label_2
_geom_bond_distance
_ccdc_geom_bond_type
C44   C52   1.559282 S    
C42   C44   1.552102 S    
C8    C57   1.457627 S    
C46   Cl4   1.796754 S    
C3    C6    1.460610 S    
C15   C17   1.420294 A    
C21   C33   1.426006 A    
O1    C3    1.327888 A    
C52   C56   1.556104 S    
O2    C4    1.330379 A    
C2    O7    1.325563 A    
C27   C29   1.409837 A    
C50   C59   1.538233 S    
O5    C3    1.337968 A    
C5    C11   1.395808 A    
C48   C50   1.577681 S    
O11   C59   1.336267 A    
C6    C12   1.396912 A    
C23   C25   1.386427 A    
C56   H18   1.113316 S    
C9    H7    1.084260 S    
C10   H8    1.084049 S    
O15   C59   1.348072 A    
C36   H12   1.081638 S    
C33   C39   1.416573 A    
C29   Cl11  1.773834 S    
C28   Cl16  1.772172 S    
C34   C40   1.414360 A    
C37   H5    1.081757 S    
C18   C26   1.386491 A    
O12   C60   1.333826 A    
C23   Cl13  1.759116 S    
C8    C38   1.391973 A    
C43   F3    1.389384 S    
O15   V3    2.031146 S    
C16   C18   1.415776 A    
C41   C43   1.552841 S    
C45   Cl3   1.797924 S    
C4    C5    1.467985 S    
C19   C21   1.430323 A    
C22   C34   1.432390 A    
C22   C24   1.427968 A    
C54   H20   1.113459 S    
C46   C50   1.589228 S    
C25   H1    1.085239 S    
C36   C38   1.386181 A    
C42   C50   1.587288 S    
O6    V2    2.051266 S    
C29   C31   1.406420 A    
C14   F8    1.356669 S    
C42   Cl2   1.792191 S    
C41   Cl1   1.787863 S    
C32   C34   1.420788 A    
C41   F1    1.381625 S    
O17   V3    2.031502 S    
C45   C49   1.587811 S    
C27   Cl15  1.770104 S    
C15   C19   1.440407 A    
C38   H6    1.083105 S    
C16   C20   1.432896 A    
C43   C51   1.562291 S    
C54   Cl6   1.800504 S    
C52   C54   1.568171 S    
C48   C56   1.557645 S    
C51   C53   1.564209 S    
C58   O17   1.326575 A    
C9    C17   1.402056 A    
C56   F6    1.388173 S    
C35   H11   1.081611 S    
C43   H13   1.113554 S    
C20   C22   1.434263 A    
O4    V2    2.028038 S    
O13   C57   1.331609 A    
C13   F7    1.356093 S    
C7    C37   1.392410 A    
C26   H2    1.085170 S    
O6    C4    1.338238 A    
C48   Cl8   1.795545 S    
C6    C14   1.400988 A    
C46   Cl10  1.788572 S    
O14   C58   1.331623 A    
O1    V2    2.036722 S    
C44   F4    1.388911 S    
C1    C52   1.522784 S    
O2    V1    2.028560 S    
C31   C33   1.416712 A    
C53   H19   1.113536 S    
C7    C58   1.466683 S    
O4    C2    1.320363 A    
C55   H17   1.113256 S    
O19   V4    1.790555 S    
C9    C11   1.387459 A    
O11   V4    2.006943 S    
C10   C12   1.388751 A    
C13   C15   1.422805 A    
C47   C49   1.574995 S    
C17   C25   1.388568 A    
C24   C26   1.388226 A    
O3    V1    2.031067 S    
C30   Cl12  1.769699 S    
C12   H10   1.083779 S    
C10   C18   1.401933 A    
C24   Cl14  1.759341 S    
O13   V3    2.036333 S    
C28   C30   1.400576 A    
O3    C1    1.322473 A    
C47   Cl7   1.801687 S    
C35   C37   1.392314 A    
C14   C16   1.417965 A    
C41   C49   1.585904 S    
C45   Cl9   1.783137 S    
C5    C13   1.406099 A    
C55   F5    1.388020 S    
O16   V4    2.028117 S    
O7    V1    2.017026 S    
C30   C32   1.400594 A    
C1    O8    1.324581 A    
C8    C40   1.397402 A    
C32   C36   1.410430 A    
O8    V2    2.015766 S    
C51   C55   1.556668 S    
C2    C51   1.523799 S    
O18   V4    2.039923 S    
O16   C60   1.348187 A    
O5    V1    2.036310 S    
C49   C60   1.537396 S    
C21   C23   1.420021 A    
C19   C27   1.428044 A    
C39   H3    1.081112 S    
C20   C28   1.422925 A    
O20   V3    1.798367 S    
O12   V3    2.008085 S    
C42   F2    1.383196 S    
O14   V4    2.051280 S    
C7    C39   1.398461 A    
C11   H9    1.083917 S    
C44   H14   1.113546 S    
C48   H16   1.098551 S    
O9    V2    1.790928 S    
C53   Cl5   1.802422 S    
C47   H15   1.102090 S    
O10   V1    1.798742 S    
C31   C35   1.413249 A    
C57   O18   1.322960 A    
C47   C55   1.561131 S    
C46   C54   1.580508 S    
C40   H4    1.076392 S    
C45   C53   1.577350 S    
