data_mof_unit_17989.cif
_audit_creation_date              2012-12-11T14:19:31-0500
_audit_creation_method            fapswitch 2.2
_symmetry_space_group_name_H-M    P1
_symmetry_Int_Tables_number       1
_space_group_crystal_system       triclinic
_cell_length_a                    19.425827
_cell_length_b                    7.233439
_cell_length_c                    17.757739
_cell_angle_alpha                 90.000444
_cell_angle_beta                  107.54922
_cell_angle_gamma                 90.000239
_cell_volume                      2379.10550523

loop_
_atom_site_label
_atom_site_type_symbol
_atom_type_description
_atom_site_fract_x
_atom_site_fract_y
_atom_site_fract_z
_atom_type_partial_charge
O1    O     O_R   0.414820 0.494320 0.416790 -0.539681
O2    O     O_R   0.585180 0.994320 0.583210 -0.539681
O3    O     O_R   0.560270 0.819500 0.430140 -0.545301
O4    O     O_R   0.439730 0.319500 0.569860 -0.545304
C1    C     C_R   0.581018 0.655366 0.414478 0.709600
C2    C     C_R   0.418982 0.155367 0.585522 0.709610
O5    O     O_R   0.413840 0.823740 0.407440 -0.534823
O6    O     O_R   0.586160 0.323740 0.592560 -0.534826
O7    O     O_R   0.437710 0.998590 0.560350 -0.538556
O8    O     O_R   0.562290 0.498590 0.439650 -0.538555
C3    C     C_R   0.387491 0.655495 0.385368 0.748881
C4    C     C_R   0.612510 0.155497 0.614631 0.748880
O9    O     O_3   0.508000 0.662290 0.550200 -0.379860
O10   O     O_3   0.492000 0.162290 0.449800 -0.379857
V1    V     V_3+5 0.498520 0.935380 0.490690 1.389745
V2    V     V_3+5 0.501480 0.435380 0.509310 1.389737
C5    C     C_2   0.789011 0.271881 0.780190 0.160305
C6    C     C_2   0.211023 0.771899 0.219774 0.160287
C7    C     C_2   0.816527 0.117874 0.822676 -0.343997
C8    C     C_2   0.183479 0.617871 0.177317 -0.344022
H1    H     H_    0.783003 0.994874 0.815092 0.109334
H2    H     H_    0.216984 0.494832 0.184924 0.109353
C9    C     C_2   0.711853 0.279665 0.730330 0.164065
C10   C     C_2   0.288181 0.779623 0.269636 0.164076
C11   C     C_2   0.683526 0.145098 0.676743 -0.339008
C12   C     C_2   0.316478 0.645100 0.323254 -0.338978
H3    H     H_    0.716195 0.023985 0.675230 0.108526
H4    H     H_    0.283787 0.524043 0.324788 0.108508
C13   C     C_R   0.324157 0.995669 0.631386 -0.221664
C14   C     C_R   0.675858 0.495695 0.368632 -0.221657
C15   C     C_R   0.370217 0.147551 0.635726 -0.082293
C16   C     C_R   0.629783 0.647549 0.364275 -0.082295
C17   C     C_R   0.368762 0.294249 0.687233 -0.217183
C18   C     C_R   0.631228 0.794226 0.312756 -0.217170
C19   C     C_R   0.321491 0.292349 0.734003 0.075489
C20   C     C_R   0.678505 0.792336 0.265993 0.075502
C21   C     C_R   0.274589 0.139366 0.727950 0.017099
C22   C     C_R   0.725414 0.639368 0.272054 0.017088
C23   C     C_R   0.276211 0.990931 0.676683 0.101413
C24   C     C_R   0.723804 0.490955 0.323334 0.101418
C25   C     C_R   0.319733 0.438841 0.786646 0.153311
C26   C     C_R   0.680266 0.938834 0.213354 0.153301
C27   C     C_R   0.270008 0.432732 0.830050 -0.190542
C28   C     C_R   0.729984 0.932715 0.169942 -0.190524
C29   C     C_R   0.223484 0.281726 0.824025 0.047176
C30   C     C_R   0.776509 0.781712 0.175967 0.047184
C31   C     C_R   0.226179 0.133593 0.773487 0.048434
C32   C     C_R   0.773823 0.633596 0.226516 0.048421
C33   C     C_R   0.180597 0.979011 0.768677 0.100577
C34   C     C_R   0.819418 0.479038 0.231340 0.100577
C35   C     C_R   0.182970 0.832749 0.717691 -0.179848
C36   C     C_R   0.817060 0.332800 0.282342 -0.179849
C37   C     C_R   0.229917 0.839333 0.671662 -0.180188
C38   C     C_R   0.770111 0.339382 0.328370 -0.180188
C39   C     C_R   0.175001 0.275503 0.868840 -0.204213
C40   C     C_R   0.824988 0.775483 0.131147 -0.204203
C41   C     C_R   0.130063 0.120951 0.865230 -0.076104
C42   C     C_R   0.869938 0.620953 0.134770 -0.076104
C43   C     C_R   0.133462 0.972972 0.814991 -0.220816
C44   C     C_R   0.866555 0.473001 0.185026 -0.220810
H5    H     H_    0.324832 0.881992 0.591809 0.125200
H6    H     H_    0.675195 0.382041 0.408222 0.125194
H7    H     H_    0.405165 0.409244 0.690661 0.140615
H8    H     H_    0.594809 0.909194 0.309313 0.140607
H9    H     H_    0.268203 0.545426 0.869688 0.131259
H10   H     H_    0.731787 0.045406 0.130303 0.131254
H11   H     H_    0.173428 0.389580 0.907893 0.127073
H12   H     H_    0.826549 0.889542 0.092081 0.127066
H13   H     H_    0.098896 0.853492 0.811283 0.129905
H14   H     H_    0.901133 0.353542 0.188749 0.129899
H15   H     H_    0.148479 0.712985 0.713399 0.129168
H16   H     H_    0.851564 0.213060 0.286650 0.129165
H17   H     H_    0.230728 0.724342 0.632814 0.127969
H18   H     H_    0.769312 0.224414 0.367232 0.127967
O11   O     O_R   0.937810 0.773680 0.060480 -0.538403
O12   O     O_R   0.062190 0.273680 0.939520 -0.538406
O13   O     O_R   0.086190 0.439740 0.092580 -0.544516
O14   O     O_R   0.913810 0.939740 0.907420 -0.544519
C45   C     C_R   0.112528 0.608963 0.114730 0.748346
C46   C     C_R   0.887474 0.108961 0.885268 0.748348
O15   O     O_R   0.939760 0.444210 0.069890 -0.542117
O16   O     O_R   0.060240 0.944210 0.930110 -0.542121
O17   O     O_R   0.914790 0.269640 0.916760 -0.530002
O18   O     O_R   0.085210 0.769640 0.083240 -0.530007
C47   C     C_R   0.919226 0.612578 0.085107 0.695602
C48   C     C_R   0.080774 0.112577 0.914893 0.695589
O19   O     O_3   0.992050 0.601530 0.949880 -0.379432
O20   O     O_3   0.007950 0.101530 0.050120 -0.379427
V3    V     V_3+5 0.001480 0.328340 0.009300 1.386032
V4    V     V_3+5 0.998520 0.828340 0.990700 1.386025
C49   C     C_3   0.833780 0.444119 0.781937 -0.688234
H19   H     H_    0.806614 0.538692 0.732650 0.185090
H20   H     H_    0.841265 0.520794 0.837989 0.216014
H21   H     H_    0.886916 0.407300 0.774637 0.196483
C50   C     C_3   0.166289 0.944216 0.217992 -0.688178
H22   H     H_    0.193480 0.038839 0.267251 0.185075
H23   H     H_    0.158809 0.020793 0.161918 0.215990
H24   H     H_    0.113152 0.907510 0.225315 0.196504
C51   C     C_3   0.668191 0.445753 0.740703 -0.708985
H25   H     H_    0.696013 0.521249 0.795975 0.190331
H26   H     H_    0.661020 0.543496 0.690734 0.215077
H27   H     H_    0.614830 0.401183 0.745148 0.194882
C52   C     C_3   0.331881 0.945608 0.259232 -0.709035
H28   H     H_    0.304083 0.021043 0.203936 0.190350
H29   H     H_    0.339060 0.043437 0.309174 0.215093
H30   H     H_    0.385238 0.900929 0.254813 0.194860
C53   C     C_3   0.371201 0.600188 0.799017 -0.777698
H31   H     H_    0.360937 0.703660 0.840609 0.214252
H32   H     H_    0.427538 0.549991 0.823728 0.204308
H33   H     H_    0.365495 0.671158 0.742147 0.211909
C54   C     C_3   0.628819 0.100219 0.201009 -0.777702
H34   H     H_    0.639116 0.203746 0.159458 0.214259
H35   H     H_    0.572476 0.050081 0.176265 0.204313
H36   H     H_    0.634521 0.171109 0.257896 0.211909

loop_
_geom_bond_atom_site_label_1
_geom_bond_atom_site_label_2
_ccdc_geom_bond_type
C9    C51   S    
C25   C27   A    
C20   C26   A    
C50   H22   S    
C5    C49   S    
O2    C4    A    
C2    O7    A    
C50   H24   S    
C31   C33   A    
O14   V4    S    
O5    C3    A    
O13   V3    S    
C5    C9    S    
C26   C28   A    
C6    C10   S    
C7    H1    S    
C10   C12   D    
C45   O18   A    
O14   C46   A    
C41   C43   A    
C42   C44   A    
C41   C48   S    
C29   C31   A    
O11   V4    S    
C17   C19   A    
C38   H18   S    
C28   H10   S    
O11   C47   A    
C54   H35   S    
C54   H34   S    
C36   C38   A    
C33   C35   A    
O1    C3    A    
C34   C36   A    
C53   H31   S    
C15   C17   A    
O6    C4    A    
C21   C31   A    
C22   C32   A    
C27   H9    S    
O12   V3    S    
C1    C16   S    
O15   V3    S    
C32   C34   A    
C2    C15   S    
O6    V2    S    
C6    C50   S    
C53   H32   S    
C54   H36   S    
O18   V4    S    
C46   O17   A    
C28   C30   A    
C30   C32   A    
O13   C45   A    
O17   V3    S    
C13   H5    S    
C14   C16   A    
O4    C2    A    
C49   H19   S    
O5    V1    S    
C3    C12   S    
C40   H12   S    
C35   C37   A    
C16   C18   A    
O4    V2    S    
C26   C54   S    
C36   H16   S    
C49   H20   S    
C51   H25   S    
C44   H14   S    
C17   H7    S    
C13   C23   A    
C18   H8    S    
C14   C24   A    
C52   H29   S    
O1    V2    S    
O2    V1    S    
C27   C29   A    
C43   H13   S    
C51   H26   S    
C8    H2    S    
C24   C38   A    
C39   C41   A    
C53   H33   S    
O9    V2    S    
C42   C47   S    
O12   C48   A    
O3    V1    S    
C50   H23   S    
C25   C53   S    
C8    C45   S    
C19   C21   A    
C37   H17   S    
O3    C1    A    
C33   C43   A    
C39   H11   S    
C35   H15   S    
C11   H3    S    
C12   H4    S    
O16   V4    S    
C4    C11   S    
C10   C52   S    
C34   C44   A    
C14   H6    S    
O7    V1    S    
C1    O8    A    
C21   C23   A    
O16   C48   A    
C49   H21   S    
C22   C24   A    
C23   C37   A    
C20   C22   A    
C5    C7    D    
C18   C20   A    
C40   C42   A    
C52   H30   S    
C6    C8    D    
C9    C11   D    
C7    C46   S    
C19   C25   A    
C51   H27   S    
O20   V3    S    
C29   C39   A    
C13   C15   A    
O19   V4    S    
C30   C40   A    
C52   H28   S    
O10   V1    S    
O8    V2    S    
O15   C47   A    
