data_mof_unit_34474.cif
_audit_creation_date              2012-12-10T16:44:15-0500
_audit_creation_method            fapswitch 2.2
_symmetry_space_group_name_H-M    P1
_symmetry_Int_Tables_number       1
_space_group_crystal_system       triclinic
_cell_length_a                    7.526196
_cell_length_b                    8.67827
_cell_length_c                    13.413117
_cell_angle_alpha                 95.375596
_cell_angle_beta                  79.300547
_cell_angle_gamma                 102.676969
_cell_volume                      838.571907537

loop_
_atom_site_label
_atom_site_type_symbol
_atom_type_description
_atom_site_fract_x
_atom_site_fract_y
_atom_site_fract_z
_atom_type_partial_charge
C1    C     C_R   0.543570 0.799715 0.505329 0.851584
C2    C     C_R   0.417022 0.519956 0.975985 0.030030
C3    C     C_R   0.464677 0.560050 0.873075 0.060775
C4    C     C_R   0.550878 0.570415 0.040544 0.083711
C5    C     C_R   0.706876 0.691278 0.010797 0.154576
C6    C     C_R   0.739876 0.746126 0.913190 -0.231087
C7    C     C_R   0.623787 0.678202 0.844150 -0.190629
C8    C     C_R   0.538256 0.499272 0.132010 -0.200330
C9    C     C_R   0.793577 0.699029 0.176886 -0.142117
C10   C     C_R   0.346083 0.486466 0.803688 -0.088612
C11   C     C_2   0.564779 0.967500 0.512409 -0.346077
C12   C     C_R   0.402718 0.495300 0.693514 0.762762
C13   C     C_2   0.429974 0.032037 0.494805 -0.357284
C14   C     C_R   0.454718 0.200172 0.497412 0.892452
C15   C     C_R   0.598623 0.518566 0.307338 0.814114
C16   C     C_R   0.826400 0.756163 0.079772 -0.166308
C17   C     C_R   0.652344 0.566875 0.202278 -0.031328
C18   C     C_R   0.173388 0.392604 0.839621 -0.230018
C19   C     C_R   0.115206 0.374898 0.942652 -0.160832
C20   C     C_R   0.233124 0.440492 0.011013 0.138335
Cu1   Cu    Cu3+1 0.321300 0.483160 0.488710 1.012399
Cu2   Cu    Cu3+1 0.678700 0.516840 0.511290 0.997444
H1    H     H_    0.879108 0.756882 0.231792 0.172604
H2    H     H_    0.300582 0.960972 0.476768 0.184723
H3    H     H_    0.015422 0.632700 0.571214 0.193003
H4    H     H_    0.858021 0.839373 0.889373 0.143584
H5    H     H_    0.941948 0.853325 0.059548 0.148554
H6    H     H_    0.438129 0.391472 0.150228 0.173438
H7    H     H_    0.080466 0.336082 0.788027 0.170126
H8    H     H_    0.974923 0.314234 0.969685 0.167440
H9    H     H_    0.655413 0.725747 0.769811 0.159272
H10   H     H_    0.692490 0.038150 0.532440 0.191986
N1    N     N_2   0.947230 0.542220 0.528320 -0.184866
N2    N     N_2   0.052770 0.457780 0.471680 0.010220
O1    O     O_R   0.383920 0.714220 0.492660 -0.594263
O2    O     O_R   0.685730 0.742660 0.511730 -0.597493
O3    O     O_R   0.275440 0.478800 0.636790 -0.598316
O4    O     O_R   0.577250 0.507240 0.655860 -0.590792
O5    O     O_R   0.314270 0.257340 0.488270 -0.570363
O6    O     O_R   0.616080 0.285780 0.507340 -0.551900
O7    O     O_R   0.422750 0.492760 0.344140 -0.552372
O8    O     O_R   0.724560 0.521200 0.363210 -0.543297
I1    I     I_    0.961635 0.253169 0.385887 -0.201481
I2    I     I_    0.096744 0.466736 0.161038 -0.383366

loop_
_geom_bond_atom_site_label_1
_geom_bond_atom_site_label_2
_ccdc_geom_bond_type
C2    C4    A    
C6    C7    A    
Cu1   O1    S    
Cu2   O2    S    
C15   O8    A    
C19   C20   A    
Cu1   O5    S    
C4    C8    A    
Cu2   O6    S    
Cu1   Cu2   S    
C16   H5    S    
C2    C3    A    
C18   H7    S    
C6    H4    S    
C13   C14   S    
C11   C13   D    
C15   O7    A    
Cu2   O8    S    
C10   C12   S    
C10   C18   A    
Cu1   O7    S    
C9    C17   A    
C20   I2    S    
C9    C16   A    
C11   H10   S    
N1    N2    D    
C3    C7    A    
C12   O4    A    
C5    C6    A    
C8    H6    S    
C7    H9    S    
C14   O6    A    
Cu2   O4    S    
Cu1   O3    S    
C1    O1    A    
C15   C17   S    
C18   C19   A    
C12   O3    A    
C3    C10   A    
Cu2   N1    S    
C9    H1    S    
C5    C16   A    
Cu1   N2    S    
C14   O5    A    
C1    O2    A    
C19   H8    S    
C2    C20   A    
N2    I1    S    
C8    C17   A    
C13   H2    S    
H3    N1    S    
C4    C5    A    
C1    C11   S    
