data_mof_unit_22953.cif
_audit_creation_date              2012-12-11T15:11:49-0500
_audit_creation_method            fapswitch 2.2
_symmetry_space_group_name_H-M    P1
_symmetry_Int_Tables_number       1
_space_group_crystal_system       triclinic
_cell_length_a                    20.075531
_cell_length_b                    7.147582
_cell_length_c                    13.620406
_cell_angle_alpha                 89.999966
_cell_angle_beta                  103.255304
_cell_angle_gamma                 89.999986
_cell_volume                      1902.34315501

loop_
_atom_site_label
_atom_site_type_symbol
_atom_type_description
_atom_site_fract_x
_atom_site_fract_y
_atom_site_fract_z
_atom_type_partial_charge
O1    O     O_R   0.449830 0.506740 0.599960 -0.536305
O2    O     O_R   0.550170 0.006740 0.400040 -0.536305
O3    O     O_R   0.588980 0.179860 0.596720 -0.558686
O4    O     O_R   0.411020 0.679860 0.403280 -0.558685
C1    C     C_R   0.615645 0.345329 0.619799 0.750459
C2    C     C_R   0.384355 0.845329 0.380201 0.750458
O5    O     O_R   0.452740 0.177340 0.612040 -0.540913
O6    O     O_R   0.547260 0.677340 0.387960 -0.540913
O7    O     O_R   0.412960 0.002070 0.415460 -0.517477
O8    O     O_R   0.587040 0.502070 0.584540 -0.517477
C3    C     C_R   0.436127 0.346022 0.637609 0.683755
C4    C     C_R   0.563873 0.846022 0.362391 0.683755
O9    O     O_3   0.487110 0.337570 0.435490 -0.370771
O10   O     O_3   0.512890 0.837570 0.564510 -0.370771
V1    V     V_3+5 0.502390 0.064650 0.511970 1.486941
V2    V     V_3+5 0.497610 0.564650 0.488030 1.486944
C5    C     C_R   0.612746 0.972062 0.122408 -0.157354
C6    C     C_R   0.387252 0.472081 0.877587 -0.157355
H1    H     H_    0.518732 0.964405 0.171461 0.108436
H2    H     H_    0.481266 0.464422 0.828535 0.108438
H3    H     H_    0.696778 0.022815 0.002329 0.126636
H4    H     H_    0.303220 0.522848 0.997663 0.126632
H5    H     H_    0.587897 0.023836 0.048234 0.117248
H6    H     H_    0.412100 0.523864 0.951759 0.117248
C7    C     C_R   0.603541 0.860040 0.285500 -0.033834
C8    C     C_R   0.396459 0.360041 0.714500 -0.033836
C9    C     C_R   0.932495 0.803652 0.314817 -0.287136
C10   C     C_R   0.067505 0.303635 0.685185 -0.287136
C11   C     C_R   0.899540 0.804667 0.395087 0.403996
C12   C     C_R   0.100461 0.304641 0.604916 0.403998
C13   C     C_R   0.829653 0.853213 0.377667 0.141186
C14   C     C_R   0.170347 0.353194 0.622333 0.141185
C15   C     C_R   0.790272 0.875436 0.276200 -0.005197
C16   C     C_R   0.209728 0.375432 0.723799 -0.005196
C17   C     C_R   0.826759 0.893881 0.198228 0.029280
C18   C     C_R   0.173240 0.393887 0.801770 0.029281
C19   C     C_R   0.716765 0.884728 0.248075 0.095387
C20   C     C_R   0.283234 0.384730 0.751924 0.095387
C21   C     C_R   0.683889 0.946324 0.149502 0.144451
C22   C     C_R   0.316110 0.446338 0.850494 0.144453
C23   C     C_R   0.721871 0.979213 0.077901 -0.174718
C24   C     C_R   0.278127 0.479236 0.922093 -0.174723
C25   C     C_R   0.791766 0.948552 0.101067 -0.168099
C26   C     C_R   0.208232 0.448573 0.898929 -0.168102
C27   C     C_R   0.674108 0.826164 0.311637 -0.222423
C28   C     C_R   0.325892 0.326160 0.688364 -0.222425
C29   C     C_R   0.573148 0.935228 0.191438 -0.164543
C30   C     C_R   0.426851 0.435240 0.808559 -0.164542
C31   C     C_R   0.897805 0.857536 0.218347 -0.111971
C32   C     C_R   0.102195 0.357535 0.781653 -0.111973
H7    H     H_    0.694361 0.755132 0.381943 0.146373
H8    H     H_    0.305641 0.255119 0.618060 0.146374
H9    H     H_    0.986512 0.769913 0.328595 0.120113
H10   H     H_    0.013489 0.269889 0.671409 0.120115
H11   H     H_    0.818687 0.970345 0.042292 0.115332
H12   H     H_    0.181311 0.470374 0.957702 0.115337
C33   C     C_3   0.235895 0.701209 0.154277 0.054791
C34   C     C_3   0.764106 0.201205 0.845722 0.054796
H13   H     H_    0.236230 0.724265 0.073729 0.160131
H14   H     H_    0.763770 0.224256 0.926270 0.160133
C35   C     C_3   0.310636 0.720039 0.218622 -0.427498
C36   C     C_3   0.689364 0.220034 0.781377 -0.427499
H15   H     H_    0.344451 0.768848 0.169850 0.129710
H16   H     H_    0.655549 0.268838 0.830149 0.129711
H17   H     H_    0.331982 0.581243 0.246772 0.195946
H18   H     H_    0.668020 0.081238 0.753225 0.195945
H19   H     H_    0.152917 0.693279 0.302937 0.152453
H20   H     H_    0.847084 0.193286 0.697061 0.152453
H21   H     H_    0.266290 0.641396 0.386530 0.115854
H22   H     H_    0.733711 0.141402 0.613467 0.115854
C37   C     C_3   0.184798 0.818266 0.297461 -0.459054
C38   C     C_3   0.815202 0.318271 0.702539 -0.459057
C39   C     C_3   0.225862 0.046188 0.184059 0.122962
C40   C     C_3   0.774137 0.546185 0.815943 0.122960
C41   C     C_3   0.188735 0.854465 0.186336 0.004397
C42   C     C_3   0.811265 0.354464 0.813664 0.004400
H23   H     H_    0.192078 0.156897 0.202608 0.080417
H24   H     H_    0.807921 0.656896 0.797394 0.080416
C43   C     C_3   0.313894 0.854377 0.309472 -0.028421
C44   C     C_3   0.686106 0.354376 0.690528 -0.028421
C45   C     C_3   0.258078 0.792178 0.366371 0.140955
C46   C     C_3   0.741922 0.292184 0.633628 0.140955
C47   C     C_3   0.294018 0.054971 0.266732 0.240732
C48   C     C_3   0.705981 0.554969 0.733271 0.240730
H25   H     H_    0.284403 0.142802 0.329591 0.123669
H26   H     H_    0.715595 0.642805 0.670412 0.123671
H27   H     H_    0.158686 0.938698 0.324504 0.167720
H28   H     H_    0.841313 0.438706 0.675497 0.167720
O11   O     O_R   0.912980 0.203550 0.915410 -0.536962
O12   O     O_R   0.087020 0.703550 0.084590 -0.536962
O13   O     O_R   0.047270 0.535570 0.887960 -0.537609
O14   O     O_R   0.952730 0.035570 0.112040 -0.537608
C49   C     C_R   0.063438 0.367774 0.861231 0.710806
C50   C     C_R   0.936562 0.867775 0.138769 0.710807
O15   O     O_R   0.911030 0.532970 0.903270 -0.555621
O16   O     O_R   0.088970 0.032970 0.096730 -0.555621
O17   O     O_R   0.949820 0.708150 0.099970 -0.537963
O18   O     O_R   0.050180 0.208150 0.900030 -0.537963
C51   C     C_R   0.883313 0.364010 0.883026 0.680584
C52   C     C_R   0.116687 0.864010 0.116974 0.680581
O19   O     O_3   0.012900 0.375230 0.064480 -0.376060
O20   O     O_3   0.987100 0.875230 0.935520 -0.376060
V3    V     V_3+5 0.997610 0.648190 0.988040 1.403807
V4    V     V_3+5 0.002390 0.148190 0.011960 1.403808
O21   O     O_3   0.238502 0.077228 0.087664 -0.650005
H29   H     H_    0.196259 0.130207 0.044190 0.293114
O22   O     O_3   0.761498 0.577223 0.912339 -0.650003
H30   H     H_    0.803741 0.630206 0.955812 0.293113
O23   O     O_3   0.346844 0.146009 0.232567 -0.639566
H31   H     H_    0.359452 0.069371 0.179127 0.314391
O24   O     O_3   0.653154 0.646002 0.767437 -0.639567
H32   H     H_    0.640547 0.569361 0.820877 0.314391
O25   O     O_3   0.264433 0.896160 0.455729 -0.663680
H33   H     H_    0.233969 0.836424 0.494598 0.297266
O26   O     O_3   0.735567 0.396171 0.544272 -0.663678
H34   H     H_    0.766032 0.336440 0.505403 0.297264
C53   C     C_3   0.803748 0.910152 0.469347 -0.767685
H35   H     H_    0.843506 0.991574 0.522500 0.223601
H36   H     H_    0.759238 0.005694 0.449577 0.187527
H37   H     H_    0.791372 0.784376 0.509614 0.228532
C54   C     C_3   0.196251 0.410123 0.530651 -0.767687
H38   H     H_    0.156492 0.491537 0.477495 0.223602
H39   H     H_    0.240760 0.505669 0.550417 0.187525
H40   H     H_    0.208629 0.284344 0.490389 0.228537
O27   O     O_3   0.935284 0.765840 0.492422 -0.646346
H41   H     H_    0.983402 0.735122 0.492000 0.293793
O28   O     O_3   0.064718 0.265797 0.507582 -0.646345
H42   H     H_    0.016600 0.235075 0.508006 0.293795
C55   C     C_3   0.213058 0.498823 0.163862 -0.803895
H43   H     H_    0.162773 0.462882 0.115730 0.226653
H44   H     H_    0.250527 0.407614 0.139024 0.251534
H45   H     H_    0.213340 0.463155 0.243115 0.208857
C56   C     C_3   0.786943 0.998820 0.836134 -0.803903
H46   H     H_    0.837228 0.962879 0.884266 0.226656
H47   H     H_    0.749474 0.907608 0.860970 0.251529
H48   H     H_    0.786662 0.963157 0.756881 0.208856

loop_
_geom_bond_atom_site_label_1
_geom_bond_atom_site_label_2
_ccdc_geom_bond_type
C34   C36   S    
C20   C22   A    
C11   O27   S    
C9    C11   A    
C23   C25   A    
O24   H32   S    
O1    C3    A    
C38   C42   S    
O2    C4    A    
C2    O7    A    
C34   C42   S    
C21   C23   A    
C42   C51   S    
O5    C3    A    
C5    H5    S    
C40   C42   S    
O11   C51   A    
C6    H6    S    
C33   C55   S    
C48   H26   S    
C46   O26   S    
C55   H43   S    
C53   H36   S    
O15   C51   A    
C33   H13   S    
C27   H7    S    
C34   H14   S    
O26   H34   S    
C28   H8    S    
C5    C21   A    
O12   C52   A    
C35   H15   S    
C6    C22   A    
C13   C53   S    
C54   H40   S    
C36   H16   S    
C40   O22   S    
C10   C32   A    
C43   C47   S    
C17   C31   A    
C56   H48   S    
O22   H30   S    
C13   C15   A    
C31   C50   S    
C12   C14   A    
C17   C25   A    
C7    C29   A    
H19   C37   S    
C8    C30   A    
C55   H45   S    
O5    V1    S    
O27   H41   S    
O6    V2    S    
C39   C41   S    
C24   C26   A    
O14   C50   A    
C38   H28   S    
O15   V3    S    
C34   C56   S    
C48   O24   S    
C54   H39   S    
C36   H18   S    
C44   C48   S    
C44   C46   S    
C53   H37   S    
C40   C48   S    
C43   C45   S    
C10   H10   S    
O9    V2    S    
C3    C8    S    
C15   C19   A    
H20   C38   S    
C14   C16   A    
O4    V2    S    
O13   C49   A    
C26   H12   S    
O14   V4    S    
C39   O21   S    
O6    C4    A    
C47   O23   S    
O1    V2    S    
O17   V3    S    
C1    C44   S    
O20   V4    S    
O2    V1    S    
C54   H38   S    
H2    C30   S    
C37   H27   S    
C25   H11   S    
C47   H25   S    
O19   V4    S    
O16   V4    S    
O11   V4    S    
C56   H46   S    
H3    C23   S    
C18   C26   A    
O4    C2    A    
C19   C27   A    
O28   H42   S    
C7    C27   A    
C18   C32   A    
O25   H33   S    
O19   V3    S    
C36   C44   S    
C12   O28   S    
C16   C20   A    
C14   C54   S    
C5    C29   A    
O13   V3    S    
O3    C1    A    
C6    C30   A    
C9    H9    S    
C32   C49   S    
C33   C35   S    
O21   H29   S    
C50   O17   A    
C4    C7    S    
C33   C41   S    
C10   C12   A    
O7    V1    S    
C1    O8    A    
C19   C21   A    
O8    V2    S    
O23   H31   S    
C37   C41   S    
C2    C43   S    
H4    C24   S    
C35   C43   S    
O18   V4    S    
O16   C52   A    
C22   C24   A    
C41   C52   S    
C15   C17   A    
C16   C18   A    
O20   V3    S    
H22   C46   S    
O12   V3    S    
C20   C28   A    
H21   C45   S    
C8    C28   A    
C35   H17   S    
C11   C13   A    
C40   H24   S    
H1    C29   S    
C45   O25   S    
C56   H47   S    
C39   H23   S    
O10   V1    S    
O3    V1    S    
C37   C45   S    
C53   H35   S    
C49   O18   A    
C39   C47   S    
C38   C46   S    
C9    C31   A    
C55   H44   S    
