data_mof_unit_66368.cif
_audit_creation_date              2012-10-26T20:56:56-0400
_audit_creation_method            fapswitch 2.2
_symmetry_space_group_name_H-M    P1
_symmetry_Int_Tables_number       1
_space_group_crystal_system       triclinic
_cell_length_a                    16.09088
_cell_length_b                    17.189774
_cell_length_c                    19.327772
_cell_angle_alpha                 89.755445
_cell_angle_beta                  92.556613
_cell_angle_gamma                 97.293074
_cell_volume                      5297.50052813

loop_
_atom_site_label
_atom_site_type_symbol
_atom_type_description
_atom_site_fract_x
_atom_site_fract_y
_atom_site_fract_z
_atom_type_partial_charge
C1    C     C_R   0.489042 0.349741 0.497331 0.524816
C2    C     C_R   0.528037 0.899045 0.520396 0.052655
C3    C     C_R   0.439299 0.132108 0.518911 -0.118808
C4    C     C_R   0.601021 0.864006 0.513104 -0.132582
C5    C     C_R   0.436210 0.212149 0.526844 -0.145932
C6    C     C_R   0.595878 0.782777 0.506968 -0.131855
C7    C     C_2   0.500670 0.021898 0.465667 0.139390
C8    C     C_2   0.531668 0.984921 0.521693 0.137023
C9    C     C_R   0.745571 0.471071 0.458254 0.014376
C10   C     C_R   0.249060 0.527695 0.439673 -0.013306
C11   C     C_R   0.831695 0.481414 0.449736 -0.212321
C12   C     C_R   0.511212 0.650701 0.501822 0.557091
C13   C     C_R   0.161544 0.524066 0.435836 -0.240474
C14   C     C_R   0.884915 0.529952 0.495317 0.015125
C15   C     C_R   0.114469 0.485869 0.488225 0.061475
C16   C     C_R   0.500212 0.499846 0.367532 0.596800
C17   C     C_R   0.499678 0.499270 0.632243 0.591149
C18   C     C_R   0.848980 0.569559 0.548536 0.239845
C19   C     C_R   0.155883 0.451448 0.543409 0.242582
C20   C     C_R   0.761008 0.559389 0.553438 0.320021
C21   C     C_R   0.243498 0.449826 0.541670 0.285130
C22   C     C_2   0.977469 0.540335 0.485856 0.134412
C23   C     C_R   0.484850 0.265749 0.485932 0.024321
C24   C     C_2   0.020970 0.477073 0.485832 0.195151
C25   C     C_R   0.435121 0.457525 0.251247 0.062830
C26   C     C_R   0.548650 0.449039 0.746537 0.068346
C27   C     C_R   0.437350 0.457911 0.179148 -0.176952
C28   C     C_R   0.548150 0.450529 0.819151 -0.158613
C29   C     C_R   0.505190 0.498108 0.145763 0.019110
C30   C     C_R   0.498652 0.498052 0.853406 0.012587
C31   C     C_R   0.572957 0.538553 0.184803 0.233084
C32   C     C_R   0.449193 0.546535 0.815488 0.234965
C33   C     C_R   0.569269 0.542285 0.257954 0.190033
C34   C     C_R   0.517489 0.736272 0.507515 0.020356
C35   C     C_R   0.446851 0.544090 0.742164 0.188872
C36   C     C_R   0.501373 0.499645 0.291176 0.041598
C37   C     C_R   0.498694 0.497507 0.708256 0.023958
C38   C     C_R   0.500369 0.497391 0.929505 0.372270
C39   C     C_R   0.503830 0.497152 0.069676 0.373816
C40   C     C_3   0.288168 0.442851 0.275341 -0.278757
C41   C     C_3   0.653531 0.353248 0.748509 -0.311796
C42   C     C_3   0.263914 0.321124 0.585209 -0.307456
C43   C     C_3   0.732128 0.575267 0.673784 -0.255514
C44   C     C_3   0.993090 0.339738 0.445856 -0.295010
C45   C     C_R   0.534574 0.238963 0.435540 -0.134807
C46   C     C_3   0.991499 0.670804 0.431322 -0.285591
C47   C     C_3   0.591166 0.986628 0.642747 -0.298018
C48   C     C_3   0.395520 0.984137 0.373331 -0.306040
C49   C     C_R   0.444681 0.772062 0.515354 -0.125892
C50   C     C_R   0.537075 0.159030 0.427113 -0.118538
C51   C     C_R   0.450042 0.852967 0.521918 -0.122888
C52   C     C_R   0.491192 0.105605 0.470002 0.060474
Cu1   Cu    Cu3+1 0.415410 0.495980 0.496480 0.999018
Cu2   Cu    Cu3+1 0.584590 0.504020 0.503520 0.993173
H1    H     H_    0.705115 0.433825 0.422492 0.145115
H2    H     H_    0.399307 0.232098 0.566840 0.102879
H3    H     H_    0.403260 0.090886 0.552051 0.125923
H4    H     H_    0.661428 0.899620 0.511078 0.114811
H5    H     H_    0.393354 0.879953 0.527220 0.112617
H6    H     H_    0.576997 0.138972 0.389040 0.129561
H7    H     H_    0.362258 0.353362 0.270649 0.246164
H8    H     H_    0.295739 0.506106 0.289010 0.156013
H9    H     H_    0.262799 0.435306 0.221035 0.131960
H10   H     H_    0.242587 0.410806 0.310166 0.142781
H11   H     H_    0.563251 0.367286 0.669412 0.258583
H12   H     H_    0.285647 0.560197 0.401087 0.132669
H13   H     H_    0.699190 0.393485 0.780478 0.157516
H14   H     H_    0.619117 0.308158 0.781560 0.144632
H15   H     H_    0.689235 0.323125 0.711230 0.145762
H16   H     H_    0.284805 0.425502 0.641175 0.239537
H17   H     H_    0.302134 0.292036 0.624225 0.126156
H18   H     H_    0.276577 0.301055 0.532610 0.167563
H19   H     H_    0.196865 0.303082 0.595205 0.151178
H20   H     H_    0.738903 0.662221 0.599057 0.250920
H21   H     H_    0.796637 0.593654 0.695480 0.170733
H22   H     H_    0.718685 0.510393 0.676276 0.184990
H23   H     H_    0.130889 0.551407 0.392883 0.115893
H24   H     H_    0.687218 0.600981 0.706144 0.146234
H25   H     H_    0.924096 0.390368 0.521131 0.257879
H26   H     H_    0.014008 0.288927 0.474243 0.163730
H27   H     H_    0.041542 0.361716 0.408804 0.140020
H28   H     H_    0.933715 0.319934 0.415942 0.121610
H29   H     H_    0.082461 0.629357 0.499296 0.253163
H30   H     H_    0.981269 0.726719 0.456084 0.167336
H31   H     H_    0.931954 0.645343 0.404169 0.160159
H32   H     H_    0.040014 0.683298 0.392290 0.124620
H33   H     H_    0.954086 0.603506 0.599931 0.352473
H34   H     H_    0.856791 0.451787 0.407531 0.122565
H35   H     H_    0.146029 0.414531 0.638803 0.317021
H36   H     H_    0.691718 0.575820 0.181258 0.331896
H37   H     H_    0.401170 0.644416 0.822040 0.335595
H38   H     H_    0.652521 0.634291 0.269606 0.332255
H39   H     H_    0.344632 0.592236 0.728043 0.330830
H40   H     H_    0.595840 0.082305 0.574919 0.254011
H41   H     H_    0.604422 0.027690 0.687209 0.142091
H42   H     H_    0.649858 0.962430 0.631337 0.144503
H43   H     H_    0.542377 0.938685 0.657784 0.171019
H44   H     H_    0.502679 0.929644 0.393893 0.260300
H45   H     H_    0.386337 0.425066 0.148984 0.142002
H46   H     H_    0.387312 0.954187 0.322240 0.146323
H47   H     H_    0.382107 0.045491 0.365834 0.163264
H48   H     H_    0.350285 0.953229 0.409136 0.135435
H49   H     H_    0.584638 0.413290 0.849935 0.142145
H50   H     H_    0.572305 0.280093 0.403424 0.112011
H51   H     H_    0.383508 0.737675 0.516507 0.139161
H52   H     H_    0.652937 0.756571 0.501193 0.135480
N1    N     N_R   0.574797 0.492190 0.035460 -0.153336
N2    N     N_2   0.723003 0.602391 0.603154 -0.443397
N3    N     N_2   0.979003 0.399379 0.495116 -0.480257
N4    N     N_2   0.020002 0.618626 0.483732 -0.529283
N5    N     N_2   0.561781 0.028315 0.583117 -0.534821
N6    N     N_2   0.480451 0.982615 0.400677 -0.531034
N7    N     N_R   0.429286 0.501610 0.963725 -0.149196
N8    N     N_R   0.573043 0.492028 0.966579 -0.241013
N9    N     N_R   0.430941 0.501258 0.032567 -0.238221
N10   N     N_R   0.711660 0.510070 0.508820 -0.234890
N11   N     N_R   0.288340 0.489930 0.491180 -0.219479
N12   N     N_2   0.367597 0.412003 0.283543 -0.492225
N13   N     N_2   0.595156 0.397037 0.710769 -0.511352
N14   N     N_2   0.285280 0.405272 0.591057 -0.457241
O1    O     O_R   0.420280 0.382610 0.496690 -0.483516
O2    O     O_3   0.108931 0.419853 0.597379 -0.697470
O3    O     O_3   0.640762 0.574705 0.150395 -0.676618
O4    O     O_3   0.407314 0.597894 0.851294 -0.674845
O5    O     O_3   0.628912 0.589310 0.297845 -0.699328
O6    O     O_3   0.395652 0.587168 0.702449 -0.700987
O7    O     O_R   0.579720 0.617390 0.503310 -0.482286
O8    O     O_R   0.563150 0.389410 0.502640 -0.524693
O9    O     O_R   0.436850 0.610590 0.497360 -0.507268
O10   O     O_R   0.428540 0.496590 0.397170 -0.491739
O11   O     O_R   0.571460 0.503410 0.602830 -0.478070
O12   O     O_R   0.571410 0.503390 0.403120 -0.466133
O13   O     O_R   0.428590 0.496610 0.596880 -0.437597
O14   O     O_3   0.896585 0.618154 0.596037 -0.717497

loop_
_geom_bond_atom_site_label_1
_geom_bond_atom_site_label_2
_ccdc_geom_bond_type
C40   N12   S    
C19   O2    S    
C23   C45   A    
C17   O11   A    
H36   O3    S    
C32   O4    S    
C5    H2    S    
C1    O8    A    
C25   N12   S    
C7    C8    D    
C41   H13   S    
C12   O7    A    
Cu1   Cu2   S    
C43   H24   S    
C39   N1    A    
Cu2   O11   S    
C27   H45   S    
C40   H9    S    
C35   C37   A    
C7    C52   S    
C21   N14   S    
C44   H28   S    
C38   N8    A    
C11   C14   A    
Cu1   N11   S    
C27   C29   A    
H35   O2    S    
H40   N5    S    
C33   C36   A    
C40   H8    S    
C7    N6    S    
C30   C38   S    
C14   C18   A    
H39   O6    S    
C21   N11   A    
C15   C19   A    
H16   N14   S    
C22   N4    S    
Cu2   N10   S    
C50   C52   A    
C47   H42   S    
C31   C33   A    
C9    H1    S    
C16   O10   A    
C46   H31   S    
C44   N3    S    
H38   O5    S    
H33   O14   S    
C42   H18   S    
C41   H14   S    
C10   H12   S    
C43   H21   S    
C48   H46   S    
C13   H23   S    
H44   N6    S    
C12   O9    A    
H25   N3    S    
C32   C35   A    
C44   H26   S    
Cu1   O13   S    
C26   N13   S    
C4    C6    A    
C44   H27   S    
C8    N5    S    
C20   N10   A    
C38   N7    A    
C49   H51   S    
C49   C51   A    
Cu2   O8    S    
C6    C34   A    
N7    N9    A    
C35   O6    S    
C2    C4    A    
N1    N8    A    
C45   H50   S    
C5    C23   A    
C11   H34   S    
C48   H48   S    
C29   C39   S    
C33   O5    S    
H11   N13   S    
H29   N4    S    
C17   C37   S    
C41   N13   S    
C9    C11   A    
C46   H30   S    
C3    H3    S    
C15   C24   S    
C48   N6    S    
C1    C23   S    
C39   N9    A    
H37   O4    S    
C46   N4    S    
C17   O13   A    
C22   C24   D    
Cu1   O9    S    
C12   C34   S    
C41   H15   S    
C43   H22   S    
C42   H19   S    
C19   C21   A    
H7    N12   S    
C9    N10   A    
C2    C8    S    
C24   N3    S    
C3    C5    A    
C10   C13   A    
C47   H43   S    
C3    C52   A    
C26   C37   A    
C25   C27   A    
Cu2   O12   S    
Cu2   O7    S    
C26   C28   A    
C40   H10   S    
C50   H6    S    
C14   C22   S    
C13   C15   A    
C31   O3    S    
C29   C31   A    
C10   N11   A    
Cu1   O1    S    
C16   C36   S    
C30   C32   A    
C28   H49   S    
C42   N14   S    
C45   C50   A    
C47   N5    S    
C48   H47   S    
C28   C30   A    
C42   H17   S    
C18   O14   S    
C18   C20   A    
C43   N2    S    
C16   O12   A    
C1    O1    A    
C2    C51   A    
C25   C36   A    
H20   N2    S    
C51   H5    S    
C34   C49   A    
C4    H4    S    
C47   H41   S    
Cu1   O10   S    
C20   N2    S    
C6    H52   S    
C46   H32   S    
