data_mof_unit_62134.cif
_audit_creation_date              2012-12-10T18:22:14-0500
_audit_creation_method            fapswitch 2.2
_symmetry_space_group_name_H-M    P1
_symmetry_Int_Tables_number       1
_space_group_crystal_system       triclinic
_cell_length_a                    23.416166
_cell_length_b                    23.416167
_cell_length_c                    51.862473
_cell_angle_alpha                 90.002031
_cell_angle_beta                  90.002026
_cell_angle_gamma                 90.0
_cell_volume                      28437.0679773

loop_
_atom_site_label
_atom_site_type_symbol
_atom_type_description
_atom_site_fract_x
_atom_site_fract_y
_atom_site_fract_z
_atom_type_partial_charge
C1    C     C_R   0.999998 0.499999 0.179259 0.865454
C2    C     C_R   0.022517 0.452631 0.609648 0.136259
C3    C     C_1   0.687096 0.187095 0.250001 -0.001503
C4    C     C_1   0.812912 0.687088 0.750000 -0.004315
C5    C     C_1   0.187095 0.312904 0.250000 -0.001459
C6    C     C_1   0.687087 0.187088 0.750001 -0.004358
C7    C     C_1   0.312905 0.812903 0.249999 -0.001503
C8    C     C_1   0.231304 0.731305 0.250000 0.008934
C9    C     C_1   0.768687 0.268686 0.750000 0.009652
C10   C     C_1   0.268696 0.231304 0.250000 0.008984
C11   C     C_1   0.731313 0.768687 0.750000 0.009702
C12   C     C_1   0.768695 0.268696 0.250000 0.008934
C13   C     C_R   0.547369 0.977483 0.390352 0.136258
C14   C     C_1   0.231313 0.731313 0.750000 0.009652
C15   C     C_1   0.731304 0.768696 0.250000 0.008884
C16   C     C_1   0.268687 0.231313 0.750000 0.009601
C17   C     C_1   0.231304 0.268696 0.750000 0.008884
C18   C     C_1   0.768687 0.731313 0.250000 0.009601
C19   C     C_1   0.268695 0.768696 0.750000 0.008934
C20   C     C_1   0.731313 0.231313 0.250000 0.009652
C21   C     C_1   0.768696 0.731304 0.750000 0.008984
C22   C     C_1   0.231313 0.268687 0.250000 0.009702
C23   C     C_1   0.731304 0.231305 0.750000 0.008934
C24   C     C_R   0.547182 0.022497 0.609614 0.136703
C25   C     C_1   0.268687 0.768687 0.250000 0.009652
C26   C     C_R   0.449063 0.998318 0.054767 0.553463
C27   C     C_R   0.550756 0.998911 0.945260 0.553632
C28   C     C_R   0.001089 0.449244 0.054740 0.553636
C29   C     C_R   0.001682 0.550937 0.945233 0.553463
C30   C     C_R   0.550756 0.001088 0.054741 0.553625
C31   C     C_R   0.449063 0.001682 0.945231 0.553459
C32   C     C_R   0.998319 0.550937 0.054769 0.553463
C33   C     C_R   0.998912 0.449244 0.945259 0.553626
C34   C     C_R   0.949063 0.498318 0.554767 0.553463
C35   C     C_R   0.022516 0.547369 0.390353 0.136231
C36   C     C_R   0.050756 0.498911 0.445260 0.553633
C37   C     C_R   0.501089 0.949244 0.554740 0.553628
C38   C     C_R   0.501682 0.050937 0.445233 0.553462
C39   C     C_R   0.050756 0.501088 0.554741 0.553626
C40   C     C_R   0.949063 0.501682 0.445231 0.553459
C41   C     C_R   0.498318 0.050937 0.554769 0.553457
C42   C     C_R   0.498912 0.949244 0.445259 0.553625
C43   C     C_R   0.552121 0.000113 0.027418 -0.085863
C44   C     C_R   0.447618 0.000739 0.972568 -0.085425
C45   C     C_R   0.999261 0.552381 0.027431 -0.085425
C46   C     C_R   0.977503 0.547181 0.609614 0.136673
C47   C     C_R   0.999887 0.447879 0.972581 -0.085864
C48   C     C_R   0.447618 0.999261 0.027430 -0.085437
C49   C     C_R   0.552121 0.999886 0.972583 -0.085879
C50   C     C_R   0.000114 0.447879 0.027417 -0.085881
C51   C     C_R   0.000739 0.552381 0.972570 -0.085439
C52   C     C_R   0.052121 0.500113 0.527419 -0.085863
C53   C     C_R   0.947618 0.500739 0.472569 -0.085425
C54   C     C_R   0.499261 0.052381 0.527431 -0.085422
C55   C     C_R   0.499887 0.947878 0.472581 -0.085863
C56   C     C_R   0.947618 0.499261 0.527430 -0.085437
C57   C     C_R   0.452818 0.022496 0.390386 0.136672
C58   C     C_R   0.052121 0.499886 0.472583 -0.085877
C59   C     C_R   0.500114 0.947878 0.527417 -0.085876
C60   C     C_R   0.500739 0.052381 0.472570 -0.085437
C61   C     C_R   0.499861 0.000168 0.013702 -0.173790
C62   C     C_R   0.499861 0.999831 0.986298 -0.173791
C63   C     C_R   0.000169 0.500139 0.013702 -0.173792
C64   C     C_R   0.999832 0.500139 0.986298 -0.173789
C65   C     C_R   0.999861 0.500168 0.513702 -0.173790
C66   C     C_R   0.999861 0.499831 0.486298 -0.173791
C67   C     C_R   0.500169 0.000138 0.513702 -0.173789
C68   C     C_R   0.452632 0.977483 0.609647 0.136233
C69   C     C_R   0.499832 0.000138 0.486298 -0.173791
C70   C     C_R   0.604298 0.998560 0.013663 0.353478
C71   C     C_R   0.395444 0.001989 0.986348 0.352269
C72   C     C_R   0.998011 0.604555 0.013652 0.352270
C73   C     C_R   0.001440 0.395702 0.986336 0.353479
C74   C     C_R   0.395444 0.998011 0.013648 0.352298
C75   C     C_R   0.604298 0.001439 0.986340 0.353508
C76   C     C_R   0.998560 0.395702 0.013660 0.353508
C77   C     C_R   0.001989 0.604555 0.986352 0.352300
C78   C     C_R   0.104298 0.498560 0.513663 0.353479
C79   C     C_R   0.477503 0.952818 0.890386 0.136699
C80   C     C_R   0.895444 0.501989 0.486348 0.352269
C81   C     C_R   0.498011 0.104555 0.513652 0.352267
C82   C     C_R   0.501440 0.895702 0.486336 0.353480
C83   C     C_R   0.895444 0.498011 0.513648 0.352298
C84   C     C_R   0.104298 0.501439 0.486340 0.353507
C85   C     C_R   0.498561 0.895702 0.513660 0.353505
C86   C     C_R   0.501989 0.104555 0.486352 0.352299
C87   C     C_3   0.965921 0.396201 0.404149 -0.417608
C88   C     C_3   0.019342 0.371582 0.417037 -0.806677
C89   C     C_3   0.034150 0.395970 0.595928 -0.417579
C90   C     C_R   0.522517 0.952631 0.109647 0.136258
C91   C     C_3   0.980759 0.371249 0.583052 -0.807144
C92   C     C_3   0.604030 0.965850 0.404072 -0.417578
C93   C     C_3   0.628751 0.019241 0.416948 -0.807145
C94   C     C_3   0.603799 0.034078 0.595851 -0.417610
C95   C     C_3   0.628420 0.980654 0.582966 -0.806687
C96   C     C_3   0.034150 0.604030 0.404073 -0.417474
C97   C     C_3   0.980758 0.628751 0.416948 -0.807245
C98   C     C_3   0.965922 0.603799 0.595849 -0.417501
C99   C     C_3   0.019344 0.628418 0.582965 -0.806785
C100  C     C_3   0.396201 0.034078 0.404151 -0.417502
C101  C     C_R   0.047369 0.477483 0.890352 0.136259
C102  C     C_3   0.371582 0.980655 0.417035 -0.806784
C103  C     C_3   0.395970 0.965849 0.595926 -0.417473
C104  C     C_3   0.371250 0.019240 0.583052 -0.807246
C105  C     C_3   0.465921 0.896201 0.904149 -0.417610
C106  C     C_3   0.519343 0.871582 0.917037 -0.806682
C107  C     C_3   0.534150 0.895970 0.095928 -0.417579
C108  C     C_3   0.480759 0.871249 0.083052 -0.807142
C109  C     C_3   0.104030 0.465849 0.904072 -0.417579
C110  C     C_3   0.128751 0.519241 0.916948 -0.807142
C111  C     C_3   0.103799 0.534078 0.095851 -0.417608
C112  C     C_R   0.000002 0.499999 0.820741 0.865454
C113  C     C_R   0.047182 0.522497 0.109614 0.136696
C114  C     C_3   0.128418 0.480657 0.082963 -0.806677
C115  C     C_3   0.534150 0.104030 0.904073 -0.417474
C116  C     C_3   0.480758 0.128751 0.916948 -0.807244
C117  C     C_3   0.465922 0.103799 0.095849 -0.417502
C118  C     C_3   0.519344 0.128418 0.082965 -0.806783
C119  C     C_3   0.896201 0.534078 0.904151 -0.417501
C120  C     C_3   0.871582 0.480656 0.917035 -0.806783
C121  C     C_3   0.895970 0.465849 0.095926 -0.417474
C122  C     C_3   0.871251 0.519239 0.083050 -0.807238
C123  C     C_3   0.920026 0.425134 0.350125 -0.393472
C124  C     C_R   0.522516 0.047369 0.890353 0.136230
C125  C     C_3   0.873679 0.464321 0.339109 -0.824202
C126  C     C_3   0.080067 0.425154 0.649914 -0.393566
C127  C     C_3   0.126366 0.464419 0.660915 -0.824344
C128  C     C_3   0.574846 0.919933 0.350086 -0.393567
C129  C     C_3   0.535581 0.873634 0.339085 -0.824345
C130  C     C_3   0.574866 0.079975 0.649875 -0.393470
C131  C     C_3   0.535678 0.126321 0.660891 -0.824201
C132  C     C_3   0.080066 0.574847 0.350088 -0.393582
C133  C     C_3   0.126366 0.535581 0.339089 -0.824205
C134  C     C_3   0.920026 0.574866 0.649872 -0.393486
C135  C     C_R   0.477503 0.047181 0.109614 0.136673
C136  C     C_3   0.873679 0.535679 0.660887 -0.824062
C137  C     C_3   0.425134 0.079974 0.350128 -0.393486
C138  C     C_3   0.464321 0.126321 0.339113 -0.824062
C139  C     C_3   0.425154 0.919933 0.649911 -0.393583
C140  C     C_3   0.464420 0.873634 0.660911 -0.824206
C141  C     C_3   0.420026 0.925133 0.850125 -0.393470
C142  C     C_3   0.373679 0.964320 0.839109 -0.824202
C143  C     C_3   0.580067 0.925154 0.149914 -0.393567
C144  C     C_3   0.626366 0.964419 0.160915 -0.824346
C145  C     C_3   0.074846 0.419933 0.850086 -0.393568
C146  C     C_R   0.952818 0.522497 0.890386 0.136673
C147  C     C_3   0.035581 0.373634 0.839085 -0.824345
C148  C     C_3   0.074867 0.579974 0.149875 -0.393471
C149  C     C_3   0.035680 0.626320 0.160891 -0.824200
C150  C     C_3   0.580066 0.074847 0.850088 -0.393582
C151  C     C_3   0.626366 0.035581 0.839089 -0.824204
C152  C     C_3   0.420026 0.074866 0.149872 -0.393487
C153  C     C_3   0.373679 0.035679 0.160887 -0.824061
C154  C     C_3   0.925134 0.579974 0.850128 -0.393486
C155  C     C_3   0.964321 0.626321 0.839113 -0.824061
C156  C     C_3   0.925153 0.419934 0.149912 -0.393584
C157  C     C_R   0.952631 0.477484 0.109647 0.136227
C158  C     C_3   0.964418 0.373634 0.160911 -0.824204
C159  C     C_R   0.967605 0.458889 0.363453 0.054568
C160  C     C_R   0.032446 0.458822 0.636571 0.054737
C161  C     C_R   0.541178 0.967554 0.363428 0.054737
C162  C     C_R   0.541111 0.032396 0.636547 0.054571
C163  C     C_R   0.032446 0.541178 0.363429 0.054713
C164  C     C_R   0.500001 0.999998 0.179259 0.865454
C165  C     C_R   0.967605 0.541111 0.636546 0.054545
C166  C     C_R   0.458889 0.032395 0.363454 0.054545
C167  C     C_R   0.458822 0.967553 0.636571 0.054713
C168  C     C_R   0.467605 0.958889 0.863453 0.054568
C169  C     C_R   0.532446 0.958822 0.136572 0.054737
C170  C     C_R   0.041178 0.467554 0.863428 0.054738
C171  C     C_R   0.041112 0.532395 0.136547 0.054568
C172  C     C_R   0.532446 0.041178 0.863429 0.054714
C173  C     C_R   0.467605 0.041111 0.136546 0.054545
C174  C     C_R   0.958889 0.532395 0.863454 0.054545
C175  C     C_R   0.500001 0.000002 0.820741 0.865454
C176  C     C_R   0.958821 0.467554 0.136571 0.054712
C177  C     C_R   0.000019 0.500017 0.349540 -0.108539
C178  C     C_R   0.000019 0.499983 0.650460 -0.108539
C179  C     C_R   0.500017 0.999980 0.349540 -0.108539
C180  C     C_R   0.499983 0.999981 0.650460 -0.108540
C181  C     C_R   0.500019 0.000017 0.849540 -0.108539
C182  C     C_R   0.500019 0.999983 0.150460 -0.108539
C183  C     C_R   0.000017 0.499980 0.849540 -0.108539
C184  C     C_R   0.999983 0.499981 0.150460 -0.108538
C185  C     C_R   0.999980 0.500133 0.404199 0.225429
C186  C     C_R   0.499998 0.999999 0.679259 0.865454
C187  C     C_R   0.999980 0.499867 0.595800 0.225428
C188  C     C_R   0.500133 0.000019 0.404199 0.225429
C189  C     C_R   0.499868 0.000019 0.595800 0.225427
C190  C     C_R   0.499980 0.000132 0.904199 0.225430
C191  C     C_R   0.499980 0.999867 0.095800 0.225428
C192  C     C_R   0.000133 0.500019 0.904199 0.225429
C193  C     C_R   0.999868 0.500020 0.095800 0.225431
C194  C     C_R   0.895273 0.604727 0.250000 0.817271
C195  C     C_R   0.104725 0.395275 0.750000 0.819702
C196  C     C_R   0.395273 0.895272 0.250000 0.817265
C197  C     C_R   0.500002 0.999999 0.320741 0.865454
C198  C     C_R   0.604724 0.104725 0.750000 0.819687
C199  C     C_R   0.104727 0.395273 0.250000 0.817258
C200  C     C_R   0.895276 0.604724 0.750000 0.819674
C201  C     C_R   0.604727 0.104726 0.250000 0.817264
C202  C     C_R   0.395275 0.895276 0.750000 0.819687
C203  C     C_R   0.895273 0.395272 0.750000 0.817265
C204  C     C_R   0.104724 0.604725 0.250000 0.819687
C205  C     C_R   0.395273 0.104727 0.750000 0.817271
C206  C     C_R   0.604725 0.895275 0.250000 0.819702
C207  C     C_R   0.104727 0.604726 0.750000 0.817264
C208  C     C_R   0.000001 0.499998 0.679259 0.865454
C209  C     C_R   0.895275 0.395276 0.250000 0.819687
C210  C     C_R   0.604727 0.895273 0.750000 0.817258
C211  C     C_R   0.395276 0.104724 0.250000 0.819674
C212  C     C_1   0.149704 0.649706 0.250001 -0.174389
C213  C     C_1   0.850289 0.350287 0.749999 -0.169685
C214  C     C_1   0.350295 0.149705 0.250000 -0.174347
C215  C     C_1   0.649712 0.850288 0.750000 -0.169642
C216  C     C_1   0.850293 0.350295 0.249999 -0.174389
C217  C     C_1   0.149713 0.649711 0.750001 -0.169685
C218  C     C_1   0.649706 0.850294 0.250000 -0.174431
C219  C     C_R   0.000001 0.500002 0.320741 0.865454
C220  C     C_1   0.350288 0.149712 0.750000 -0.169727
C221  C     C_1   0.149706 0.350294 0.750000 -0.174431
C222  C     C_1   0.850288 0.649712 0.250000 -0.169727
C223  C     C_1   0.350293 0.850295 0.749999 -0.174389
C224  C     C_1   0.649713 0.149711 0.250001 -0.169685
C225  C     C_1   0.850295 0.649705 0.750000 -0.174347
C226  C     C_1   0.149712 0.350288 0.250000 -0.169642
C227  C     C_1   0.649704 0.149706 0.750001 -0.174390
C228  C     C_1   0.350289 0.850287 0.249999 -0.169685
C229  C     C_1   0.187087 0.687088 0.250001 -0.004358
C230  C     C_R   0.977503 0.452818 0.390386 0.136698
C231  C     C_1   0.812905 0.312903 0.749999 -0.001503
C232  C     C_1   0.312912 0.187088 0.250000 -0.004315
C233  C     C_1   0.687095 0.812904 0.750000 -0.001459
C234  C     C_1   0.812911 0.312913 0.249999 -0.004358
C235  C     C_1   0.187096 0.687095 0.750001 -0.001503
C236  C     C_1   0.687088 0.812912 0.250000 -0.004400
C237  C     C_1   0.312904 0.187096 0.750000 -0.001547
C238  C     C_1   0.187088 0.312912 0.750000 -0.004400
C239  C     C_1   0.812904 0.687096 0.250000 -0.001547
C240  C     C_1   0.312911 0.812913 0.749999 -0.004358
H1    H     H_    0.682586 0.971448 0.016376 0.343717
H2    H     H_    0.817109 0.528925 0.483754 0.344759
H3    H     H_    0.937690 0.397163 0.334827 0.229873
H4    H     H_    0.896723 0.396993 0.363606 0.208067
H5    H     H_    0.142278 0.493799 0.645703 0.273451
H6    H     H_    0.110576 0.489880 0.677434 0.237406
H7    H     H_    0.162757 0.438225 0.667907 0.244909
H8    H     H_    0.062438 0.397193 0.665223 0.229887
H9    H     H_    0.103404 0.397015 0.636442 0.207984
H10   H     H_    0.506201 0.857722 0.354297 0.273451
H11   H     H_    0.510120 0.889424 0.322566 0.237407
H12   H     H_    0.561775 0.837243 0.332093 0.244909
H13   H     H_    0.471074 0.182891 0.516246 0.344758
H14   H     H_    0.602807 0.937562 0.334777 0.229887
H15   H     H_    0.602985 0.896596 0.363557 0.207985
H16   H     H_    0.506294 0.142277 0.645689 0.273446
H17   H     H_    0.510221 0.110559 0.677416 0.237363
H18   H     H_    0.561930 0.162675 0.667878 0.244942
H19   H     H_    0.602836 0.062311 0.665173 0.229873
H20   H     H_    0.603006 0.103278 0.636394 0.208067
H21   H     H_    0.142278 0.506201 0.354301 0.273477
H22   H     H_    0.110576 0.510119 0.322570 0.237385
H23   H     H_    0.162757 0.561775 0.332098 0.244931
H24   H     H_    0.528553 0.817414 0.483623 0.343718
H25   H     H_    0.062437 0.602807 0.334779 0.229885
H26   H     H_    0.103404 0.602985 0.363561 0.208026
H27   H     H_    0.857723 0.506296 0.645684 0.273473
H28   H     H_    0.889441 0.510222 0.677412 0.237341
H29   H     H_    0.837325 0.561932 0.667873 0.244964
H30   H     H_    0.937690 0.602836 0.665170 0.229870
H31   H     H_    0.896723 0.603007 0.636390 0.208109
H32   H     H_    0.493704 0.142277 0.354316 0.273473
H33   H     H_    0.489778 0.110559 0.322588 0.237341
H34   H     H_    0.438068 0.162674 0.332127 0.244964
H35   H     H_    0.817109 0.471075 0.516241 0.344774
H36   H     H_    0.397164 0.062310 0.334829 0.229870
H37   H     H_    0.396993 0.103276 0.363610 0.208109
H38   H     H_    0.493800 0.857722 0.645699 0.273478
H39   H     H_    0.489881 0.889424 0.677430 0.237385
H40   H     H_    0.438226 0.837243 0.667902 0.244930
H41   H     H_    0.397194 0.937562 0.665221 0.229884
H42   H     H_    0.397016 0.896596 0.636439 0.208027
H43   H     H_    0.357723 0.993704 0.854311 0.273446
H44   H     H_    0.389441 0.989778 0.822584 0.237364
H45   H     H_    0.337326 0.938068 0.832121 0.244942
H46   H     H_    0.182586 0.528551 0.483629 0.343747
H47   H     H_    0.437690 0.897163 0.834827 0.229873
H48   H     H_    0.396723 0.896992 0.863606 0.208067
H49   H     H_    0.642278 0.993799 0.145703 0.273451
H50   H     H_    0.610576 0.989881 0.177434 0.237407
H51   H     H_    0.662757 0.938226 0.167907 0.244910
H52   H     H_    0.562438 0.897193 0.165223 0.229888
H53   H     H_    0.603404 0.897015 0.136442 0.207985
H54   H     H_    0.006200 0.357722 0.854297 0.273451
H55   H     H_    0.010119 0.389424 0.822566 0.237406
H56   H     H_    0.061774 0.337243 0.832093 0.244909
H57   H     H_    0.471449 0.817414 0.516370 0.343747
H58   H     H_    0.102806 0.437562 0.834777 0.229887
H59   H     H_    0.102984 0.396596 0.863557 0.207985
H60   H     H_    0.006297 0.642277 0.145689 0.273446
H61   H     H_    0.010223 0.610559 0.177415 0.237364
H62   H     H_    0.061933 0.662674 0.167878 0.244942
H63   H     H_    0.102837 0.562309 0.165172 0.229874
H64   H     H_    0.103008 0.603276 0.136394 0.208066
H65   H     H_    0.642278 0.006201 0.854302 0.273477
H66   H     H_    0.610576 0.010120 0.822570 0.237384
H67   H     H_    0.662756 0.061775 0.832098 0.244931
H68   H     H_    0.528925 0.182891 0.483759 0.344774
H69   H     H_    0.562437 0.102807 0.834779 0.229885
H70   H     H_    0.603404 0.102985 0.863561 0.208026
H71   H     H_    0.357723 0.006295 0.145684 0.273473
H72   H     H_    0.389441 0.010222 0.177412 0.237341
H73   H     H_    0.337325 0.061931 0.167873 0.244964
H74   H     H_    0.437690 0.102836 0.165170 0.229870
H75   H     H_    0.396723 0.103007 0.136390 0.208109
H76   H     H_    0.993704 0.642277 0.854316 0.273473
H77   H     H_    0.989778 0.610559 0.822588 0.237341
H78   H     H_    0.938069 0.662675 0.832127 0.244963
H79   H     H_    0.026392 0.390959 0.436226 0.257607
H80   H     H_    0.897164 0.562310 0.834829 0.229870
H81   H     H_    0.896993 0.603277 0.863610 0.208109
H82   H     H_    0.993797 0.357722 0.145698 0.273477
H83   H     H_    0.989880 0.389424 0.177430 0.237385
H84   H     H_    0.938224 0.337244 0.167902 0.244931
H85   H     H_    0.897193 0.437563 0.165221 0.229885
H86   H     H_    0.897014 0.396597 0.136439 0.208026
H87   H     H_    0.013688 0.324990 0.420177 0.243968
H88   H     H_    0.057608 0.378066 0.404710 0.276921
H89   H     H_    0.317109 0.028925 0.983754 0.344759
H90   H     H_    0.931310 0.401084 0.418576 0.243010
H91   H     H_    0.952347 0.362531 0.390524 0.201937
H92   H     H_    0.973756 0.390474 0.563829 0.257537
H93   H     H_    0.986421 0.324632 0.579986 0.243894
H94   H     H_    0.942461 0.377826 0.595349 0.276872
H95   H     H_    0.068771 0.400831 0.581503 0.243220
H96   H     H_    0.047746 0.362367 0.609582 0.201861
H97   H     H_    0.609526 0.026244 0.436171 0.257539
H98   H     H_    0.675368 0.013579 0.420014 0.243894
H99   H     H_    0.622174 0.057539 0.404651 0.276871
H100  H     H_    0.971075 0.682891 0.016246 0.344758
H101  H     H_    0.599169 0.931229 0.418497 0.243220
H102  H     H_    0.637633 0.952254 0.390418 0.201860
H103  H     H_    0.609040 0.973596 0.563778 0.257619
H104  H     H_    0.675011 0.986312 0.579824 0.243969
H105  H     H_    0.621941 0.942393 0.595296 0.276916
H106  H     H_    0.598916 0.068685 0.581422 0.243008
H107  H     H_    0.637468 0.047656 0.609476 0.201939
H108  H     H_    0.973757 0.609526 0.436171 0.257548
H109  H     H_    0.986421 0.675367 0.420014 0.243906
H110  H     H_    0.942461 0.622174 0.404650 0.276843
H111  H     H_    0.028552 0.317414 0.983624 0.343718
H112  H     H_    0.068771 0.599169 0.418499 0.243249
H113  H     H_    0.047745 0.637633 0.390419 0.201875
H114  H     H_    0.026396 0.609040 0.563776 0.257622
H115  H     H_    0.013689 0.675010 0.579823 0.243981
H116  H     H_    0.057609 0.621936 0.595294 0.276889
H117  H     H_    0.931312 0.598916 0.581421 0.243040
H118  H     H_    0.952347 0.637468 0.609475 0.201952
H119  H     H_    0.390960 0.973603 0.436224 0.257622
H120  H     H_    0.324990 0.986311 0.420177 0.243981
H121  H     H_    0.378064 0.942391 0.404706 0.276889
H122  H     H_    0.317109 0.971074 0.016241 0.344774
H123  H     H_    0.401084 0.068687 0.418579 0.243040
H124  H     H_    0.362532 0.047653 0.390525 0.201952
H125  H     H_    0.390475 0.026241 0.563829 0.257547
H126  H     H_    0.324633 0.013578 0.579986 0.243907
H127  H     H_    0.377827 0.057538 0.595350 0.276843
H128  H     H_    0.400832 0.931227 0.581501 0.243250
H129  H     H_    0.362368 0.952254 0.609581 0.201875
H130  H     H_    0.526392 0.890959 0.936226 0.257609
H131  H     H_    0.513688 0.824990 0.920177 0.243969
H132  H     H_    0.557608 0.878066 0.904710 0.276921
H133  H     H_    0.682585 0.028552 0.983629 0.343747
H134  H     H_    0.431310 0.901084 0.918576 0.243010
H135  H     H_    0.452347 0.862531 0.890524 0.201938
H136  H     H_    0.473756 0.890474 0.063829 0.257537
H137  H     H_    0.486421 0.824632 0.079986 0.243894
H138  H     H_    0.442461 0.877825 0.095349 0.276871
H139  H     H_    0.568771 0.900831 0.081503 0.243220
H140  H     H_    0.547746 0.862367 0.109582 0.201861
H141  H     H_    0.109526 0.526244 0.936171 0.257537
H142  H     H_    0.175368 0.513579 0.920014 0.243894
H143  H     H_    0.122175 0.557539 0.904651 0.276871
H144  H     H_    0.971448 0.317414 0.016370 0.343747
H145  H     H_    0.099169 0.431229 0.918497 0.243220
H146  H     H_    0.137633 0.452254 0.890418 0.201861
H147  H     H_    0.109041 0.473607 0.063774 0.257607
H148  H     H_    0.175010 0.486311 0.079823 0.243968
H149  H     H_    0.121933 0.442391 0.095290 0.276921
H150  H     H_    0.098917 0.568689 0.081424 0.243009
H151  H     H_    0.137469 0.547652 0.109476 0.201937
H152  H     H_    0.473757 0.109525 0.936171 0.257547
H153  H     H_    0.486420 0.175367 0.920014 0.243907
H154  H     H_    0.442460 0.122173 0.904650 0.276843
H155  H     H_    0.028926 0.682891 0.983759 0.344775
H156  H     H_    0.568771 0.099169 0.918499 0.243249
H157  H     H_    0.547745 0.137633 0.890419 0.201875
H158  H     H_    0.526396 0.109040 0.063776 0.257621
H159  H     H_    0.513688 0.175010 0.079823 0.243981
H160  H     H_    0.557608 0.121936 0.095294 0.276889
H161  H     H_    0.431312 0.098916 0.081421 0.243040
H162  H     H_    0.452346 0.137468 0.109475 0.201952
H163  H     H_    0.890960 0.473604 0.936224 0.257621
H164  H     H_    0.824990 0.486311 0.920176 0.243981
H165  H     H_    0.878064 0.442392 0.904706 0.276889
H166  H     H_    0.182586 0.471447 0.516376 0.343717
H167  H     H_    0.901084 0.568688 0.918579 0.243040
H168  H     H_    0.862532 0.547654 0.890525 0.201952
H169  H     H_    0.890474 0.526235 0.063826 0.257540
H170  H     H_    0.824634 0.513579 0.079986 0.243906
H171  H     H_    0.877832 0.557540 0.095346 0.276846
H172  H     H_    0.900831 0.431226 0.081502 0.243251
H173  H     H_    0.862367 0.452257 0.109581 0.201874
H174  H     H_    0.857723 0.493704 0.354311 0.273446
H175  H     H_    0.889441 0.489778 0.322584 0.237364
H176  H     H_    0.837325 0.438068 0.332122 0.244942
N1    N     N_R   0.499929 0.999784 0.067768 -0.349682
N2    N     N_R   0.499929 0.000216 0.932232 -0.349680
N3    N     N_R   0.999784 0.500070 0.067768 -0.349679
N4    N     N_R   0.000216 0.500070 0.932232 -0.349681
N5    N     N_R   0.999929 0.499784 0.567768 -0.349681
N6    N     N_R   0.999929 0.500216 0.432232 -0.349681
N7    N     N_R   0.499785 0.000070 0.567768 -0.349682
N8    N     N_R   0.500216 0.000070 0.432232 -0.349681
O1    O     O_3   0.000000 0.500000 0.250000 -0.424762
O2    O     O_R   0.044090 0.500000 0.807650 -0.643565
O3    O     O_R   0.500000 0.955910 0.192350 -0.643565
O4    O     O_R   0.500000 0.044090 0.807650 -0.643571
O5    O     O_R   0.544090 0.000000 0.692350 -0.643543
O6    O     O_R   0.455910 0.000000 0.307650 -0.643549
O7    O     O_R   0.000000 0.544090 0.692350 -0.643549
O8    O     O_R   0.000000 0.455910 0.307650 -0.643543
O9    O     O_R   0.455910 0.000000 0.692350 -0.643571
O10   O     O_R   0.544090 0.000000 0.307650 -0.643565
O11   O     O_R   0.000000 0.455910 0.692350 -0.643565
O12   O     O_3   0.000000 0.500000 0.750000 -0.424762
O13   O     O_R   0.000000 0.544090 0.307650 -0.643571
O14   O     O_R   0.893990 0.562090 0.235170 -0.624479
O15   O     O_R   0.106010 0.437910 0.764830 -0.625460
O16   O     O_R   0.437910 0.893990 0.235170 -0.624483
O17   O     O_R   0.562090 0.106010 0.764830 -0.625470
O18   O     O_R   0.106010 0.437910 0.235170 -0.624470
O19   O     O_R   0.893990 0.562090 0.764830 -0.625437
O20   O     O_R   0.562090 0.106010 0.235170 -0.624466
O21   O     O_R   0.437910 0.893990 0.764830 -0.625427
O22   O     O_R   0.893990 0.437910 0.764830 -0.624466
O23   O     O_3   0.500000 1.000000 0.250000 -0.424762
O24   O     O_R   0.106010 0.562090 0.235170 -0.625427
O25   O     O_R   0.437910 0.106010 0.764830 -0.624480
O26   O     O_R   0.562090 0.893990 0.235170 -0.625461
O27   O     O_R   0.106010 0.562090 0.764830 -0.624483
O28   O     O_R   0.893990 0.437910 0.235170 -0.625470
O29   O     O_R   0.562090 0.893990 0.764830 -0.624469
O30   O     O_R   0.437910 0.106010 0.235170 -0.625437
O31   O     O_R   0.393990 0.062090 0.735170 -0.624479
O32   O     O_R   0.606010 0.937910 0.264830 -0.625460
O33   O     O_R   0.937910 0.393990 0.735170 -0.624483
O34   O     O_3   0.500000 0.000000 0.750000 -0.424762
O35   O     O_R   0.062090 0.606010 0.264830 -0.625470
O36   O     O_R   0.606010 0.937910 0.735170 -0.624470
O37   O     O_R   0.393990 0.062090 0.264830 -0.625437
O38   O     O_R   0.062090 0.606010 0.735170 -0.624466
O39   O     O_R   0.937910 0.393990 0.264830 -0.625427
O40   O     O_R   0.393990 0.937910 0.264830 -0.624466
O41   O     O_R   0.606010 0.062090 0.735170 -0.625427
O42   O     O_R   0.937910 0.606010 0.264830 -0.624480
O43   O     O_R   0.062090 0.393990 0.735170 -0.625461
O44   O     O_R   0.606010 0.062090 0.264830 -0.624483
O45   O     O_R   0.044090 0.500000 0.192350 -0.643543
O46   O     O_R   0.393990 0.937910 0.735170 -0.625470
O47   O     O_R   0.062090 0.393990 0.264830 -0.624469
O48   O     O_R   0.937910 0.606010 0.735170 -0.625437
O49   O     O_2   0.400133 0.995140 0.068427 -0.490098
O50   O     O_2   0.599725 0.995146 0.931656 -0.489744
O51   O     O_2   0.004854 0.400275 0.068344 -0.489745
O52   O     O_2   0.004859 0.599867 0.931573 -0.490098
O53   O     O_2   0.599725 0.004853 0.068347 -0.489829
O54   O     O_2   0.400133 0.004859 0.931570 -0.490183
O55   O     O_2   0.995141 0.599867 0.068430 -0.490185
O56   O     O_R   0.955910 0.500000 0.807650 -0.643549
O57   O     O_2   0.995147 0.400275 0.931653 -0.489829
O58   O     O_2   0.900133 0.495141 0.568427 -0.490098
O59   O     O_2   0.099725 0.495146 0.431656 -0.489745
O60   O     O_2   0.504854 0.900275 0.568344 -0.489742
O61   O     O_2   0.504859 0.099867 0.431573 -0.490097
O62   O     O_2   0.099725 0.504853 0.568347 -0.489829
O63   O     O_2   0.900133 0.504859 0.431570 -0.490183
O64   O     O_2   0.495141 0.099866 0.568430 -0.490183
O65   O     O_2   0.495147 0.900275 0.431653 -0.489829
O66   O     O_3   0.654905 0.992806 0.027138 -0.700879
O67   O     O_R   0.500000 0.044090 0.192350 -0.643549
O68   O     O_3   0.344765 0.007684 0.972931 -0.700094
O69   O     O_3   0.992317 0.655234 0.027069 -0.700093
O70   O     O_3   0.007194 0.345095 0.972862 -0.700881
O71   O     O_3   0.344765 0.992316 0.027064 -0.699990
O72   O     O_3   0.654904 0.007193 0.972866 -0.700782
O73   O     O_3   0.992806 0.345095 0.027133 -0.700781
O74   O     O_3   0.007684 0.655234 0.972936 -0.699992
O75   O     O_3   0.154905 0.492806 0.527138 -0.700880
O76   O     O_3   0.844765 0.507684 0.472931 -0.700094
O77   O     O_3   0.492316 0.155234 0.527069 -0.700092
O78   O     O_R   0.500000 0.955910 0.807650 -0.643543
O79   O     O_3   0.507194 0.845095 0.472862 -0.700882
O80   O     O_3   0.844765 0.492316 0.527064 -0.699990
O81   O     O_3   0.154904 0.507193 0.472866 -0.700780
O82   O     O_3   0.492807 0.845095 0.527133 -0.700780
O83   O     O_3   0.507683 0.155234 0.472936 -0.699990
O84   O     O_R   0.955910 0.500000 0.192350 -0.643571
Zn1   Zn    Zn3+2 0.000000 0.563030 0.272130 0.976776
Zn2   Zn    Zn3+2 0.500000 0.936970 0.227870 0.976782
Zn3   Zn    Zn3+2 0.936970 0.500000 0.772130 0.976810
Zn4   Zn    Zn3+2 0.063030 0.500000 0.227870 0.976817
Zn5   Zn    Zn3+2 0.500000 0.936970 0.772130 0.976817
Zn6   Zn    Zn3+2 0.500000 0.063030 0.227870 0.976810
Zn7   Zn    Zn3+2 0.063030 0.500000 0.772130 0.976783
Zn8   Zn    Zn3+2 0.936970 0.500000 0.227870 0.976776
Zn9   Zn    Zn3+2 0.000000 0.436970 0.727870 0.976782
Zn10  Zn    Zn3+2 0.436970 0.000000 0.272130 0.976810
Zn11  Zn    Zn3+2 0.563030 0.000000 0.727870 0.976817
Zn12  Zn    Zn3+2 0.000000 0.436970 0.272130 0.976817
Zn13  Zn    Zn3+2 0.000000 0.563030 0.727870 0.976810
Zn14  Zn    Zn3+2 0.563030 0.000000 0.272130 0.976783
Zn15  Zn    Zn3+2 0.436970 0.000000 0.727870 0.976776
Zn16  Zn    Zn3+2 0.500000 0.063030 0.772130 0.976776

loop_
_geom_bond_atom_site_label_1
_geom_bond_atom_site_label_2
_ccdc_geom_bond_type
C196  O40   A    
C196  C228  S    
C205  C220  S    
C34   C56   A    
C126  C127  S    
C194  O42   A    
C32   C45   A    
C215  C233  T    
O34   Zn11  S    
C138  H32   S    
O39   Zn12  S    
C89   H95   S    
C138  H34   S    
C136  H27   S    
C157  C193  A    
C135  C173  A    
C91   H93   S    
C90   C107  S    
C28   O51   S    
C1    O45   A    
C122  H169  S    
C148  H63   S    
C143  C144  S    
C128  H15   S    
C116  H153  S    
O23   Zn6   S    
C93   H98   S    
C142  H44   S    
O12   Zn7   S    
O12   Zn3   S    
C150  C172  S    
C189  N7    S    
C178  C208  S    
C88   H79   S    
C125  H175  S    
O2    Zn7   S    
C141  H48   S    
C81   C86   A    
C194  C222  S    
C193  N3    S    
O32   Zn14  S    
C167  C180  A    
C46   C98   S    
O44   Zn14  S    
C73   O70   S    
H144  O73   S    
C111  H151  S    
C102  H119  S    
C80   C83   A    
C14   C19   T    
C88   H87   S    
C137  C166  S    
O36   Zn11  S    
C144  H51   S    
C112  O2    A    
C151  H65   S    
C186  O5    A    
C197  O6    A    
C139  H41   S    
C199  O18   A    
O23   Zn2   S    
C48   C74   A    
C120  H163  S    
O29   Zn5   S    
C47   C64   A    
C195  C221  S    
C60   C86   A    
O31   Zn15  S    
C57   C166  A    
C35   C163  A    
O18   Zn4   S    
C50   C76   A    
C42   C55   A    
C207  O38   A    
C114  H147  S    
C87   H90   S    
C158  H83   S    
C124  C172  A    
C107  H139  S    
C108  H137  S    
C6    C227  T    
C204  C212  S    
C10   C232  S    
C134  C165  S    
C101  C170  A    
C211  O37   A    
C4    C225  T    
C97   H110  S    
C209  O28   A    
C139  C167  S    
C160  C178  A    
C154  C155  S    
O13   Zn1   S    
H13   O77   S    
C103  H129  S    
C219  O8    A    
C118  H160  S    
C33   C47   A    
C30   C43   A    
O19   Zn3   S    
C149  H60   S    
C43   C61   A    
C56   C83   A    
C70   O66   S    
C176  C184  A    
C145  C170  S    
C141  C168  S    
C49   C62   A    
C201  O44   A    
O25   Zn16  S    
C202  C223  S    
C203  C213  S    
C29   O52   S    
C105  H135  S    
C51   C64   A    
C130  H20   S    
C139  C140  S    
C145  H59   S    
C155  H78   S    
C82   C85   A    
C110  H143  S    
C180  C186  S    
C156  C158  S    
C130  C131  S    
C31   N2    A    
C85   O82   S    
O12   Zn9   S    
C29   N4    A    
C188  N8    S    
C123  C159  S    
C148  C171  S    
C149  H62   S    
C146  C174  A    
C30   O53   S    
O1    Zn12  S    
C119  H167  S    
C169  C182  A    
C132  C163  S    
C77   O74   S    
C33   N4    A    
C39   O62   S    
C168  C181  A    
O45   Zn4   S    
C54   C81   A    
C156  H86   S    
C52   C65   A    
C153  H71   S    
O56   Zn3   S    
C106  H132  S    
C11   C233  S    
C15   C18   T    
C129  H11   S    
C46   C165  A    
C31   O54   S    
C112  O56   A    
C140  H40   S    
C41   O64   S    
C209  O39   A    
C128  C129  S    
O7    Zn13  S    
C36   N6    A    
C35   C96   S    
C119  C146  S    
C133  H21   S    
C185  C230  A    
C137  H37   S    
C126  H9    S    
C68   C189  A    
C58   C84   A    
H1    O66   S    
C147  H56   S    
C210  C215  S    
O38   Zn13  S    
C222  C239  T    
C32   O55   S    
C210  O29   A    
C2    C187  A    
C92   C93   S    
C100  H123  S    
C59   C67   A    
C132  H25   S    
C172  C181  A    
O8    Zn12  S    
H133  O72   S    
C118  H158  S    
C15   C236  S    
C128  H14   S    
C107  C108  S    
C49   C75   A    
C116  H152  S    
C161  C179  A    
C202  O21   A    
O34   Zn15  S    
C162  C180  A    
C213  C231  T    
C175  C181  S    
C130  C162  S    
C150  H70   S    
C211  O30   A    
C50   C63   A    
C205  O31   A    
O1    Zn4   S    
C177  C219  S    
C14   C235  S    
O41   Zn11  S    
C155  H76   S    
C219  O13   A    
O43   Zn9   S    
C100  H124  S    
C154  C174  S    
C110  H141  S    
O23   Zn10  S    
C53   C80   A    
C115  H156  S    
C109  H146  S    
C191  N1    S    
C9    C23   T    
C164  O3    A    
C30   N1    A    
C144  H50   S    
C11   C21   T    
C78   C84   A    
H111  O70   S    
C59   C85   A    
O6    Zn10  S    
C131  H18   S    
C8    C229  S    
C1    O84   A    
C127  H6    S    
C55   C69   A    
C149  H61   S    
C37   C59   A    
C153  H73   S    
C82   O79   S    
C106  H130  S    
C38   C60   A    
C152  C173  S    
C87   H91   S    
H166  O75   S    
C95   H105  S    
C98   C99   S    
C186  O9    A    
C33   O57   S    
H122  O71   S    
C27   N2    A    
C104  H125  S    
C197  O10   A    
C29   C51   A    
C74   O71   S    
C133  H23   S    
C198  O41   A    
C94   H107  S    
O47   Zn12  S    
C175  O78   A    
C150  H69   S    
C83   O80   S    
H2    O76   S    
O10   Zn14  S    
C147  H54   S    
C134  H30   S    
C40   N6    A    
C136  H28   S    
C175  O4    A    
O4    Zn16  S    
O78   Zn5   S    
C121  H173  S    
C117  C118  S    
C164  O67   A    
C212  C229  T    
C122  H170  S    
C75   O72   S    
C148  H64   S    
C60   C69   A    
O67   Zn6   S    
C90   C169  A    
C116  H154  S    
C93   H97   S    
C61   C62   A    
C199  C226  S    
O48   Zn13  S    
C142  H45   S    
C63   C64   A    
C81   O77   S    
C143  H52   S    
C211  C214  S    
C207  O27   A    
C152  C153  S    
C2    C160  A    
C70   C75   A    
C205  O25   A    
C150  C151  S    
C143  H53   S    
C198  O17   A    
C141  H47   S    
C80   O76   S    
C103  H128  S    
O35   Zn1   S    
C87   C88   S    
C195  O43   A    
C216  C234  T    
C99   H116  S    
C214  C232  T    
C96   H113  S    
C88   H88   S    
C124  C190  A    
O12   Zn13  S    
C71   O68   S    
C10   C22   T    
C95   H104  S    
C206  O32   A    
C152  H75   S    
C120  H164  S    
C123  C125  S    
C101  C109  S    
C208  O11   A    
C203  O22   A    
C86   O83   S    
H155  O74   S    
H89   O68   S    
C84   O81   S    
C114  H148  S    
C158  H84   S    
H100  O69   S    
C108  H138  S    
C16   C17   T    
C163  C177  A    
C104  H127  S    
C68   C103  S    
C200  O19   A    
C136  H29   S    
O16   Zn2   S    
C46   C187  A    
C26   N1    A    
C78   O75   S    
C26   C48   A    
C17   C238  S    
C76   O73   S    
C8    C25   T    
C217  C235  T    
C52   C78   A    
C41   N7    A    
C123  H3    S    
C145  C147  S    
C114  H149  S    
C112  C183  S    
C24   C162  A    
C89   H96   S    
C207  C217  S    
C138  H33   S    
O1    Zn1   S    
C171  C184  A    
C91   H94   S    
C47   C73   A    
C27   O50   S    
C145  H58   S    
C196  O16   A    
C155  H77   S    
C202  O46   A    
C208  O7    A    
C40   O63   S    
C93   H99   S    
C2    C89   S    
C102  H120  S    
C115  H157  S    
O42   Zn1   S    
C140  H38   S    
C142  H43   S    
C108  H136  S    
C125  H176  S    
C3    C20   S    
C210  O36   A    
C135  C191  A    
C121  C122  S    
C199  O47   A    
C13   C92   S    
O22   Zn3   S    
C73   C76   A    
C220  C237  T    
C99   H114  S    
C127  H7    S    
C32   N3    A    
C95   H103  S    
C198  C227  S    
O84   Zn8   S    
C129  H10   S    
C156  C176  S    
C151  H66   S    
C115  C124  S    
C139  H42   S    
C131  H16   S    
C113  C193  A    
O27   Zn7   S    
O33   Zn9   S    
C174  C183  A    
C71   C74   A    
C119  C120  S    
C126  C160  S    
C87   C230  S    
C105  C106  S    
C137  H36   S    
C7    C25   S    
H46   O81   S    
O21   Zn5   S    
C221  C238  T    
C192  N4    S    
C200  O48   A    
C218  C236  T    
C92   H101  S    
C109  C110  S    
O11   Zn9   S    
C158  H82   S    
C147  H55   S    
C107  H140  S    
O3    Zn2   S    
C128  C161  S    
C111  C114  S    
C94   C95   S    
O5    Zn11  S    
C164  C182  S    
C132  H26   S    
C118  H159  S    
C7    C228  T    
O20   Zn6   S    
C103  C104  S    
C96   H112  S    
C19   C240  S    
O34   Zn16  S    
C115  C116  S    
C39   N5    A    
C170  C183  A    
C91   H92   S    
C187  N5    S    
C34   N5    A    
C101  C192  A    
C51   C77   A    
C130  H19   S    
C194  O14   A    
C113  C171  A    
C206  C218  S    
C12   C234  S    
O46   Zn15  S    
C110  H142  S    
C97   H109  S    
C36   O59   S    
C36   C58   A    
C223  C240  T    
O9    Zn15  S    
C109  H145  S    
C105  H134  S    
O37   Zn10  S    
C56   C65   A    
O40   Zn10  S    
C5    C226  T    
C79   C105  S    
C44   C71   A    
C152  H74   S    
C119  H168  S    
O28   Zn8   S    
O1    Zn8   S    
C57   C188  A    
C185  N6    S    
C131  H17   S    
C28   C50   A    
C58   C66   A    
C5    C22   S    
H24   O79   S    
C42   N8    A    
C132  C133  S    
C79   C190  A    
H57   O82   S    
C111  H150  S    
C24   C189  A    
C127  H5    S    
C79   C168  A    
C156  H85   S    
C153  H72   S    
C106  H131  S    
C39   C52   A    
C129  H12   S    
C13   C188  A    
C121  C157  S    
C45   C72   A    
C104  H126  S    
C165  C178  A    
C140  H39   S    
C146  C192  A    
C195  O15   A    
C159  C177  A    
C123  H4    S    
H68   O83   S    
C1    C184  S    
H35   O80   S    
C90   C191  A    
C133  H22   S    
C209  C216  S    
C12   C20   T    
C31   C44   A    
C126  H8    S    
C159  C230  A    
C201  O20   A    
C148  C149  S    
C143  C169  S    
C111  C113  S    
O34   Zn5   S    
C154  H80   S    
C72   O69   S    
C134  C136  S    
C54   C67   A    
C179  C197  S    
C44   C62   A    
C134  H31   S    
C57   C100  S    
C45   C63   A    
C3    C224  T    
O26   Zn2   S    
C28   N3    A    
C67   C69   A    
C38   N8    A    
C72   C77   A    
C121  H172  S    
C24   C94   S    
C122  H171  S    
C35   C185  A    
C96   C97   S    
C100  C102  S    
C92   H102  S    
C120  H165  S    
C37   N7    A    
C55   C82   A    
C53   C66   A    
C190  N2    S    
C204  O24   A    
C34   O58   S    
C16   C237  S    
C40   C53   A    
C43   C70   A    
O15   Zn7   S    
C42   O65   S    
C89   C91   S    
C98   H117  S    
O30   Zn6   S    
C18   C239  S    
C102  H121  S    
C117  H161  S    
C125  H174  S    
C37   O60   S    
C99   H115  S    
C157  C176  A    
C173  C182  A    
C13   C161  A    
C144  H49   S    
O14   Zn8   S    
C137  C138  S    
C151  H67   S    
C9    C231  S    
C203  O33   A    
C204  O35   A    
C141  C142  S    
C26   O49   S    
C4    C21   S    
C48   C61   A    
C6    C23   S    
O23   Zn14  S    
C97   H108  S    
O24   Zn4   S    
C38   O61   S    
C200  C225  S    
C41   C54   A    
C68   C167  A    
C27   C49   A    
C94   H106  S    
C65   C66   A    
C206  O26   A    
C117  H162  S    
C166  C179  A    
C201  C224  S    
C154  H81   S    
C98   H118  S    
O17   Zn16  S    
C117  C135  S    
