data_mof_unit_51942.cif
_audit_creation_date              2012-12-10T19:04:12-0500
_audit_creation_method            fapswitch 2.2
_symmetry_space_group_name_H-M    P1
_symmetry_Int_Tables_number       1
_space_group_crystal_system       triclinic
_cell_length_a                    10.643285
_cell_length_b                    10.81853
_cell_length_c                    9.593683
_cell_angle_alpha                 89.847716
_cell_angle_beta                  90.009777
_cell_angle_gamma                 91.070219
_cell_volume                      1104.46512101

loop_
_atom_site_label
_atom_site_type_symbol
_atom_type_description
_atom_site_fract_x
_atom_site_fract_y
_atom_site_fract_z
_atom_type_partial_charge
C1    C     C_R   0.496341 0.262468 0.499867 0.797199
C2    C     C_3   0.959682 0.596994 0.433073 -0.171358
C3    C     C_3   0.040523 0.494246 0.367416 -0.207082
C4    C     C_3   0.123168 0.495065 0.499172 -0.056558
C5    C     C_R   0.445397 0.063705 0.616816 0.064064
C6    C     C_R   0.478775 0.129539 0.497379 -0.087147
C7    C     C_R   0.483864 0.064619 0.370965 -0.214156
C8    C     C_R   0.478895 0.935749 0.371601 -0.214786
C9    C     C_R   0.470004 0.870094 0.498317 -0.128370
C10   C     C_R   0.435693 0.936793 0.617343 0.078371
C11   C     C_3   0.467617 0.932077 0.769957 0.066847
C12   C     C_R   0.259711 0.498013 0.499817 0.792778
C13   C     C_3   0.485284 0.072584 0.764970 -0.494611
C14   C     C_R   0.610032 0.518168 0.072325 0.179772
C15   C     C_R   0.394953 0.468403 0.074283 -0.086685
C16   C     C_R   0.395159 0.467692 0.926019 -0.096895
C17   C     C_R   0.608673 0.517468 0.925352 0.169595
C18   C     C_3   0.696812 0.623229 0.909218 -0.520197
C19   C     C_3   0.701744 0.628348 0.068001 0.359475
C20   C     C_R   0.491689 0.737389 0.500052 0.784053
C21   C     C_R   0.740482 0.498286 0.500341 0.810015
C22   C     C_3   0.039658 0.394990 0.566269 0.186288
C23   C     C_3   0.955341 0.392911 0.435348 -0.159869
C24   C     C_3   0.877262 0.495600 0.501736 -0.056651
C25   C     C_3   0.959321 0.495559 0.634511 -0.163394
C26   C     C_3   0.042607 0.594519 0.563619 0.257979
Cu1   Cu    Cu3+1 0.499990 0.499980 0.640670 0.926836
Cu2   Cu    Cu3+1 0.500010 0.500020 0.359330 0.938276
H1    H     H_    0.916268 0.309259 0.382996 0.130634
H2    H     H_    0.554900 0.882338 0.795794 0.142205
H3    H     H_    0.417640 0.124998 0.829240 0.203958
H4    H     H_    0.585176 0.103074 0.775651 0.177935
H5    H     H_    0.309025 0.444471 0.128706 0.141739
H6    H     H_    0.309261 0.443655 0.871733 0.147752
H7    H     H_    0.784792 0.594275 0.859227 0.177919
H8    H     H_    0.652718 0.703507 0.858090 0.190205
H9    H     H_    0.929555 0.492846 0.744903 0.130019
H10   H     H_    0.923990 0.682080 0.383525 0.158459
H11   H     H_    0.077593 0.489637 0.259601 0.144635
H12   H     H_    0.499048 0.112174 0.272730 0.169563
H13   H     H_    0.489209 0.888960 0.273711 0.174490
N1    N     N_R   0.500800 0.500930 0.147930 -0.190308
N2    N     N_R   0.500800 0.500890 0.852020 -0.178406
O1    O     O_R   0.500000 0.319640 0.618810 -0.571848
O2    O     O_R   0.500010 0.319680 0.381230 -0.586762
O3    O     O_R   0.316850 0.499950 0.618770 -0.588801
O4    O     O_R   0.316860 0.499990 0.381190 -0.595974
O5    O     O_R   0.499990 0.680320 0.618770 -0.586755
O6    O     O_R   0.500000 0.680360 0.381190 -0.582181
O7    O     O_R   0.683140 0.500010 0.618810 -0.585632
O8    O     O_R   0.683150 0.500050 0.381230 -0.563721
N3    N     N_2   0.826313 0.599091 0.121182 -0.390305
H14   H     H_    0.853766 0.509806 0.101437 0.236718
C27   C     C_3   0.925404 0.690132 0.092978 -0.714249
H15   H     H_    0.016316 0.657532 0.133620 0.215586
H16   H     H_    0.905051 0.779066 0.144866 0.234120
H17   H     H_    0.936848 0.705752 0.979524 0.228170
C28   C     C_3   0.650940 0.748846 0.127289 -0.758985
H18   H     H_    0.547731 0.751984 0.113884 0.211929
H19   H     H_    0.676027 0.756785 0.239094 0.245689
H20   H     H_    0.693331 0.829807 0.072109 0.199717
C29   C     C_3   0.087036 0.280358 0.640161 -0.899859
H21   H     H_    0.005957 0.222596 0.675868 0.231021
H22   H     H_    0.145274 0.225966 0.567506 0.232328
H23   H     H_    0.144760 0.308017 0.731614 0.232678
N4    N     N_2   0.093678 0.703756 0.631245 -0.433770
H24   H     H_    0.167029 0.744396 0.576646 0.241968
C30   C     C_3   0.001479 0.792006 0.674998 -0.725047
H25   H     H_    0.047153 0.862448 0.743082 0.230509
H26   H     H_    0.924722 0.745413 0.734478 0.229232
H27   H     H_    0.961034 0.839144 0.582741 0.219159
N5    N     N_2   0.359426 0.897647 0.855399 -0.424151
H28   H     H_    0.277804 0.943771 0.832673 0.260007
C31   C     C_3   0.338893 0.767182 0.878520 -0.622322
H29   H     H_    0.263184 0.752859 0.956833 0.212811
H30   H     H_    0.425541 0.725583 0.919032 0.232940
H31   H     H_    0.310414 0.721068 0.780250 0.261191

loop_
_geom_bond_atom_site_label_1
_geom_bond_atom_site_label_2
_ccdc_geom_bond_type
Cu1   O5    S    
N4    C30   S    
Cu2   O4    S    
C13   H4    S    
C3    C23   S    
C7    C8    A    
C29   H21   S    
C31   H30   S    
C23   H1    S    
C5    C6    A    
Cu2   O8    S    
C28   H19   S    
C15   C16   A    
C18   C19   S    
C29   H22   S    
C9    C20   S    
C16   H6    S    
Cu1   O1    S    
C11   H2    S    
C30   H25   S    
C22   C25   S    
C7    H12   S    
C4    C12   S    
C18   H7    S    
C5    C13   S    
Cu1   O7    S    
C14   N1    A    
C25   H9    S    
C28   H20   S    
N4    H24   S    
C3    H11   S    
C14   C17   A    
C12   O4    A    
C19   N3    S    
C21   O7    A    
N3    C27   S    
C19   C28   S    
C27   H16   S    
Cu2   O2    S    
C31   H29   S    
C1    C6    S    
C26   N4    S    
C8    H13   S    
C12   O3    A    
C11   N5    S    
C8    C9    A    
C25   C26   S    
C31   H31   S    
C17   N2    A    
C20   O6    A    
C22   C29   S    
C4    C22   S    
Cu2   O6    S    
C2    H10   S    
C1    O1    A    
C23   C24   S    
C17   C18   S    
C2    C26   S    
C24   C25   S    
C16   N2    A    
C20   O5    A    
Cu1   O3    S    
N5    C31   S    
C2    C24   S    
C3    C4    S    
C21   O8    A    
N3    H14   S    
C9    C10   A    
C27   H15   S    
C29   H23   S    
C14   C19   S    
C13   H3    S    
C15   N1    A    
N5    H28   S    
C4    C26   S    
C6    C7    A    
C2    C3    S    
C28   H18   S    
C5    C10   A    
C11   C13   S    
C1    O2    A    
C30   H27   S    
Cu2   N1    S    
C10   C11   S    
Cu1   N2    S    
C30   H26   S    
C21   C24   S    
Cu1   Cu2   S    
C22   C23   S    
C18   H8    S    
C15   H5    S    
C27   H17   S    
