data_mof_unit_25509.cif
_audit_creation_date              2012-12-10T18:53:02-0500
_audit_creation_method            fapswitch 2.2
_symmetry_space_group_name_H-M    P1
_symmetry_Int_Tables_number       1
_space_group_crystal_system       triclinic
_cell_length_a                    9.837355
_cell_length_b                    10.712302
_cell_length_c                    16.660148
_cell_angle_alpha                 90.404504
_cell_angle_beta                  84.604539
_cell_angle_gamma                 90.345937
_cell_volume                      1747.81073862

loop_
_atom_site_label
_atom_site_type_symbol
_atom_type_description
_atom_site_fract_x
_atom_site_fract_y
_atom_site_fract_z
_atom_type_partial_charge
C1    C     C_R   0.500332 0.740130 0.499843 0.879577
C2    C     C_R   0.066576 0.590824 0.540019 -0.322297
C3    C     C_R   0.078261 0.410007 0.458554 0.531975
C4    C     C_R   0.921900 0.590695 0.540831 0.538419
C5    C     C_R   0.480479 0.500486 0.653436 0.907361
C6    C     C_R   0.519673 0.505697 0.346799 0.890090
C7    C     C_R   0.468370 0.521292 0.739813 -0.116069
C8    C     C_R   0.535305 0.542839 0.262870 -0.123976
C9    C     C_R   0.563721 0.468091 0.787015 0.471444
C10   C     C_R   0.451125 0.637006 0.235915 0.466061
C11   C     C_R   0.562362 0.507123 0.867716 -0.294930
C12   C     C_R   0.499702 0.259863 0.499933 0.871008
C13   C     C_R   0.478782 0.680834 0.156942 -0.282602
C14   C     C_R   0.473090 0.601595 0.898380 0.152113
C15   C     C_R   0.582559 0.626710 0.105057 0.150081
C16   C     C_R   0.375131 0.648612 0.851650 -0.175588
C17   C     C_R   0.668109 0.536950 0.133581 -0.172773
C18   C     C_R   0.372544 0.608467 0.772569 -0.296966
C19   C     C_R   0.645067 0.495646 0.212376 -0.285068
C20   C     C_2   0.473245 0.642975 0.981943 -0.207427
C21   C     C_2   0.588983 0.646087 0.018264 -0.214704
C22   C     C_3   0.774177 0.365187 0.785896 0.082766
C23   C     C_R   0.619545 0.937014 0.514019 -0.198359
C24   C     C_3   0.876069 0.300129 0.725358 -0.805211
C25   C     C_3   0.228212 0.708323 0.257218 0.079322
C26   C     C_3   0.115171 0.724782 0.325192 -0.789374
C27   C     C_3   0.148018 0.323348 0.336040 0.088909
C28   C     C_3   0.253862 0.236245 0.293800 -0.815009
C29   C     C_3   0.850118 0.682151 0.661464 0.077160
C30   C     C_3   0.744546 0.771498 0.701650 -0.805606
C31   C     C_R   0.380739 0.062964 0.484949 -0.198019
C32   C     C_R   0.619081 0.064816 0.514378 -0.193398
C33   C     C_R   0.381164 0.935132 0.484712 -0.177642
C34   C     C_R   0.499656 0.127422 0.499837 -0.016449
C35   C     C_R   0.500518 0.872546 0.499409 -0.014186
C36   C     C_R   0.933468 0.409210 0.459968 -0.322269
H1    H     H_    0.711591 0.425402 0.233729 0.158814
H2    H     H_    0.288066 0.110802 0.473205 0.202965
H3    H     H_    0.711570 0.114164 0.526428 0.166030
H4    H     H_    0.288654 0.885741 0.472830 0.166034
H5    H     H_    0.882254 0.335908 0.429299 0.167742
H6    H     H_    0.117853 0.664321 0.570476 0.166549
H7    H     H_    0.762361 0.308613 0.841835 0.148544
H8    H     H_    0.816874 0.458821 0.799333 0.111814
H9    H     H_    0.889710 0.354259 0.668502 0.247917
H10   H     H_    0.976273 0.292667 0.750528 0.204179
H11   H     H_    0.838748 0.204884 0.711880 0.256821
H12   H     H_    0.299980 0.650046 0.735734 0.165359
H13   H     H_    0.202067 0.625586 0.220499 0.116741
H14   H     H_    0.231187 0.793760 0.219631 0.141679
H15   H     H_    0.137094 0.807078 0.362878 0.251026
H16   H     H_    0.016064 0.739003 0.299790 0.203533
H17   H     H_    0.107292 0.640364 0.363422 0.244880
H18   H     H_    0.170467 0.419775 0.313566 0.150413
H19   H     H_    0.045626 0.293600 0.319674 0.121455
H20   H     H_    0.232328 0.138479 0.313072 0.249647
H21   H     H_    0.250645 0.242115 0.227489 0.200945
H22   H     H_    0.357650 0.263077 0.309032 0.251456
H23   H     H_    0.686773 0.633139 0.983098 0.141775
H24   H     H_    0.952347 0.710848 0.678655 0.120728
H25   H     H_    0.825216 0.586835 0.684597 0.162519
H26   H     H_    0.770069 0.868851 0.683034 0.245729
H27   H     H_    0.641484 0.747443 0.683966 0.256755
H28   H     H_    0.743144 0.764897 0.768222 0.204887
H29   H     H_    0.374465 0.654704 0.016127 0.142006
H30   H     H_    0.302788 0.718264 0.875868 0.138084
H31   H     H_    0.748719 0.494676 0.093796 0.129565
H32   H     H_    0.418976 0.755573 0.135108 0.127041
H33   H     H_    0.628371 0.462921 0.907281 0.122546
H34   H     H_    0.712278 0.889229 0.525653 0.205984
N1    N     N_R   0.142790 0.500030 0.500020 -0.124830
N2    N     N_R   0.857210 0.499970 0.499980 -0.125070
O1    O     O_R   0.385380 0.683250 0.500010 -0.620912
O2    O     O_3   0.354075 0.693292 0.290540 -0.601648
O3    O     O_3   0.154926 0.315738 0.420127 -0.595487
O4    O     O_3   0.845932 0.687193 0.577131 -0.597234
O5    O     O_R   0.614620 0.316750 0.499990 -0.630612
O6    O     O_R   0.614710 0.683220 0.500000 -0.575959
O7    O     O_R   0.385290 0.316780 0.500000 -0.572873
O8    O     O_R   0.371780 0.500040 0.615800 -0.632139
O9    O     O_R   0.628220 0.499960 0.384200 -0.625165
O10   O     O_R   0.601110 0.500010 0.615800 -0.566018
O11   O     O_R   0.398890 0.499990 0.384200 -0.557747
O12   O     O_3   0.647361 0.373107 0.752838 -0.611326
Zn1   Zn    Zn3+2 0.346870 0.500020 0.500000 0.995264
Zn2   Zn    Zn3+2 0.653130 0.499980 0.500000 0.991230

loop_
_geom_bond_atom_site_label_1
_geom_bond_atom_site_label_2
_ccdc_geom_bond_type
C30   H28   S    
C2    C4    A    
C4    N2    A    
C28   H20   S    
C27   H18   S    
C29   O4    S    
C28   H21   S    
C29   C30   S    
C24   H9    S    
C21   H23   S    
C11   C14   A    
C27   H19   S    
C12   O7    A    
C15   C17   A    
C25   O2    S    
C32   H3    S    
C25   H14   S    
C19   H1    S    
C17   C19   A    
N1    Zn1   S    
C22   H8    S    
C31   C33   A    
C3    O3    S    
O9    Zn2   S    
O6    Zn2   S    
C6    O9    A    
C30   H27   S    
C1    O6    A    
C23   H34   S    
C36   H5    S    
C27   O3    S    
C29   H25   S    
C17   H31   S    
C33   H4    S    
C8    C19   A    
C14   C20   S    
C20   H29   S    
C5    C7    S    
C6    C8    S    
C25   C26   S    
O10   Zn2   S    
C32   C34   A    
C3    N1    A    
O8    Zn1   S    
C26   H16   S    
C22   H7    S    
C29   H24   S    
C7    C18   A    
C12   O5    A    
C31   C34   A    
C5    O8    A    
C9    C11   A    
O1    Zn1   S    
C16   C18   A    
O11   Zn1   S    
O5    Zn2   S    
C23   C35   A    
C30   H26   S    
C14   C16   A    
C16   H30   S    
C12   C34   S    
C2    N1    A    
C26   H17   S    
O7    Zn1   S    
C1    C35   S    
C7    C9    A    
C6    O11   A    
C24   H11   S    
C10   C13   A    
C18   H12   S    
N2    Zn2   S    
C11   H33   S    
C28   H22   S    
C31   H2    S    
C24   H10   S    
C23   C32   A    
C13   C15   A    
C1    O1    A    
C26   H15   S    
C5    O10   A    
C10   O2    S    
C3    C36   A    
C2    H6    S    
C33   C35   A    
C22   C24   S    
C25   H13   S    
C4    O4    S    
C9    O12   S    
C15   C21   S    
C20   C21   D    
C8    C10   A    
C27   C28   S    
C36   N2    A    
C22   O12   S    
C13   H32   S    
