data_mof_unit_52371.cif
_audit_creation_date              2012-12-11T15:07:06-0500
_audit_creation_method            fapswitch 2.2
_symmetry_space_group_name_H-M    P1
_symmetry_Int_Tables_number       1
_space_group_crystal_system       triclinic
_cell_length_a                    19.664234
_cell_length_b                    11.363463
_cell_length_c                    18.714252
_cell_angle_alpha                 90.093773
_cell_angle_beta                  90.119814
_cell_angle_gamma                 89.89323
_cell_volume                      4181.74866095

loop_
_atom_site_label
_atom_site_type_symbol
_atom_type_description
_atom_site_fract_x
_atom_site_fract_y
_atom_site_fract_z
_atom_type_partial_charge
C1    C     C_R   0.760957 0.525227 0.639817 0.535322
C2    C     C_3   0.252708 0.059785 0.563966 0.065067
C3    C     C_R   0.739879 0.034677 0.151585 0.523505
C4    C     C_R   0.773833 0.131908 0.858533 0.531393
C5    C     C_R   0.226467 0.129711 0.142161 0.529145
C6    C     C_R   0.274486 0.633048 0.859122 0.531652
C7    C     C_R   0.725980 0.632026 0.141443 0.532509
C8    C     C_R   0.966555 0.354016 0.854784 0.532346
C9    C     C_R   0.031685 0.354074 0.146051 0.530047
C10   C     C_R   0.467136 0.854109 0.854522 0.531150
C11   C     C_R   0.533509 0.854306 0.145183 0.531722
C12   C     C_3   0.685135 0.127166 0.467109 -0.234215
C13   C     C_3   0.246528 0.556003 0.437359 0.067432
C14   C     C_3   0.308031 0.145931 0.537089 -0.243444
C15   C     C_3   0.185136 0.627167 0.467109 -0.234203
C16   C     C_3   0.808030 0.645932 0.537090 -0.243411
C17   C     C_3   0.687087 0.129863 0.549130 -0.239481
C18   C     C_3   0.306011 0.149877 0.455180 -0.232689
C19   C     C_3   0.187087 0.629863 0.549129 -0.239484
C20   C     C_3   0.806011 0.649878 0.455180 -0.232726
C21   C     C_3   0.759876 0.939597 0.480035 -0.215457
C22   C     C_3   0.255435 0.944585 0.519070 -0.224817
C23   C     C_3   0.259876 0.439598 0.480034 -0.215399
C24   C     C_3   0.752708 0.559786 0.563967 0.065201
C25   C     C_3   0.755434 0.444585 0.519071 -0.224790
C26   C     C_3   0.930496 0.950997 0.078628 -0.333885
C27   C     C_3   0.067584 0.951217 0.926909 -0.336871
C28   C     C_3   0.438371 0.474381 0.079538 -0.340297
C29   C     C_3   0.568118 0.454285 0.922483 -0.336347
C30   C     C_3   0.758183 0.087938 0.575427 0.065083
C31   C     C_3   0.239310 0.092472 0.426343 0.067438
C32   C     C_3   0.258184 0.587938 0.575426 0.064921
C33   C     C_3   0.739310 0.592472 0.426343 0.067299
C34   C     C_3   0.762919 0.957094 0.561189 -0.256741
C35   C     C_3   0.246750 0.961282 0.438152 -0.260041
C36   C     C_3   0.262920 0.457095 0.561188 -0.256751
C37   C     C_R   0.238554 0.523328 0.361050 0.535906
C38   C     C_3   0.746750 0.461282 0.438153 -0.260042
C39   C     C_3   0.813842 0.150190 0.531337 -0.218777
C40   C     C_3   0.175394 0.130432 0.469927 -0.214301
C41   C     C_3   0.313842 0.650191 0.531336 -0.218804
C42   C     C_3   0.675394 0.630432 0.469927 -0.214326
C43   C     C_3   0.007213 0.205018 0.460402 -0.232942
C44   C     C_3   0.006129 0.204942 0.543047 -0.241095
C45   C     C_3   0.507213 0.705017 0.460402 -0.232950
C46   C     C_3   0.506129 0.704941 0.543047 -0.241071
C47   C     C_3   0.063593 0.410180 0.474362 -0.210972
C48   C     C_R   0.260957 0.025226 0.639817 0.535670
C49   C     C_3   0.932240 0.384834 0.526456 -0.219389
C50   C     C_3   0.563593 0.910180 0.474362 -0.210984
C51   C     C_3   0.432240 0.884834 0.526456 -0.219320
C52   C     C_3   0.942529 0.387677 0.445305 -0.261746
C53   C     C_3   0.054865 0.403995 0.555295 -0.255989
C54   C     C_3   0.442528 0.887676 0.445305 -0.261750
C55   C     C_3   0.554866 0.903994 0.555295 -0.255986
C56   C     C_3   0.011634 0.333245 0.431547 0.065989
C57   C     C_3   0.991855 0.331786 0.570117 0.063116
C58   C     C_3   0.511633 0.833245 0.431546 0.065817
C59   C     C_R   0.738554 0.023327 0.361051 0.536597
C60   C     C_3   0.491856 0.831785 0.570118 0.063223
C61   C     C_3   0.813931 0.008112 0.044187 0.038905
C62   C     C_3   0.186415 0.001998 0.956432 0.039582
C63   C     C_3   0.319582 0.515723 0.046519 0.038675
C64   C     C_3   0.685447 0.508330 0.955600 0.038816
C65   C     C_R   0.772960 0.118653 0.650724 0.533857
C66   C     C_R   0.225511 0.122199 0.350925 0.537690
C67   C     C_R   0.272960 0.618654 0.650724 0.534390
C68   C     C_R   0.725510 0.622199 0.350925 0.538249
C69   C     C_3   0.820382 0.029847 0.965064 -0.177561
C70   C     C_3   0.808516 0.132509 0.450142 -0.259919
C71   C     C_3   0.182236 0.015474 0.036923 -0.180761
C72   C     C_3   0.324362 0.535406 0.966598 -0.175773
C73   C     C_3   0.679080 0.529842 0.034860 -0.176478
C74   C     C_3   0.684587 0.030727 0.031915 -0.244157
C75   C     C_3   0.316297 0.034833 0.967668 -0.241401
C76   C     C_3   0.193304 0.516531 0.032738 -0.243946
C77   C     C_3   0.814894 0.529945 0.968262 -0.243964
C78   C     C_3   0.756804 0.201896 0.061094 -0.260354
C79   C     C_3   0.239674 0.198190 0.939212 -0.253778
C80   C     C_3   0.253114 0.702549 0.061748 -0.254235
C81   C     C_3   0.184355 0.117664 0.550715 -0.253589
C82   C     C_3   0.742302 0.701874 0.939180 -0.260919
C83   C     C_3   0.749121 0.070175 0.074981 0.058447
C84   C     C_3   0.250323 0.068068 0.925402 0.059903
C85   C     C_3   0.252169 0.571297 0.076120 0.059423
C86   C     C_3   0.750406 0.570014 0.925069 0.059056
C87   C     C_3   0.759934 0.103189 0.935648 0.039916
C88   C     C_3   0.239144 0.098298 0.064925 0.036379
C89   C     C_3   0.261834 0.604388 0.936627 0.041186
C90   C     C_3   0.739482 0.603037 0.064348 0.039915
C91   C     C_3   0.696472 0.029023 0.949738 -0.277778
C92   C     C_3   0.308516 0.632510 0.450141 -0.259938
C93   C     C_3   0.306699 0.037874 0.049776 -0.271455
C94   C     C_3   0.200512 0.526248 0.950377 -0.275975
C95   C     C_3   0.802833 0.528554 0.050398 -0.277639
C96   C     C_3   0.749994 0.219512 0.979217 -0.222936
C97   C     C_3   0.237384 0.212910 0.021285 -0.223484
C98   C     C_3   0.248147 0.719301 0.980027 -0.221916
C99   C     C_3   0.749627 0.719327 0.021004 -0.222991
C100  C     C_3   0.997115 0.483041 0.042078 -0.228985
C101  C     C_3   0.990678 0.482591 0.961188 -0.223345
C102  C     C_3   0.506416 0.983536 0.039901 -0.222922
C103  C     C_3   0.684355 0.617665 0.550715 -0.253596
C104  C     C_3   0.494593 0.983305 0.959777 -0.223015
C105  C     C_3   0.067250 0.299017 0.025149 -0.220197
C106  C     C_3   0.937197 0.274192 0.974213 -0.202901
C107  C     C_3   0.564684 0.780159 0.024808 -0.208815
C108  C     C_3   0.436359 0.781127 0.975001 -0.205913
C109  C     C_3   0.945807 0.286792 0.055639 -0.251804
C110  C     C_3   0.056520 0.302991 0.943600 -0.263291
C111  C     C_3   0.443574 0.802413 0.056146 -0.259634
C112  C     C_3   0.557768 0.800524 0.943544 -0.262096
C113  C     C_R   0.970559 0.341750 0.645998 0.532724
C114  C     C_3   0.746528 0.056002 0.437360 0.067257
C115  C     C_R   0.031524 0.342309 0.355339 0.535424
C116  C     C_R   0.470560 0.841750 0.645998 0.532344
C117  C     C_R   0.531523 0.842309 0.355339 0.535908
C118  C     C_3   0.009804 0.355661 0.069536 0.046946
C119  C     C_3   0.986888 0.354401 0.931291 0.054591
C120  C     C_3   0.512820 0.855764 0.068704 0.048685
C121  C     C_3   0.488369 0.855307 0.930891 0.051480
C122  C     C_R   0.760039 0.534610 0.848436 0.522019
C123  C     C_R   0.240870 0.536388 0.152599 0.519437
C124  C     C_R   0.260068 0.034139 0.848579 0.520262
Cr1   Cr    Cr6+3 0.885690 0.492860 0.745310 0.989993
Cr2   Cr    Cr6+3 0.111880 0.178590 0.246990 0.987000
Cr3   Cr    Cr6+3 0.388120 0.678590 0.753010 0.986978
Cr4   Cr    Cr6+3 0.611880 0.678590 0.246990 0.986296
Cr5   Cr    Cr6+3 0.114310 0.492860 0.254690 0.990541
Cr6   Cr    Cr6+3 0.385690 0.992860 0.745310 0.989982
Cr7   Cr    Cr6+3 0.614310 0.992860 0.254690 0.990742
Cr8   Cr    Cr6+3 0.729880 0.332270 0.748190 0.987760
Cr9   Cr    Cr6+3 0.270120 0.332270 0.251810 0.988946
Cr10  Cr    Cr6+3 0.229880 0.832270 0.748190 0.988284
Cr11  Cr    Cr6+3 0.770120 0.832270 0.251810 0.988434
Cr12  Cr    Cr6+3 0.888120 0.178590 0.753010 0.987282
H1    H     H_    0.636811 0.095514 0.447391 0.132534
H2    H     H_    0.217736 0.880505 0.538046 0.131769
H3    H     H_    0.536989 0.030057 0.932890 0.115251
H4    H     H_    0.616221 0.788595 0.043795 0.111721
H5    H     H_    0.384395 0.789556 0.956221 0.111361
H6    H     H_    0.108413 0.354888 0.036907 0.113232
H7    H     H_    0.884868 0.285535 0.957741 0.110720
H8    H     H_    0.598828 0.857430 0.923007 0.106395
H9    H     H_    0.402559 0.858861 0.077135 0.105244
H10   H     H_    0.096303 0.356007 0.916684 0.101411
H11   H     H_    0.901729 0.332051 0.080161 0.102109
H12   H     H_    0.952742 0.200216 0.080574 0.157381
H13   H     H_    0.311562 0.410254 0.465017 0.127739
H14   H     H_    0.058017 0.214407 0.920424 0.151635
H15   H     H_    0.442819 0.721202 0.086445 0.158290
H16   H     H_    0.559606 0.717394 0.914033 0.147588
H17   H     H_    0.950900 0.182275 0.960796 0.136858
H18   H     H_    0.076442 0.207785 0.042545 0.146831
H19   H     H_    0.450843 0.688473 0.965694 0.138340
H20   H     H_    0.551116 0.687215 0.034580 0.136102
H21   H     H_    0.647976 0.071573 0.571375 0.109398
H22   H     H_    0.350609 0.101730 0.433733 0.107561
H23   H     H_    0.147977 0.571573 0.571374 0.109481
H24   H     H_    0.717735 0.380506 0.538047 0.131801
H25   H     H_    0.850609 0.601730 0.433734 0.107541
H26   H     H_    0.723843 0.869911 0.465929 0.109187
H27   H     H_    0.306046 0.914601 0.526822 0.109383
H28   H     H_    0.223844 0.369912 0.465928 0.109193
H29   H     H_    0.806045 0.414601 0.526824 0.109396
H30   H     H_    0.720925 0.909191 0.587993 0.098590
H31   H     H_    0.291201 0.926188 0.408294 0.099799
H32   H     H_    0.220926 0.409191 0.587992 0.098714
H33   H     H_    0.791201 0.426188 0.408295 0.099909
H34   H     H_    0.855028 0.088740 0.429432 0.122177
H35   H     H_    0.811880 0.922680 0.582650 0.128096
H36   H     H_    0.143417 0.060746 0.572530 0.130589
H37   H     H_    0.355028 0.588740 0.429430 0.122132
H38   H     H_    0.643417 0.560747 0.572531 0.130538
H39   H     H_    0.803543 0.218112 0.422108 0.101000
H40   H     H_    0.181314 0.204719 0.577619 0.098449
H41   H     H_    0.303543 0.718112 0.422107 0.100860
H42   H     H_    0.681314 0.704719 0.577619 0.098345
H43   H     H_    0.804448 0.240677 0.543732 0.110721
H44   H     H_    0.158113 0.219088 0.455683 0.111865
H45   H     H_    0.304449 0.740678 0.543731 0.110685
H46   H     H_    0.201169 0.913169 0.418614 0.122120
H47   H     H_    0.658113 0.719088 0.455683 0.111861
H48   H     H_    0.873653 0.082457 0.128699 0.271168
H49   H     H_    0.978908 0.989756 0.098117 0.139856
H50   H     H_    0.938427 0.918701 0.023231 0.130521
H51   H     H_    0.916730 0.875782 0.113546 0.158041
H52   H     H_    0.124832 0.076545 0.874091 0.271765
H53   H     H_    0.019068 0.993080 0.910089 0.140893
H54   H     H_    0.061333 0.917693 0.982179 0.130757
H55   H     H_    0.078682 0.876202 0.890582 0.153964
H56   H     H_    0.374170 0.589035 0.133702 0.271227
H57   H     H_    0.311881 0.422680 0.582648 0.128111
H58   H     H_    0.484610 0.518918 0.100236 0.145267
H59   H     H_    0.447847 0.447305 0.023456 0.131661
H60   H     H_    0.428582 0.394935 0.112454 0.152754
H61   H     H_    0.626073 0.580458 0.870362 0.271739
H62   H     H_    0.519610 0.495503 0.905060 0.140465
H63   H     H_    0.561669 0.420976 0.977783 0.129252
H64   H     H_    0.579989 0.379265 0.886440 0.156909
H65   H     H_    0.701169 0.413169 0.418614 0.122209
H66   H     H_    0.046648 0.148993 0.438821 0.132204
H67   H     H_    0.969338 0.139880 0.562843 0.127084
H68   H     H_    0.546648 0.648993 0.438820 0.132198
H69   H     H_    0.359731 0.123910 0.555356 0.128067
H70   H     H_    0.469338 0.639879 0.562844 0.127075
H71   H     H_    0.960044 0.163020 0.440472 0.107063
H72   H     H_    0.055326 0.175242 0.564289 0.111229
H73   H     H_    0.460044 0.663019 0.440472 0.107048
H74   H     H_    0.555326 0.675241 0.564289 0.111161
H75   H     H_    0.616278 0.892588 0.458725 0.111070
H76   H     H_    0.392281 0.824929 0.537767 0.109382
H77   H     H_    0.116279 0.392588 0.458725 0.111093
H78   H     H_    0.892281 0.324928 0.537766 0.109362
H79   H     H_    0.600395 0.864486 0.581066 0.098242
H80   H     H_    0.136811 0.595515 0.447391 0.132553
H81   H     H_    0.401845 0.838280 0.417074 0.099943
H82   H     H_    0.100395 0.364487 0.581066 0.098351
H83   H     H_    0.901845 0.338282 0.417074 0.099978
H84   H     H_    0.940633 0.479755 0.425548 0.122376
H85   H     H_    0.047879 0.494216 0.577192 0.130570
H86   H     H_    0.440632 0.979753 0.425547 0.122404
H87   H     H_    0.547879 0.994215 0.577192 0.130507
H88   H     H_    0.919960 0.474228 0.544704 0.139157
H89   H     H_    0.051311 0.502362 0.460437 0.131911
H90   H     H_    0.419961 0.974228 0.544704 0.139160
H91   H     H_    0.859731 0.623911 0.555357 0.128087
H92   H     H_    0.551310 0.002361 0.460437 0.131899
H93   H     H_    0.806088 0.915254 0.051984 0.153787
H94   H     H_    0.193702 0.910509 0.944312 0.157022
H95   H     H_    0.316935 0.421530 0.054611 0.153643
H96   H     H_    0.693085 0.415401 0.947340 0.154687
H97   H     H_    0.687055 0.218701 0.446757 0.106532
H98   H     H_    0.298189 0.233874 0.559366 0.111574
H99   H     H_    0.187056 0.718702 0.446756 0.106471
H100  H     H_    0.798189 0.733874 0.559366 0.111543
H101  H     H_    0.868566 0.073489 0.954226 0.164112
H102  H     H_    0.864687 0.122312 0.548973 0.134905
H103  H     H_    0.130962 0.047550 0.051048 0.166047
H104  H     H_    0.371568 0.579432 0.953723 0.159243
H105  H     H_    0.630740 0.573268 0.046156 0.163494
H106  H     H_    0.823833 0.943876 0.936670 0.090260
H107  H     H_    0.186328 0.928536 0.063030 0.084226
H108  H     H_    0.328384 0.448370 0.939367 0.089226
H109  H     H_    0.675988 0.443747 0.062950 0.090080
H110  H     H_    0.663640 0.948826 0.051784 0.114755
H111  H     H_    0.337092 0.951155 0.949650 0.113642
H112  H     H_    0.197879 0.426163 0.047679 0.100649
H113  H     H_    0.135250 0.066704 0.455428 0.128446
H114  H     H_    0.836305 0.447756 0.948424 0.114301
H115  H     H_    0.704103 0.938033 0.930248 0.108408
H116  H     H_    0.305338 0.947764 0.071846 0.105208
H117  H     H_    0.207905 0.438413 0.925701 0.108020
H118  H     H_    0.796163 0.437579 0.070117 0.109513
H119  H     H_    0.716729 0.252332 0.089733 0.104021
H120  H     H_    0.281928 0.250823 0.916207 0.103140
H121  H     H_    0.209236 0.744366 0.089078 0.107607
H122  H     H_    0.782067 0.752412 0.910404 0.103382
H123  H     H_    0.806286 0.233826 0.080643 0.122380
H124  H     H_    0.364687 0.622312 0.548972 0.134891
H125  H     H_    0.192174 0.230268 0.914012 0.118127
H126  H     H_    0.300315 0.742674 0.082997 0.122010
H127  H     H_    0.692407 0.734016 0.920235 0.125241
H128  H     H_    0.780921 0.291488 0.959820 0.100188
H129  H     H_    0.190599 0.252528 0.035600 0.113313
H130  H     H_    0.279458 0.792510 0.962230 0.098108
H131  H     H_    0.719399 0.792061 0.040825 0.099763
H132  H     H_    0.696341 0.244554 0.970027 0.114814
H133  H     H_    0.281460 0.263050 0.037879 0.115935
H134  H     H_    0.194101 0.740943 0.969721 0.115926
H135  H     H_    0.635250 0.566703 0.455428 0.128438
H136  H     H_    0.803388 0.743765 0.029956 0.113871
H137  H     H_    0.645887 0.099113 0.042396 0.125018
H138  H     H_    0.354145 0.103412 0.954609 0.125865
H139  H     H_    0.144525 0.555015 0.049841 0.135166
H140  H     H_    0.853286 0.598599 0.958175 0.124848
H141  H     H_    0.673067 0.218697 0.568014 0.134783
H142  H     H_    0.313245 0.239015 0.435800 0.139211
H143  H     H_    0.173067 0.718697 0.568013 0.134781
H144  H     H_    0.813245 0.739015 0.435800 0.139183
H145  H     H_    0.651860 0.066487 0.921214 0.115194
H146  H     H_    0.811562 0.910253 0.465017 0.127718
H147  H     H_    0.349152 0.086424 0.075666 0.118716
H148  H     H_    0.153755 0.564958 0.926544 0.115028
H149  H     H_    0.846382 0.567714 0.079380 0.114706
H150  H     H_    0.037900 0.544862 0.057047 0.129237
H151  H     H_    0.947956 0.536648 0.944824 0.132027
H152  H     H_    0.550687 0.036373 0.052722 0.130364
H153  H     H_    0.449765 0.035666 0.947462 0.131148
H154  H     H_    0.950822 0.519725 0.066725 0.115030
H155  H     H_    0.035309 0.528696 0.937915 0.114233
H156  H     H_    0.463724 0.030228 0.066685 0.116125
N1    N     N_2   0.877207 0.039247 0.080373 -0.537790
N2    N     N_2   0.122040 0.036822 0.923448 -0.537742
N3    N     N_2   0.380737 0.553941 0.083345 -0.542198
N4    N     N_2   0.622203 0.540489 0.919568 -0.538393
O1    O     O_R   0.957210 0.449410 0.665480 -0.534420
O2    O     O_R   0.167480 0.095300 0.164000 -0.539904
O3    O     O_R   0.332520 0.595300 0.836000 -0.539659
O4    O     O_R   0.667480 0.595300 0.164000 -0.539675
O5    O     O_R   0.946380 0.253940 0.826940 -0.517148
O6    O     O_R   0.053620 0.253940 0.173060 -0.516384
O7    O     O_R   0.446380 0.753940 0.826940 -0.517151
O8    O     O_R   0.553620 0.753940 0.173060 -0.517440
O9    O     O_3   0.834560 0.334570 0.748840 -0.270341
O10   O     O_3   0.165440 0.334570 0.251160 -0.270449
O11   O     O_3   0.334560 0.834570 0.748840 -0.270392
O12   O     O_R   0.042790 0.449410 0.334520 -0.534299
O13   O     O_3   0.665440 0.834570 0.251160 -0.273075
O14   O     O_R   0.820730 0.541240 0.668250 -0.514684
O15   O     O_R   0.179270 0.541240 0.331750 -0.515923
O16   O     O_R   0.320730 0.041240 0.668250 -0.514495
O17   O     O_R   0.679270 0.041240 0.331750 -0.515588
O18   O     O_R   0.714240 0.455060 0.663710 -0.535050
O19   O     O_R   0.285760 0.455060 0.336290 -0.534931
O20   O     O_R   0.214240 0.955060 0.663710 -0.534716
O21   O     O_R   0.785760 0.955060 0.336290 -0.534633
O22   O     O_R   0.736780 0.204870 0.675910 -0.515343
O23   O     O_R   0.457210 0.949410 0.665480 -0.534644
O24   O     O_R   0.263220 0.204870 0.324090 -0.516563
O25   O     O_R   0.236780 0.704870 0.675910 -0.514956
O26   O     O_R   0.763220 0.704870 0.324090 -0.516511
O27   O     O_R   0.833070 0.087590 0.673490 -0.530942
O28   O     O_R   0.166930 0.087590 0.326510 -0.531232
O29   O     O_R   0.333070 0.587590 0.673490 -0.530789
O30   O     O_R   0.666930 0.587590 0.326510 -0.530802
O31   O     O_R   0.946890 0.246800 0.676300 -0.511861
O32   O     O_R   0.053110 0.246800 0.323700 -0.513585
O33   O     O_R   0.446890 0.746800 0.676300 -0.512091
O34   O     O_R   0.542790 0.949410 0.334520 -0.533952
O35   O     O_R   0.553110 0.746800 0.323700 -0.513244
O36   O     O_R   0.956650 0.457120 0.827980 -0.531532
O37   O     O_R   0.043350 0.457120 0.172020 -0.530073
O38   O     O_R   0.456650 0.957120 0.827980 -0.531206
O39   O     O_R   0.543350 0.957120 0.172020 -0.530301
O40   O     O_R   0.820220 0.548390 0.818890 -0.510163
O41   O     O_R   0.179780 0.548390 0.181110 -0.509629
O42   O     O_R   0.320220 0.048390 0.818890 -0.509520
O43   O     O_R   0.679780 0.048390 0.181110 -0.510123
O44   O     O_R   0.713680 0.462770 0.826210 -0.528481
O45   O     O_R   0.736260 0.212010 0.826560 -0.509486
O46   O     O_R   0.286320 0.462770 0.173790 -0.530352
O47   O     O_R   0.213680 0.962770 0.826210 -0.531224
O48   O     O_R   0.786320 0.962770 0.173790 -0.526384
O49   O     O_R   0.263740 0.212010 0.173440 -0.508611
O50   O     O_R   0.236260 0.712010 0.826560 -0.509625
O51   O     O_R   0.763740 0.712010 0.173440 -0.509458
O52   O     O_R   0.832520 0.095300 0.836000 -0.540105

loop_
_geom_bond_atom_site_label_1
_geom_bond_atom_site_label_2
_ccdc_geom_bond_type
C105  C110  S    
C87   C91   S    
C107  C112  S    
C50   H92   S    
C115  O12   A    
C101  H155  S    
C74   C83   S    
C75   H111  S    
C90   C95   S    
C4    C87   S    
C37   O19   A    
C55   H87   S    
C59   O17   A    
C26   H49   S    
C69   H106  S    
C73   H109  S    
C53   H85   S    
Cr2   O28   S    
C99   H136  S    
C36   H32   S    
C28   H59   S    
Cr8   O18   S    
C89   C94   S    
C100  H154  S    
C76   C94   S    
C40   H44   S    
C5    C88   S    
Cr9   O49   S    
C78   C96   S    
C29   H63   S    
C2    C22   S    
C44   H67   S    
C78   H123  S    
C26   N1    S    
Cr5   O37   S    
Cr8   O9    S    
C88   C97   S    
C47   C53   S    
C23   H13   S    
C63   C85   S    
C17   C30   S    
Cr3   O33   S    
C76   H112  S    
C19   C32   S    
C29   N4    S    
C116  O23   A    
C109  C118  S    
Cr4   O4    S    
C4    O45   A    
C37   O15   A    
C81   H40   S    
Cr12  O5    S    
C9    O37   A    
C110  H14   S    
C46   H74   S    
C41   H124  S    
C5    O2    A    
Cr12  O52   S    
C44   C57   S    
C16   C20   S    
C106  H17   S    
C63   N3    S    
C64   N4    S    
C20   C33   S    
C97   H129  S    
C80   H121  S    
H56   N3    S    
C49   H88   S    
C3    C83   S    
C105  C118  S    
C107  C120  S    
C65   O22   A    
C75   C93   S    
C38   H33   S    
C46   C60   S    
C79   C97   S    
Cr11  O48   S    
C65   O27   A    
H48   N1    S    
C33   C38   S    
C108  C111  S    
Cr11  O51   S    
C108  H19   S    
C62   N2    S    
C85   C123  S    
C103  H38   S    
C2    C14   S    
Cr11  O13   S    
C71   C88   S    
Cr6   O23   S    
C23   C36   S    
Cr12  O31   S    
C18   C31   S    
C76   C85   S    
H52   N2    S    
C34   H35   S    
C67   O29   A    
C96   H132  S    
C1    O14   A    
C82   H122  S    
C7    O51   A    
C42   C103  S    
Cr6   O16   S    
Cr11  O26   S    
Cr7   O13   S    
C33   C42   S    
C32   C36   S    
C73   C90   S    
C6    O3    A    
C45   H68   S    
C55   H79   S    
C79   C84   S    
C75   C84   S    
C100  H150  S    
C107  H4    S    
C49   C57   S    
C101  H151  S    
C102  H152  S    
C62   H94   S    
Cr4   O35   S    
C68   O26   A    
C32   C41   S    
C17   H21   S    
C96   H128  S    
C67   O25   A    
C1    O18   A    
C9    C118  S    
C109  H11   S    
C11   C120  S    
C78   C83   S    
C12   C114  S    
C12   H97   S    
C30   C34   S    
Cr8   O22   S    
C80   H126  S    
C68   O30   A    
C105  H6    S    
C57   C113  S    
C7    C90   S    
C58   C117  S    
C45   H73   S    
Cr4   O13   S    
C76   H139  S    
C4    O52   A    
C66   O28   A    
C25   C38   S    
C115  O32   A    
C51   H90   S    
C32   C67   S    
C123  O41   A    
C60   C116  S    
Cr2   O32   S    
C90   C99   S    
C63   H95   S    
C23   H28   S    
C104  H153  S    
C46   H70   S    
C62   C84   S    
C8    O5    A    
C52   H83   S    
C113  O1    A    
C21   H26   S    
Cr10  O50   S    
C20   H144  S    
C2    C81   S    
C110  C119  S    
C77   C86   S    
C39   H43   S    
C77   H114  S    
C89   C98   S    
C24   C103  S    
C9    O6    A    
C26   H50   S    
C97   H133  S    
C11   O8    A    
C98   H130  S    
C100  C101  S    
C28   H60   S    
C30   C39   S    
C48   O20   A    
Cr1   O9    S    
Cr9   O10   S    
Cr6   O42   S    
C30   C65   S    
C92   H41   S    
Cr3   O3    S    
C1    C24   S    
C29   H62   S    
C51   C60   S    
C110  H10   S    
C17   H141  S    
C33   C68   S    
C47   C56   S    
C106  C109  S    
C19   H143  S    
C106  C119  S    
C82   C99   S    
C72   H108  S    
Cr1   O40   S    
C14   H98   S    
C108  C121  S    
Cr5   O15   S    
C106  H7    S    
C91   H115  S    
C7    O4    A    
C15   C19   S    
C11   O39   A    
C3    O43   A    
C74   H110  S    
Cr6   O11   S    
C31   C40   S    
Cr12  O27   S    
C48   O16   A    
C117  O35   A    
C51   H76   S    
C12   C17   S    
C86   C122  S    
C61   H93   S    
C79   H120  S    
C112  H16   S    
C27   H54   S    
C69   C87   S    
C93   H116  S    
C55   C60   S    
C41   H45   S    
C64   C86   S    
C108  H5    S    
C2    C48   S    
C45   C58   S    
C43   H71   S    
C50   C58   S    
C61   C83   S    
C94   H117  S    
C10   O7    A    
C64   H96   S    
C53   C57   S    
Cr11  O21   S    
C21   C34   S    
C25   H29   S    
C82   C86   S    
Cr5   O41   S    
C49   H78   S    
Cr10  O25   S    
C98   H134  S    
C71   H103  S    
C74   C91   S    
C21   H146  S    
C80   C85   S    
C18   H22   S    
Cr1   O1    S    
Cr5   O10   S    
Cr2   O6    S    
C49   C52   S    
C99   H131  S    
C43   H66   S    
C10   O38   A    
C95   H118  S    
Cr2   O2    S    
C61   N1    S    
C13   C92   S    
C79   H125  S    
Cr4   O30   S    
C100  C118  S    
C78   H119  S    
C122  O40   A    
C8    O36   A    
C102  C120  S    
C54   H81   S    
C102  H156  S    
C123  O46   A    
Cr8   O45   S    
C80   C98   S    
C15   H80   S    
C22   H2    S    
C74   H137  S    
C104  H3    S    
C19   H23   S    
C103  H42   S    
C70   H34   S    
C71   H107  S    
C95   H149  S    
C59   C114  S    
Cr9   O46   S    
C47   H77   S    
C56   C115  S    
C59   O21   A    
Cr4   O8    S    
C112  C121  S    
C73   H105  S    
C63   C72   S    
C14   H69   S    
C15   H99   S    
Cr1   O14   S    
C34   H30   S    
C66   O24   A    
C31   C66   S    
C16   H91   S    
C22   H27   S    
C14   C18   S    
C43   C44   S    
C10   C121  S    
C70   C114  S    
C35   H46   S    
C22   C35   S    
C13   C23   S    
Cr3   O29   S    
Cr2   O10   S    
C111  H9    S    
Cr3   O7    S    
Cr5   O12   S    
C54   H86   S    
C16   H100  S    
C44   H72   S    
C81   H36   S    
C42   H135  S    
C36   H57   S    
C3    O48   A    
C18   H142  S    
Cr12  O9    S    
C38   H65   S    
C47   H89   S    
C62   C71   S    
C35   H31   S    
C72   H104  S    
Cr1   O36   S    
C91   H145  S    
C70   H39   S    
C13   C37   S    
C107  H20   S    
Cr7   O39   S    
C29   H64   S    
C105  H18   S    
H61   N4    S    
Cr3   O11   S    
C16   C24   S    
C77   H140  S    
C27   H55   S    
C25   H24   S    
C52   H84   S    
C101  C119  S    
C24   C25   S    
Cr7   O34   S    
C104  C121  S    
C77   C95   S    
C5    O49   A    
C111  C120  S    
Cr10  O11   S    
C26   H51   S    
C28   H58   S    
C64   C73   S    
C87   C96   S    
C42   H47   S    
C102  C104  S    
C124  O42   A    
C50   H75   S    
C13   C15   S    
C75   H138  S    
C109  H12   S    
C27   N2    S    
Cr10  O20   S    
C93   H147  S    
C94   H148  S    
C54   C58   S    
C61   C69   S    
C53   H82   S    
C88   C93   S    
C40   C81   S    
Cr10  O47   S    
Cr9   O24   S    
C21   C114  S    
C124  O47   A    
C111  H15   S    
Cr6   O38   S    
C92   H37   S    
C84   C124  S    
C6    C89   S    
C50   C55   S    
Cr8   O44   S    
C51   C54   S    
C112  H8    S    
C116  O33   A    
C113  O31   A    
C40   H113  S    
C20   H25   S    
Cr7   O17   S    
C39   C70   S    
C31   C35   S    
Cr7   O43   S    
C122  O44   A    
C117  O34   A    
C45   C46   S    
C43   C56   S    
C41   C92   S    
C8    C119  S    
C82   H127  S    
Cr9   O19   S    
C12   H1    S    
C72   C89   S    
C27   H53   S    
C28   N3    S    
C6    O50   A    
C69   H101  S    
C39   H102  S    
C52   C56   S    
