data_mof_unit_34342.cif
_audit_creation_date              2012-12-11T16:29:23-0500
_audit_creation_method            fapswitch 2.2
_symmetry_space_group_name_H-M    P1
_symmetry_Int_Tables_number       1
_space_group_crystal_system       triclinic
_cell_length_a                    6.9755
_cell_length_b                    17.317749
_cell_length_c                    18.78202
_cell_angle_alpha                 106.176142
_cell_angle_beta                  90.045953
_cell_angle_gamma                 91.000513
_cell_volume                      2178.67211047

loop_
_atom_site_label
_atom_site_type_symbol
_atom_type_description
_atom_site_fract_x
_atom_site_fract_y
_atom_site_fract_z
_atom_type_partial_charge
O1    O     O_R   0.494360 0.415680 0.413760 -0.518860
O2    O     O_R   0.818810 0.432910 0.557230 -0.553971
O3    O     O_R   0.994290 0.584320 0.586240 -0.551002
C1    C     C_R   0.649949 0.415955 0.580505 0.695546
O4    O     O_R   0.823740 0.406440 0.412520 -0.530500
O5    O     O_R   0.999250 0.557660 0.440500 -0.506402
C2    C     C_R   0.653429 0.384323 0.384659 0.797978
O6    O     O_R   0.489400 0.442340 0.559500 -0.519333
O7    O     O_3   0.662500 0.549650 0.509350 -0.345003
V1    V     V_3+5 0.935340 0.490790 0.498270 1.448387
O8    O     O_R   0.329270 0.567090 0.442770 -0.503812
C3    C     C_R   0.161291 0.583925 0.419340 0.747879
O9    O     O_R   0.324340 0.593560 0.587480 -0.529766
C4    C     C_R   0.157266 0.614536 0.616399 0.737304
V2    V     V_3+5 0.435970 0.509210 0.501730 1.514771
O10   O     O_3   0.158940 0.450350 0.490650 -0.384389
H1    H     H_    0.294790 0.862566 0.555439 0.133236
C5    C     C_R   0.141417 0.587166 0.763852 0.393284
C6    C     C_R   0.095894 0.572129 0.830883 -0.230099
C7    C     C_R   0.028347 0.632022 0.889389 -0.294970
C8    C     C_R   0.016974 0.712096 0.885795 0.405008
C9    C     C_R   0.083612 0.731536 0.820158 -0.062489
C10   C     C_R   0.125589 0.666471 0.756078 -0.054800
C11   C     C_R   0.112210 0.813075 0.816662 -0.176472
C12   C     C_R   0.156950 0.828313 0.746984 -0.016255
C13   C     C_R   0.174700 0.761894 0.682201 0.018762
C14   C     C_R   0.153761 0.681884 0.686253 -0.117938
C15   C     C_R   0.179577 0.908123 0.738726 0.392354
C16   C     C_R   0.239487 0.918177 0.670036 -0.195362
C17   C     C_R   0.254495 0.853250 0.608141 -0.185142
C18   C     C_R   0.218451 0.776385 0.613429 -0.141847
H2    H     H_    0.116180 0.513181 0.838483 0.152347
H3    H     H_    0.995140 0.614745 0.938915 0.158165
H4    H     H_    0.272224 0.977080 0.663645 0.118038
H5    H     H_    0.231321 0.728280 0.562762 0.096724
C19   C     C_1   0.111744 0.864031 0.132684 -0.233358
C20   C     C_1   0.119236 0.821153 0.175993 -0.008867
C21   C     C_1   0.128668 0.770655 0.227649 0.027637
C22   C     C_1   0.136750 0.728271 0.271392 0.054892
C23   C     C_1   0.146219 0.678120 0.323359 0.077119
C24   C     C_1   0.153708 0.635705 0.367082 -0.122944
C25   C     C_1   0.642554 0.364297 0.632800 -0.213147
C26   C     C_1   0.639580 0.322136 0.676796 -0.014648
C27   C     C_1   0.635300 0.272721 0.729387 -0.007827
C28   C     C_1   0.631560 0.230997 0.773719 -0.009343
C29   C     C_1   0.628196 0.180955 0.825840 -0.010291
C30   C     C_1   0.624474 0.137686 0.868876 -0.189863
H6    H     H_    0.470173 0.134500 0.438848 0.111546
C31   C     C_R   0.688798 0.417098 0.237578 0.287871
C32   C     C_R   0.745911 0.430366 0.170508 0.380895
C33   C     C_R   0.788273 0.366377 0.110694 -0.231600
C34   C     C_R   0.764592 0.287606 0.113758 0.296366
C35   C     C_R   0.689190 0.269985 0.178435 -0.038599
C36   C     C_R   0.670804 0.336333 0.244197 -0.107339
C37   C     C_R   0.630917 0.190272 0.180181 -0.126541
C38   C     C_R   0.583234 0.176336 0.249121 0.066638
C39   C     C_R   0.591522 0.240388 0.315694 0.061476
C40   C     C_R   0.637284 0.319764 0.313599 -0.133030
C41   C     C_R   0.532713 0.098075 0.253552 -0.147407
C42   C     C_R   0.491738 0.083594 0.321285 -0.117484
C43   C     C_R   0.501328 0.146052 0.386250 -0.111617
C44   C     C_R   0.550988 0.223485 0.383868 -0.145574
H7    H     H_    0.843750 0.378344 0.060832 0.204062
H8    H     H_    0.526216 0.046757 0.205035 0.094711
H9    H     H_    0.453591 0.023397 0.323368 0.114635
H10   H     H_    0.556016 0.269829 0.436181 0.078175
O11   O     O_R   0.775690 0.057750 0.940570 -0.503250
O12   O     O_R   0.441200 0.093570 0.087490 -0.539378
O13   O     O_R   0.265840 0.942320 0.059480 -0.537153
C45   C     C_R   0.613140 0.120900 0.111458 0.765335
O14   O     O_R   0.446270 0.067110 0.942790 -0.522599
O15   O     O_R   0.270950 0.915660 0.913750 -0.535253
C46   C     C_R   0.615244 0.084137 0.919541 0.776053
O16   O     O_R   0.770580 0.084400 0.086300 -0.509573
O17   O     O_3   0.602640 0.950400 0.990690 -0.382386
V3    V     V_3+5 0.329740 0.009200 0.001730 1.506391
O18   O     O_R   0.940900 0.906360 0.912450 -0.522383
C47   C     C_R   0.108346 0.881659 0.885995 0.880818
O19   O     O_R   0.935830 0.932820 0.057160 -0.530629
C48   C     C_R   0.103895 0.916223 0.080791 0.734074
V4    V     V_3+5 0.829130 0.990680 0.998180 1.508638
O20   O     O_3   0.106100 0.049590 0.009310 -0.326799
Cl1   Cl    Cl    0.625542 0.504920 0.307400 -0.592521
Cl2   Cl    Cl    0.775013 0.527954 0.159714 -0.583280
Cl3   Cl    Cl    0.868626 0.218511 0.038131 -0.664229
O21   O     O_3   0.233868 0.527665 0.710921 -0.583756
C49   C     C_3   0.111055 0.460019 0.682533 0.093591
H11   H     H_    0.126924 0.443809 0.621735 0.190145
H12   H     H_    0.955968 0.472414 0.694040 0.083203
C50   C     C_3   0.170447 0.388277 0.710125 -0.335312
H13   H     H_    0.317387 0.398631 0.733801 0.226862
H14   H     H_    0.072594 0.382340 0.755035 0.178262
C51   C     C_3   0.163390 0.309416 0.647771 -0.791591
H15   H     H_    0.014612 0.294581 0.627223 0.230105
H16   H     H_    0.217066 0.259634 0.668205 0.230222
H17   H     H_    0.254789 0.313919 0.600690 0.227319
O22   O     O_3   0.951190 0.772900 0.945892 -0.586221
C52   C     C_3   0.810586 0.748905 0.990571 0.089889
H18   H     H_    0.773270 0.802955 0.035489 0.158164
H19   H     H_    0.867841 0.707432 0.020612 0.123715
C53   C     C_3   0.623285 0.717659 0.948588 -0.349548
H20   H     H_    0.570789 0.762425 0.921025 0.206759
H21   H     H_    0.646589 0.660112 0.905456 0.200559
C54   C     C_3   0.470998 0.703758 0.002201 -0.766566
H22   H     H_    0.435117 0.761435 0.043221 0.226558
H23   H     H_    0.522558 0.660736 0.031846 0.255862
H24   H     H_    0.339554 0.678200 0.971124 0.240725
O23   O     O_3   0.158282 0.975034 0.799362 -0.588478
C55   C     C_3   0.058549 0.038523 0.782623 0.046982
H25   H     H_    0.940109 0.054796 0.822358 0.157459
H26   H     H_    0.990057 0.023076 0.726661 0.099202
C56   C     C_3   0.193743 0.111194 0.794399 -0.293229
H27   H     H_    0.248390 0.126681 0.852128 0.228459
H28   H     H_    0.315463 0.095603 0.755392 0.183407
C57   C     C_3   0.097055 0.185138 0.783635 -0.808178
H29   H     H_    0.018081 0.170363 0.730037 0.229776
H30   H     H_    0.207425 0.232217 0.784313 0.234994
H31   H     H_    0.999349 0.210074 0.830479 0.260872

loop_
_geom_bond_atom_site_label_1
_geom_bond_atom_site_label_2
_ccdc_geom_bond_type
C37   C38   A    
C51   H15   S    
C6    C7    A    
O15   V3    S    
C54   H23   S    
V4    O20   S    
C39   C40   A    
C32   Cl2   S    
C39   C44   A    
O18   C47   A    
C38   C39   A    
C12   C15   A    
C41   H8    S    
C5    O21   S    
C50   C51   S    
C15   C16   A    
C20   C21   S    
C55   H26   S    
O5    C3    A    
C17   C18   A    
C31   C36   A    
C52   H18   S    
O14   C46   A    
O23   C55   S    
O13   V3    S    
C5    C6    A    
C54   H22   S    
O15   C47   A    
O8    V2    S    
C57   H30   S    
C45   O16   A    
C19   C20   T    
O11   C46   A    
C10   C14   A    
C4    C14   S    
O7    V1    S    
C2    C40   S    
C1    O6    A    
C13   C18   A    
C51   H16   S    
O9    C4    A    
H1    C17   S    
C6    H2    S    
C56   H28   S    
C56   H27   S    
O22   C52   S    
C35   C37   A    
C21   C22   T    
C44   H10   S    
C33   C34   A    
C53   H20   S    
C33   H7    S    
C11   C12   A    
C30   C46   S    
C19   C48   S    
C55   C56   S    
V3    O20   S    
C22   C23   S    
O19   V4    S    
O21   C49   S    
O17   V4    S    
C12   C13   A    
C28   C29   S    
C16   H4    S    
C5    C10   A    
C42   C43   A    
O2    C1    A    
O17   V3    S    
C16   C17   A    
C8    O22   S    
C50   H14   S    
O18   V4    S    
C57   H31   S    
C32   C33   A    
C13   C14   A    
O3    C4    A    
O1    V2    S    
C7    H3    S    
C11   C47   S    
C23   C24   T    
C42   H9    S    
O11   V4    S    
O6    V2    S    
C52   H19   S    
C49   H12   S    
C26   C27   S    
C18   H5    S    
O12   V3    S    
C25   C26   T    
O16   V4    S    
O2    V1    S    
C34   C35   A    
C3    C24   S    
O4    C2    A    
C36   C40   A    
C29   C30   T    
C34   Cl3   S    
O1    C2    A    
C27   C28   T    
O5    V1    S    
O8    C3    A    
C35   C36   A    
C51   H17   S    
C52   C53   S    
C38   C41   A    
C31   Cl1   S    
O9    V2    S    
O7    V2    S    
O4    V1    S    
O3    V1    S    
V1    O10   S    
C55   H25   S    
C50   H13   S    
O14   V3    S    
C1    C25   S    
C15   O23   S    
C9    C11   A    
C56   C57   S    
C43   C44   A    
C37   C45   S    
O19   C48   A    
C41   C42   A    
C7    C8    A    
C49   H11   S    
C53   H21   S    
C31   C32   A    
C49   C50   S    
H6    C43   S    
O12   C45   A    
C9    C10   A    
O13   C48   A    
C53   C54   S    
C57   H29   S    
C8    C9    A    
C54   H24   S    
V2    O10   S    
