data_mof_unit_60393.cif
_audit_creation_date              2012-12-10T17:27:37-0500
_audit_creation_method            fapswitch 2.2
_symmetry_space_group_name_H-M    P1
_symmetry_Int_Tables_number       1
_space_group_crystal_system       triclinic
_cell_length_a                    42.710778
_cell_length_b                    29.424448
_cell_length_c                    29.419237
_cell_angle_alpha                 90.0
_cell_angle_beta                  133.959871
_cell_angle_gamma                 90.001274
_cell_volume                      26613.6739349

loop_
_atom_site_label
_atom_site_type_symbol
_atom_type_description
_atom_site_fract_x
_atom_site_fract_y
_atom_site_fract_z
_atom_type_partial_charge
C1    C     C_R   0.499954 0.585484 0.499971 0.823842
C2    C     C_R   0.499957 0.414516 0.499975 0.824272
C3    C     C_R   0.999956 0.085484 0.499973 0.824142
C4    C     C_R   0.999955 0.914516 0.499972 0.823958
C5    C     C_3   0.204089 0.500221 0.201781 0.029351
C6    C     C_3   0.704088 0.999928 0.201779 0.029354
C7    C     C_3   0.230738 0.502070 0.184226 -0.025623
C8    C     C_3   0.730739 0.999236 0.184194 -0.025624
C9    C     C_1   0.335462 0.500387 0.332725 -0.043133
C10   C     C_1   0.835461 0.999862 0.332722 -0.043124
C11   C     C_1   0.158324 0.500092 0.157445 -0.095645
C12   C     C_1   0.658323 0.999973 0.157444 -0.095647
C13   C     C_1   0.499912 0.636532 0.499896 -0.206879
C14   C     C_1   0.499921 0.363468 0.499905 -0.206228
C15   C     C_1   0.999918 0.136532 0.499901 -0.206415
C16   C     C_1   0.999916 0.863468 0.499899 -0.206702
C17   C     C_1   0.499890 0.678853 0.499862 0.001474
C18   C     C_1   0.499901 0.321146 0.499875 0.002080
C19   C     C_1   0.999897 0.178854 0.499870 0.001924
C20   C     C_1   0.999895 0.821146 0.499867 0.001635
C21   C     C_1   0.499885 0.729020 0.499858 0.003174
C22   C     C_1   0.499897 0.270980 0.499873 0.003596
C23   C     C_1   0.999892 0.229020 0.499867 0.003506
C24   C     C_1   0.999890 0.770980 0.499865 0.003268
C25   C     C_1   0.499895 0.771342 0.499878 0.003271
C26   C     C_1   0.499906 0.228658 0.499891 0.003560
C27   C     C_1   0.999901 0.271342 0.499885 0.003517
C28   C     C_1   0.999901 0.728658 0.499884 0.003313
C29   C     C_1   0.499919 0.821509 0.499916 0.002741
C30   C     C_1   0.499927 0.178491 0.499925 0.002955
C31   C     C_1   0.999922 0.321509 0.499920 0.002940
C32   C     C_1   0.999923 0.678491 0.499921 0.002753
C33   C     C_1   0.499939 0.863832 0.499950 -0.199108
C34   C     C_1   0.499944 0.136168 0.499956 -0.198950
C35   C     C_1   0.999940 0.363832 0.499952 -0.198950
C36   C     C_1   0.999943 0.636168 0.499954 -0.199113
C37   C     C_R   0.418351 0.499990 0.418424 0.862949
C38   C     C_R   0.918351 0.000002 0.418424 0.862929
C39   C     C_1   0.635096 0.500000 0.634879 -0.203571
C40   C     C_1   0.135096 1.000000 0.634879 -0.203570
C41   C     C_1   0.676570 0.499999 0.676347 0.013743
C42   C     C_1   0.176569 0.999999 0.676347 0.013744
C43   C     C_1   0.726143 0.499999 0.725970 0.001755
C44   C     C_1   0.226143 0.999999 0.725970 0.001756
C45   C     C_1   0.767618 0.499999 0.767503 0.001770
C46   C     C_1   0.267618 0.999999 0.767503 0.001771
C47   C     C_1   0.817191 0.499998 0.817152 0.013795
C48   C     C_1   0.317191 0.999998 0.817152 0.013795
C49   C     C_1   0.858665 0.499998 0.858688 -0.204504
C50   C     C_1   0.358665 0.999998 0.858688 -0.204504
C51   C     C_R   0.994859 0.500000 0.080464 0.825006
C52   C     C_R   0.494858 1.000000 0.080464 0.825007
C53   C     C_R   0.075412 0.500001 0.076145 0.869698
C54   C     C_R   0.575412 0.000000 0.076147 0.869702
C55   C     C_R   0.993301 0.500000 0.907867 0.825932
C56   C     C_R   0.493301 1.000000 0.907868 0.825939
C57   C     C_R   0.909159 0.499999 0.909247 0.812934
C58   C     C_R   0.409159 0.999999 0.909247 0.812935
C59   C     C_R   0.584604 0.500000 0.584541 0.809843
C60   C     C_R   0.084604 1.000000 0.584541 0.809842
C61   C     C_R   0.499035 1.000000 0.413990 0.815720
C62   C     C_R   0.999035 0.500000 0.413990 0.815719
C63   C     C_R   0.499955 0.914881 0.499981 0.815392
C64   C     C_R   0.499956 0.085119 0.499982 0.815463
C65   C     C_R   0.999955 0.414881 0.499981 0.815472
C66   C     C_R   0.999956 0.585119 0.499982 0.815381
C67   C     C_R   0.500815 1.000000 0.585947 0.815173
C68   C     C_R   0.000815 0.500000 0.585947 0.815172
C69   C     C_1   0.995585 0.500001 0.132228 -0.206545
C70   C     C_1   0.495585 1.000000 0.132228 -0.206534
C71   C     C_1   0.996189 0.500001 0.175150 0.003706
C72   C     C_1   0.496189 1.000000 0.175150 0.003719
C73   C     C_1   0.996891 0.500001 0.226009 0.005858
C74   C     C_1   0.496890 0.999999 0.226009 0.005869
C75   C     C_1   0.497464 0.999999 0.268901 0.005476
C76   C     C_1   0.997464 0.500001 0.268901 0.005467
C77   C     C_1   0.498108 1.000000 0.319703 0.004230
C78   C     C_1   0.998108 0.500001 0.319703 0.004223
C79   C     C_1   0.498592 1.000000 0.362507 -0.198214
C80   C     C_1   0.998592 0.500001 0.362507 -0.198219
C81   C     C_1   0.994420 0.500002 0.857926 -0.210809
C82   C     C_1   0.494420 0.999999 0.857926 -0.210808
C83   C     C_3   0.233492 0.536773 0.253024 -0.047026
C84   C     C_3   0.233583 0.462121 0.250078 -0.047233
C85   C     C_3   0.733555 0.037570 0.251012 -0.047173
C86   C     C_3   0.733518 0.962866 0.252112 -0.047085
C87   C     C_1   0.995657 0.500004 0.816848 -0.002218
C88   C     C_1   0.495658 0.999999 0.816849 -0.002232
C89   C     C_1   0.997234 0.500005 0.768265 0.000497
C90   C     C_1   0.497235 0.999998 0.768266 0.000485
C91   C     C_1   0.498523 0.999998 0.727240 0.001909
C92   C     C_1   0.998522 0.500004 0.727240 0.001912
C93   C     C_1   0.499877 0.999999 0.678424 0.002105
C94   C     C_1   0.999877 0.500003 0.678424 0.002106
C95   C     C_1   0.500680 0.999999 0.636895 -0.199919
C96   C     C_1   0.000680 0.500002 0.636895 -0.199919
C97   C     C_3   0.260484 0.538614 0.235905 -0.072207
C98   C     C_3   0.260569 0.463966 0.232953 -0.072149
C99   C     C_3   0.760545 0.036878 0.233859 -0.072173
C100  C     C_3   0.760509 0.962178 0.234960 -0.072185
C101  C     C_1   0.373545 0.500198 0.373151 -0.183704
C102  C     C_1   0.873545 0.999929 0.373150 -0.183712
C103  C     C_1   0.120191 0.500019 0.120254 -0.231238
C104  C     C_1   0.620191 0.999997 0.120255 -0.231239
C105  C     C_3   0.263152 0.498680 0.301243 0.245439
C106  C     C_3   0.763151 0.000505 0.301268 0.245432
C107  C     C_3   0.289710 0.500514 0.283878 0.010598
C108  C     C_3   0.789710 0.999818 0.283872 0.010599
Cu1   Cu    Cu3+1 0.500480 0.500000 0.542990 0.979569
Cu2   Cu    Cu3+1 0.000480 0.000000 0.542990 0.979584
Cu3   Cu    Cu3+1 0.499450 0.500000 0.457010 0.947905
Cu4   Cu    Cu3+1 0.999450 0.000000 0.457010 0.947908
Cu5   Cu    Cu3+1 0.993800 0.542460 0.993900 0.952615
Cu6   Cu    Cu3+1 0.993800 0.457540 0.993900 0.952769
Cu7   Cu    Cu3+1 0.493800 0.042460 0.993900 0.952766
Cu8   Cu    Cu3+1 0.493800 0.957540 0.993900 0.952607
Cu9   Cu    Cu3+1 0.458020 1.000000 0.458050 0.959359
Cu10  Cu    Cu3+1 0.958020 0.500000 0.458050 0.959359
Cu11  Cu    Cu3+1 0.541920 0.000000 0.541950 0.962970
Cu12  Cu    Cu3+1 0.041920 0.500000 0.541950 0.962964
O1    O     O_R   0.500410 0.561970 0.536310 -0.558458
O2    O     O_R   0.500410 0.438030 0.536310 -0.558121
O3    O     O_R   0.000410 0.061970 0.536310 -0.558226
O4    O     O_R   0.000410 0.938030 0.536310 -0.558349
O5    O     O_R   0.932590 0.535860 0.932690 -0.556427
O6    O     O_R   0.932590 0.464140 0.932690 -0.556413
O7    O     O_R   0.432590 0.035860 0.932690 -0.556394
O8    O     O_R   0.432590 0.964140 0.932690 -0.556446
O9    O     O_R   0.463790 1.000000 0.401850 -0.559480
O10   O     O_R   0.963790 0.500000 0.401850 -0.559478
O11   O     O_R   0.534640 0.000000 0.472710 -0.557104
O12   O     O_R   0.034640 0.500000 0.472710 -0.557108
O13   O     O_R   0.464530 0.938000 0.464560 -0.559306
O14   O     O_R   0.464530 0.062000 0.464560 -0.559234
O15   O     O_R   0.964530 0.438000 0.464560 -0.559259
O16   O     O_R   0.964530 0.562000 0.464560 -0.559277
O17   O     O_R   0.535390 0.937990 0.535420 -0.557986
O18   O     O_R   0.535390 0.062010 0.535420 -0.557972
O19   O     O_R   0.035390 0.437990 0.535420 -0.557940
O20   O     O_R   0.035390 0.562010 0.535420 -0.558022
O21   O     O_R   0.465290 0.000000 0.527290 -0.558322
O22   O     O_R   0.965290 0.500000 0.527290 -0.558324
O23   O     O_R   0.536150 1.000000 0.598150 -0.559136
O24   O     O_R   0.036150 0.500000 0.598150 -0.559132
O25   O     O_R   0.499540 0.561910 0.463710 -0.564714
O26   O     O_R   0.499540 0.438090 0.463710 -0.564864
O27   O     O_R   0.999540 0.061910 0.463710 -0.564804
O28   O     O_R   0.999540 0.938090 0.463710 -0.564781
O29   O     O_R   0.439190 0.500000 0.475090 -0.558019
O30   O     O_R   0.939190 0.000000 0.475090 -0.558003
O31   O     O_R   0.438320 0.500000 0.402480 -0.591969
O32   O     O_R   0.938320 0.000000 0.402480 -0.591966
O33   O     O_R   0.561610 0.500000 0.597520 -0.557092
O34   O     O_R   0.061610 0.000000 0.597520 -0.557092
O35   O     O_R   0.560740 0.500000 0.524910 -0.557402
O36   O     O_R   0.060740 0.000000 0.524910 -0.557400
O37   O     O_R   0.994560 0.535840 0.056620 -0.563157
O38   O     O_R   0.994560 0.464160 0.056620 -0.562833
O39   O     O_R   0.494560 0.035840 0.056620 -0.562935
O40   O     O_R   0.494560 0.964160 0.056620 -0.563066
O41   O     O_R   0.055010 0.535850 0.055100 -0.580336
O42   O     O_R   0.055010 0.464150 0.055100 -0.580464
O43   O     O_R   0.555010 0.035850 0.055100 -0.580424
O44   O     O_R   0.555010 0.964150 0.055100 -0.580381
O45   O     O_R   0.993040 0.535870 0.931160 -0.561254
O46   O     O_R   0.993040 0.464130 0.931160 -0.561098
O47   O     O_R   0.493040 0.035870 0.931160 -0.561115
O48   O     O_R   0.493040 0.964130 0.931160 -0.561229
C109  C     C_R   0.271165 0.582508 0.222381 0.113510
C110  C     C_R   0.237089 0.612305 0.176793 -0.118054
C111  C     C_R   0.245653 0.653096 0.162819 -0.132059
C112  C     C_R   0.288284 0.664446 0.193995 -0.106250
C113  C     C_R   0.322354 0.634923 0.239018 -0.135676
C114  C     C_R   0.313914 0.594070 0.253134 -0.162474
H1    H     H_    0.203833 0.603890 0.152070 0.131629
H2    H     H_    0.219218 0.675879 0.127759 0.130683
H3    H     H_    0.294906 0.696031 0.183131 0.127116
H4    H     H_    0.355362 0.643636 0.262906 0.132860
H5    H     H_    0.340856 0.571826 0.287498 0.135335
C115  C     C_R   0.271318 0.422232 0.215971 0.113596
C116  C     C_R   0.237309 0.393285 0.168219 -0.117991
C117  C     C_R   0.245928 0.354513 0.151010 -0.131893
C118  C     C_R   0.288546 0.344375 0.181072 -0.106401
C119  C     C_R   0.322544 0.373105 0.228212 -0.135649
C120  C     C_R   0.314049 0.411937 0.245570 -0.162342
H6    H     H_    0.204060 0.400795 0.144314 0.131414
H7    H     H_    0.219546 0.332362 0.114304 0.130722
H8    H     H_    0.295211 0.314359 0.167699 0.127060
H9    H     H_    0.355538 0.365360 0.251224 0.132818
H10   H     H_    0.340929 0.433676 0.281485 0.136078
C121  C     C_R   0.771275 0.079320 0.217944 0.113578
C122  C     C_R   0.737246 0.108547 0.170856 -0.118001
C123  C     C_R   0.745850 0.147980 0.154646 -0.131936
C124  C     C_R   0.788474 0.158515 0.185056 -0.106342
C125  C     C_R   0.822495 0.129524 0.231548 -0.135654
C126  C     C_R   0.814014 0.090029 0.247905 -0.162386
H11   H     H_    0.703993 0.100741 0.146695 0.131484
H12   H     H_    0.719451 0.170340 0.118444 0.130724
H13   H     H_    0.795128 0.189046 0.172458 0.127093
H14   H     H_    0.855495 0.137585 0.254835 0.132846
H15   H     H_    0.840914 0.068124 0.283346 0.135843
C127  C     C_R   0.771209 0.918929 0.220332 0.113536
C128  C     C_R   0.737154 0.889376 0.174067 -0.118042
C129  C     C_R   0.745734 0.849189 0.159059 -0.132015
C130  C     C_R   0.788360 0.838212 0.189864 -0.106303
C131  C     C_R   0.822407 0.867509 0.235547 -0.135676
C132  C     C_R   0.813951 0.907757 0.250699 -0.162433
H16   H     H_    0.703902 0.897513 0.149617 0.131563
H17   H     H_    0.719315 0.826586 0.123485 0.130680
H18   H     H_    0.794994 0.807096 0.178198 0.127080
H19   H     H_    0.855409 0.859094 0.259142 0.132831
H20   H     H_    0.840874 0.929861 0.285544 0.135559
C133  C     C_R   0.223689 0.578704 0.271113 0.134594
C134  C     C_R   0.258269 0.607370 0.318524 -0.082941
C135  C     C_R   0.250566 0.646651 0.336203 -0.125820
C136  C     C_R   0.208290 0.657658 0.306954 -0.106558
C137  C     C_R   0.173717 0.629318 0.260109 -0.135672
C138  C     C_R   0.181287 0.589994 0.242241 -0.137472
H21   H     H_    0.291272 0.599328 0.341707 0.145472
H22   H     H_    0.277395 0.668549 0.372604 0.134206
H23   H     H_    0.202329 0.688076 0.320671 0.129526
H24   H     H_    0.140970 0.637789 0.237635 0.134186
H25   H     H_    0.153886 0.568821 0.206345 0.143629
C139  C     C_R   0.223891 0.418027 0.264773 0.134376
C140  C     C_R   0.258549 0.388548 0.309919 -0.082922
C141  C     C_R   0.250950 0.347303 0.324416 -0.125791
C142  C     C_R   0.208700 0.335107 0.294212 -0.106622
C143  C     C_R   0.174047 0.364214 0.249599 -0.135532
C144  C     C_R   0.181515 0.405506 0.234918 -0.137804
H26   H     H_    0.291533 0.397490 0.333795 0.145313
H27   H     H_    0.277840 0.324805 0.359090 0.134217
H28   H     H_    0.202819 0.303167 0.305465 0.129509
H29   H     H_    0.141320 0.354804 0.226384 0.134187
H30   H     H_    0.154054 0.427189 0.200675 0.144449
C145  C     C_R   0.723829 0.081020 0.266785 0.134450
C146  C     C_R   0.758466 0.110257 0.312664 -0.082918
C147  C     C_R   0.750836 0.150919 0.328171 -0.125795
C148  C     C_R   0.708575 0.162763 0.298254 -0.106602
C149  C     C_R   0.673944 0.133885 0.252916 -0.135573
C150  C     C_R   0.681442 0.093177 0.237225 -0.137735
H31   H     H_    0.791457 0.101581 0.336331 0.145374
H32   H     H_    0.777709 0.173238 0.363403 0.134218
H33   H     H_    0.702670 0.194252 0.310288 0.129515
H34   H     H_    0.641208 0.143018 0.229923 0.134190
H35   H     H_    0.653997 0.071648 0.202442 0.144202
C151  C     C_R   0.723747 0.920228 0.269157 0.134518
C152  C     C_R   0.758349 0.891283 0.315856 -0.082939
C153  C     C_R   0.750677 0.851360 0.332557 -0.125813
C154  C     C_R   0.708410 0.839978 0.303031 -0.106586
C155  C     C_R   0.673814 0.868583 0.256890 -0.135634
C156  C     C_R   0.681354 0.908551 0.240002 -0.137555
H36   H     H_    0.791346 0.899609 0.339240 0.145416
H37   H     H_    0.777523 0.829255 0.368414 0.134207
H38   H     H_    0.702473 0.809062 0.315991 0.129519
H39   H     H_    0.641074 0.859817 0.234202 0.134185
H40   H     H_    0.653937 0.929904 0.204629 0.143888
C157  C     C_R   0.217804 0.504038 0.121521 0.122876
C158  C     C_R   0.250805 0.505558 0.121700 -0.111188
C159  C     C_R   0.240402 0.507363 0.065024 -0.132611
C160  C     C_R   0.196939 0.507661 0.007507 -0.104546
C161  C     C_R   0.163867 0.506147 0.006670 -0.136760
C162  C     C_R   0.174151 0.504341 0.063302 -0.160553
H41   H     H_    0.284699 0.505335 0.165910 0.129050
H42   H     H_    0.266062 0.508526 0.065725 0.129949
H43   H     H_    0.188882 0.509055 0.963602 0.128346
H44   H     H_    0.130168 0.506364 0.962040 0.134482
H45   H     H_    0.147769 0.503184 0.060662 0.137692
C163  C     C_R   0.717806 0.998500 0.121456 0.122879
C164  C     C_R   0.750808 0.997932 0.121607 -0.111186
C165  C     C_R   0.740407 0.997256 0.064902 -0.132612
C166  C     C_R   0.696943 0.997145 0.007383 -0.104540
C167  C     C_R   0.663870 0.997712 0.006573 -0.136764
C168  C     C_R   0.674153 0.998387 0.063234 -0.160559
H46   H     H_    0.784703 0.998015 0.165820 0.129053
H47   H     H_    0.766067 0.996822 0.065582 0.129951
H48   H     H_    0.688887 0.996624 0.963455 0.128352
H49   H     H_    0.630171 0.997631 0.961941 0.134489
H50   H     H_    0.647770 0.998821 0.060616 0.137683
Br1   Br    Br    0.286954 0.496229 0.386428 -0.515715
Br2   Br    Br    0.786950 0.001421 0.386493 -0.515714

loop_
_geom_bond_atom_site_label_1
_geom_bond_atom_site_label_2
_ccdc_geom_bond_type
C112  H3    S    
C52   O40   A    
Cu4   O36   S    
C128  C129  A    
C58   O8    A    
C167  H49   S    
C40   C60   S    
C7    C98   S    
Cu11  O23   S    
C109  C110  A    
C14   C18   T    
C10   C108  S    
C158  H41   S    
Cu12  O24   S    
C8    C163  S    
Cu9   O13   S    
C139  C140  A    
C164  C165  A    
Cu9   Cu11  S    
C59   O33   A    
C61   O11   A    
C97   C109  S    
C138  H25   S    
C39   C41   T    
C64   O18   A    
C130  C131  A    
C146  C147  A    
C15   C19   T    
C99   C108  S    
C105  C107  S    
C124  C125  A    
C154  C155  A    
C68   C96   S    
C6    C85   S    
C58   O7    A    
C164  H46   S    
C85   C99   S    
C63   O13   A    
C62   C80   S    
Cu10  O10   S    
C56   O47   A    
C8    C99   S    
C76   C78   S    
C34   C64   S    
C12   C104  T    
C134  H21   S    
Cu1   Cu3   S    
C6    C12   S    
C161  C162  A    
C5    C83   S    
C98   C115  S    
C84   C139  S    
C53   O42   A    
Cu6   O42   S    
Cu5   O5    S    
C110  C111  A    
C35   C65   S    
C123  H12   S    
C4    O28   A    
C29   C33   T    
C137  H24   S    
C160  H43   S    
C49   C57   S    
C119  C120  A    
C4    O4    A    
C157  C158  A    
C145  C150  A    
C45   C47   S    
C144  H30   S    
C69   C71   T    
C62   O10   A    
C117  C118  A    
Cu6   O38   S    
C140  H26   S    
C22   C26   T    
Cu5   Cu6   S    
Cu2   Cu4   S    
Cu2   O4    S    
C116  C117  A    
C136  H23   S    
C100  C127  S    
C131  H19   S    
C149  C150  A    
C44   C46   T    
C167  C168  A    
C99   C121  S    
C129  H17   S    
Cu11  O11   S    
C145  C146  A    
Cu4   O32   S    
C68   O22   A    
C149  H34   S    
Cu12  O20   S    
C23   C27   T    
C54   O43   A    
C55   C81   S    
C86   C100  S    
C41   C43   S    
C90   C91   T    
C16   C20   T    
C151  C156  A    
C52   O39   A    
C40   C42   T    
C142  H28   S    
Cu7   O7    S    
C67   O23   A    
C154  H38   S    
C86   C151  S    
C9    C101  T    
C18   C22   S    
C147  C148  A    
C153  H37   S    
C67   C95   S    
C63   O17   A    
C60   O34   A    
C86   C106  S    
C42   C44   S    
C121  C122  A    
C37   O31   A    
C166  C167  A    
C2    C14   S    
Cu9   O14   S    
C38   O32   A    
C143  C144  A    
C83   C133  S    
C3    O3    A    
Cu6   O46   S    
C1    O1    A    
C110  H1    S    
C2    O2    A    
C25   C29   S    
C166  H48   S    
C46   C48   S    
C33   C63   S    
C100  C108  S    
C127  C128  A    
C30   C34   T    
C27   C31   S    
C157  C162  A    
Cu11  O17   S    
C64   O14   A    
C20   C24   S    
C120  H10   S    
C136  C137  A    
C47   C49   T    
C159  H42   S    
C74   C75   T    
Cu3   O26   S    
Cu8   O48   S    
C57   O6    A    
C5    C7    S    
C5    C84   S    
C59   O35   A    
C131  C132  A    
C125  C126  A    
C6    C8    S    
Cu1   O33   S    
Cu2   O30   S    
C155  C156  A    
C133  C134  A    
C148  H33   S    
C51   O37   A    
C17   C21   S    
C98   C107  S    
Cu4   O28   S    
Cu10  O16   S    
Cu7   O39   S    
C50   C58   S    
C146  H31   S    
C4    C16   S    
C123  C124  A    
C19   C23   S    
C118  C119  A    
C60   O36   A    
C118  H8    S    
Cu2   O34   S    
C62   O12   A    
Cu2   O3    S    
C91   C93   S    
C43   C45   T    
C36   C66   S    
C142  C143  A    
C28   C32   S    
Cu1   O29   S    
C109  C114  A    
C39   C59   S    
C56   O48   A    
C92   C94   S    
C140  C141  A    
C77   C79   T    
C66   O20   A    
Cu12  O19   S    
C65   O15   A    
C122  H11   S    
C129  C130  A    
C89   C92   T    
C94   C96   T    
C48   C50   T    
C75   C77   S    
C111  C112  A    
C143  H29   S    
C81   C87   T    
C56   C82   S    
C66   O16   A    
C147  H32   S    
C72   C74   S    
C88   C90   S    
C26   C30   S    
C135  H22   S    
C127  C132  A    
C87   C89   S    
C5    C11   S    
C83   C97   S    
C132  H20   S    
C105  Br1   S    
C73   C76   T    
C31   C35   T    
C7    C157  S    
C106  Br2   S    
C1    O25   A    
C55   O45   A    
Cu7   Cu8   S    
Cu7   O47   S    
C159  C160  A    
C67   O21   A    
C32   C36   T    
C162  H45   S    
Cu9   O9    S    
C153  C154  A    
C71   C73   S    
C125  H14   S    
C111  H2    S    
C54   C104  S    
C155  H39   S    
C21   C25   T    
C151  C152  A    
C7    C97   S    
Cu12  O12   S    
Cu11  O18   S    
C165  H47   S    
Cu8   O44   S    
C152  H36   S    
C85   C106  S    
C24   C28   T    
C163  C168  A    
C37   O29   A    
C160  C161  A    
Cu10  O22   S    
Cu3   O31   S    
C70   C72   T    
C116  H6    S    
Cu10  O15   S    
Cu8   O40   S    
Cu5   O45   S    
C61   O9    A    
C2    O26   A    
C128  H16   S    
C51   O38   A    
C168  H50   S    
C6    C86   S    
Cu4   O27   S    
C13   C17   T    
C133  C138  A    
C54   O44   A    
C122  C123  A    
Cu3   O25   S    
C158  C159  A    
C137  C138  A    
C84   C98   S    
C161  H44   S    
C38   C102  S    
Cu7   O43   S    
C3    O27   A    
C57   O5    A    
C37   C101  S    
C53   O41   A    
C156  H40   S    
C150  H35   S    
C106  C108  S    
C113  H4    S    
C61   C79   S    
C82   C88   T    
C84   C105  S    
C134  C135  A    
C10   C102  T    
C148  C149  A    
C38   O30   A    
C9    C107  S    
C68   O24   A    
C78   C80   T    
C117  H7    S    
C85   C145  S    
C8    C100  S    
Cu1   O2    S    
C65   O19   A    
Cu10  Cu12  S    
C52   C70   S    
C115  C120  A    
C130  H18   S    
Cu5   O41   S    
C112  C113  A    
C97   C107  S    
C124  H13   S    
C83   C105  S    
C135  C136  A    
C1    C13   S    
C163  C164  A    
C93   C95   T    
C141  C142  A    
Cu8   O8    S    
C121  C126  A    
Cu6   O6    S    
Cu9   O21   S    
C53   C103  S    
C3    C15   S    
C11   C103  T    
Cu1   O1    S    
C51   C69   S    
C55   O46   A    
Cu5   O37   S    
C126  H15   S    
C139  C144  A    
C113  C114  A    
Cu3   O35   S    
C114  H5    S    
C119  H9    S    
C165  C166  A    
C115  C116  A    
C141  H27   S    
C152  C153  A    
