data_mof_unit_66910.cif
_audit_creation_date              2013-03-05T15:57:26-0500
_audit_creation_method            fapswitch 2.2
_symmetry_space_group_name_H-M    P1
_symmetry_Int_Tables_number       1
_space_group_crystal_system       triclinic
_cell_length_a                    17.052559
_cell_length_b                    18.743888
_cell_length_c                    8.375315
_cell_angle_alpha                 90.0
_cell_angle_beta                  101.748838
_cell_angle_gamma                 89.890382
_cell_volume                      2620.92297316

loop_
_atom_site_label
_atom_site_type_symbol
_atom_site_description
_atom_site_fract_x
_atom_site_fract_y
_atom_site_fract_z
_atom_type_partial_charge
P1    P     P_3+3 0.834140 0.419320 0.003900 0.466847
P2    P     P_3+3 0.834140 0.580680 0.503900 0.464265
P3    P     P_3+3 0.334140 0.919320 0.003900 0.467851
P4    P     P_3+3 0.334140 0.080680 0.503900 0.463770
O1    O     O_2   0.841960 0.394640 0.833410 -0.381481
O2    O     O_2   0.841960 0.605360 0.333410 -0.376644
O3    O     O_2   0.341960 0.894640 0.833410 -0.382061
O4    O     O_2   0.341960 0.105360 0.333410 -0.377619
O5    O     O_3   0.907950 0.463080 0.102990 -0.402766
O6    O     O_3   0.907950 0.536920 0.602990 -0.403874
O7    O     O_3   0.407950 0.963080 0.102990 -0.402915
O8    O     O_3   0.407950 0.036920 0.602990 -0.404104
O9    O     O_3   0.972780 0.329600 0.629720 -0.385520
O10   O     O_3   0.972780 0.670400 0.129720 -0.381304
O11   O     O_3   0.472780 0.829600 0.629720 -0.385379
O12   O     O_3   0.472780 0.170400 0.129720 -0.382456
O13   O     O_2   0.847801 0.265993 0.704039 -0.408386
O14   O     O_2   0.845966 0.731490 0.203537 -0.408109
O15   O     O_2   0.347681 0.766007 0.704045 -0.406325
O16   O     O_2   0.346685 0.232739 0.203505 -0.405875
O17   O     O_3   0.748831 0.473486 0.958238 -0.535838
O18   O     O_3   0.748730 0.527070 0.457526 -0.541970
O19   O     O_3   0.248922 0.973611 0.958217 -0.533617
O20   O     O_3   0.248734 0.027160 0.457427 -0.542061
O21   O     O_3   0.960265 0.184194 0.629968 -0.477046
O22   O     O_3   0.956017 0.815093 0.131675 -0.484453
O23   O     O_3   0.460097 0.684149 0.630242 -0.477077
O24   O     O_3   0.457854 0.315404 0.131401 -0.480163
H1    H     H_    0.064728 0.243453 0.630367 0.073179
H2    H     H_    0.060700 0.757305 0.117389 0.064279
H3    H     H_    0.564522 0.743282 0.629142 0.072165
H4    H     H_    0.562174 0.256726 0.120680 0.065712
C1    C     C_3   0.094171 0.135516 0.644038 -0.064091
C2    C     C_3   0.088908 0.863546 0.161185 -0.074054
C3    C     C_3   0.593900 0.635328 0.644653 -0.064365
C4    C     C_3   0.591381 0.363490 0.155936 -0.071436
H5    H     H_    0.630535 0.653315 0.761736 0.077966
H6    H     H_    0.618769 0.345146 0.279824 0.105439
H7    H     H_    0.131366 0.153472 0.760577 0.075862
H8    H     H_    0.111108 0.845658 0.287633 0.118851
P5    P     P_3+3 0.165830 0.418670 0.685610 0.466096
P6    P     P_3+3 0.165830 0.581330 0.185610 0.466864
P7    P     P_3+3 0.665830 0.918670 0.685610 0.467503
P8    P     P_3+3 0.665830 0.081330 0.185610 0.468523
P9    P     P_3+3 0.099164 0.262726 0.107626 0.467191
P10   P     P_3+3 0.099352 0.736960 0.608515 0.462025
P11   P     P_3+3 0.599046 0.762640 0.107503 0.463293
P12   P     P_3+3 0.599327 0.237003 0.608246 0.463520
O25   O     O_2   0.157990 0.394030 0.856030 -0.377297
O26   O     O_2   0.157990 0.605970 0.356030 -0.370604
O27   O     O_2   0.657990 0.894030 0.856030 -0.378997
O28   O     O_2   0.657990 0.105970 0.356030 -0.368593
O29   O     O_3   0.027110 0.329490 0.059550 -0.382090
O30   O     O_3   0.027110 0.670510 0.559550 -0.378426
O31   O     O_3   0.527110 0.829490 0.059550 -0.382191
O32   O     O_3   0.527110 0.170510 0.559550 -0.379405
O33   O     O_2   0.154846 0.268744 0.983807 -0.396302
O34   O     O_2   0.155874 0.730282 0.486460 -0.399842
O35   O     O_2   0.654580 0.768587 0.983395 -0.399076
O36   O     O_2   0.655496 0.230546 0.485450 -0.399307
O37   O     O_3   0.249835 0.474271 0.724085 -0.537762
O38   O     O_3   0.250027 0.525726 0.226107 -0.535704
O39   O     O_3   0.749959 0.974075 0.724360 -0.535524
O40   O     O_3   0.750110 0.025742 0.228232 -0.531755
O41   O     O_3   0.049673 0.181173 0.062058 -0.490082
O42   O     O_3   0.050739 0.818919 0.561434 -0.504025
O43   O     O_3   0.549450 0.681115 0.062089 -0.489094
O44   O     O_3   0.550455 0.318932 0.561898 -0.498523
C5    C     C_3   0.968357 0.190156 0.069693 0.280515
C6    C     C_3   0.969593 0.811365 0.571071 0.264494
C7    C     C_3   0.468250 0.690062 0.070696 0.283596
C8    C     C_3   0.469416 0.311188 0.572400 0.272957
H9    H     H_    0.960216 0.225372 0.171812 0.023747
H10   H     H_    0.961564 0.777711 0.675830 0.026862
H11   H     H_    0.460450 0.725028 0.173456 0.022497
H12   H     H_    0.461682 0.277019 0.676498 0.024129
C9    C     C_3   0.931269 0.118275 0.095753 -0.086445
C10   C     C_3   0.933537 0.884432 0.591869 -0.087642
C11   C     C_3   0.431134 0.618072 0.096034 -0.088112
C12   C     C_3   0.433335 0.384025 0.595539 -0.090852
H13   H     H_    0.365218 0.623845 0.080079 0.059662
H14   H     H_    0.367188 0.379357 0.577595 0.064177
H15   H     H_    0.865271 0.123907 0.078554 0.059394
H16   H     H_    0.867301 0.879903 0.572401 0.063255
H17   H     H_    0.944497 0.078855 0.006932 0.221203
H18   H     H_    0.948395 0.922102 0.500948 0.219392
H19   H     H_    0.443761 0.579002 0.005894 0.220532
H20   H     H_    0.447466 0.422153 0.504996 0.220899
C13   C     C_3   0.229880 0.457000 0.269378 0.375677
C14   C     C_3   0.230518 0.541853 0.776129 0.388479
C15   C     C_3   0.729326 0.955596 0.260004 0.365712
C16   C     C_3   0.730415 0.042337 0.772012 0.382296
H21   H     H_    0.232770 0.455540 0.402436 0.095818
H22   H     H_    0.235790 0.540540 0.909860 0.095721
H23   H     H_    0.732660 0.949701 0.392675 0.086903
H24   H     H_    0.734410 0.042476 0.905488 0.087848
H25   H     H_    0.170149 0.438717 0.203607 0.119176
H26   H     H_    0.169900 0.560654 0.716218 0.112881
H27   H     H_    0.669343 0.938831 0.192709 0.124705
H28   H     H_    0.670314 0.061118 0.708902 0.116971
C17   C     C_3   0.291179 0.405509 0.226955 -0.828790
C18   C     C_3   0.290517 0.594862 0.734487 -0.835938
C19   C     C_3   0.789634 0.905941 0.207672 -0.808526
C20   C     C_3   0.791328 0.094231 0.729958 -0.825060
H29   H     H_    0.352243 0.424600 0.278460 0.287990
H30   H     H_    0.352076 0.573510 0.770707 0.293595
H31   H     H_    0.850301 0.917587 0.277426 0.274490
H32   H     H_    0.852700 0.073814 0.774705 0.289295
H33   H     H_    0.284735 0.402848 0.093085 0.271649
H34   H     H_    0.278426 0.603870 0.601404 0.270746
H35   H     H_    0.789798 0.914438 0.076934 0.276009
H36   H     H_    0.782374 0.099654 0.596119 0.272241
Ba1   Ba    Ba6+2 0.000000 0.447380 0.844850 1.549827
Ba2   Ba    Ba6+2 0.000000 0.552620 0.344850 1.548496
Ba3   Ba    Ba6+2 0.500000 0.947380 0.844850 1.548932
Ba4   Ba    Ba6+2 0.500000 0.052620 0.344850 1.548897
C21   C     C_3   0.767985 0.545425 0.941011 0.357659
C22   C     C_3   0.767601 0.454773 0.444549 0.355674
C23   C     C_3   0.268221 0.045464 0.940119 0.359446
C24   C     C_3   0.267591 0.954882 0.444378 0.356864
H37   H     H_    0.754825 0.559108 0.809446 0.061763
H38   H     H_    0.755884 0.440066 0.313616 0.067353
H39   H     H_    0.254775 0.058928 0.808441 0.061634
H40   H     H_    0.256079 0.940255 0.313411 0.069561
H41   H     H_    0.830860 0.560254 0.993085 0.122305
H42   H     H_    0.829930 0.439454 0.500537 0.126225
H43   H     H_    0.331216 0.060182 0.991388 0.121091
H44   H     H_    0.329818 0.939448 0.500882 0.126377
C25   C     C_3   0.714614 0.589354 0.026914 -0.754162
C26   C     C_3   0.712262 0.412661 0.528702 -0.770768
C27   C     C_3   0.215295 0.089776 0.026326 -0.753376
C28   C     C_3   0.211936 0.912908 0.527826 -0.777654
H45   H     H_    0.651310 0.581902 0.967959 0.300582
H46   H     H_    0.649462 0.422910 0.469147 0.298842
H47   H     H_    0.151899 0.082711 0.967670 0.300392
H48   H     H_    0.149308 0.924375 0.469164 0.296951
H49   H     H_    0.730854 0.646503 0.025758 0.214643
H50   H     H_    0.726217 0.354977 0.526091 0.216079
H51   H     H_    0.231965 0.146828 0.025256 0.214083
H52   H     H_    0.224920 0.855097 0.523229 0.217105
H53   H     H_    0.719926 0.570030 0.153102 0.281876
H54   H     H_    0.718104 0.431435 0.655455 0.281304
H55   H     H_    0.220540 0.070431 0.152463 0.282333
H56   H     H_    0.218326 0.931005 0.655175 0.281664
O45   O     O_3   0.092100 0.536880 0.086720 -0.408187
O46   O     O_3   0.092100 0.463120 0.586720 -0.403713
O47   O     O_3   0.592100 0.036880 0.086720 -0.410176
O48   O     O_3   0.592100 0.963120 0.586720 -0.403348
P13   P     P_3+3 0.901666 0.737022 0.079811 0.450083
P14   P     P_3+3 0.903451 0.261651 0.579833 0.455679
P15   P     P_3+3 0.402459 0.237722 0.079741 0.453995
P16   P     P_3+3 0.403396 0.761652 0.579934 0.456951
C29   C     C_3   0.033917 0.194080 0.580051 0.365380
C30   C     C_3   0.029495 0.808100 0.079920 0.347890
C31   C     C_3   0.533658 0.693781 0.579848 0.364278
C32   C     C_3   0.531282 0.307327 0.079798 0.355739
H57   H     H_    0.023933 0.197226 0.445528 0.024840
H58   H     H_    0.019898 0.811092 0.945994 0.048758
H59   H     H_    0.523547 0.696497 0.445313 0.026366
H60   H     H_    0.521442 0.308550 0.945559 0.039923
H61   H     H_    0.635508 0.627588 0.560395 0.109219
H62   H     H_    0.639626 0.367699 0.085851 0.091530
H63   H     H_    0.135326 0.127593 0.558943 0.110543
H64   H     H_    0.140455 0.865907 0.099628 0.083117
C33   C     C_R   0.140694 0.675574 0.919600 -0.551609
C34   C     C_R   0.141002 0.324919 0.418237 -0.553459
C35   C     C_R   0.641156 0.175300 0.919076 -0.552551
C36   C     C_R   0.641199 0.825060 0.417886 -0.552052
C37   C     C_R   0.859729 0.324639 0.270201 -0.527857
C38   C     C_R   0.859643 0.675181 0.769516 -0.525366
C39   C     C_R   0.359676 0.824634 0.270285 -0.527975
C40   C     C_R   0.359903 0.175386 0.769593 -0.525221
C41   C     C_R   0.792246 0.213335 0.301216 -0.149864
C42   C     C_R   0.791627 0.786338 0.800862 -0.153562
C43   C     C_R   0.292262 0.713271 0.301232 -0.150784
C44   C     C_R   0.292114 0.286712 0.800510 -0.153049
C45   C     C_R   0.847294 0.266433 0.366080 0.204827
C46   C     C_R   0.846527 0.733008 0.865703 0.200883
C47   C     C_R   0.347273 0.766398 0.366137 0.204621
C48   C     C_R   0.347069 0.233437 0.865562 0.199893
C49   C     C_R   0.816077 0.333349 0.110763 0.276505
C50   C     C_R   0.816043 0.666625 0.610218 0.276635
C51   C     C_R   0.315963 0.833400 0.110905 0.276896
C52   C     C_R   0.316166 0.166698 0.610333 0.276975
C53   C     C_R   0.757814 0.279633 0.044862 -0.102396
C54   C     C_R   0.757682 0.720369 0.544246 -0.100343
C55   C     C_R   0.257556 0.779779 0.045163 -0.101588
C56   C     C_R   0.257803 0.220433 0.544331 -0.102238
C57   C     C_R   0.245237 0.718882 0.142332 -0.090444
C58   C     C_R   0.245371 0.281317 0.641373 -0.087084
C59   C     C_R   0.745411 0.218806 0.142135 -0.090037
C60   C     C_R   0.745175 0.781190 0.641423 -0.086408
C61   C     C_R   0.185369 0.666277 0.077778 0.264281
C62   C     C_R   0.185466 0.333990 0.576787 0.263972
C63   C     C_R   0.685634 0.166145 0.077517 0.263548
C64   C     C_R   0.685425 0.833973 0.576719 0.268645
C65   C     C_R   0.154917 0.732492 0.822187 0.235971
C66   C     C_R   0.155283 0.267850 0.320933 0.231182
C67   C     C_R   0.655295 0.232268 0.821685 0.232852
C68   C     C_R   0.655318 0.767878 0.320733 0.222918
C69   C     C_R   0.210842 0.785017 0.885961 -0.177574
C70   C     C_R   0.211324 0.215337 0.384940 -0.191754
C71   C     C_R   0.711231 0.284774 0.885496 -0.181571
C72   C     C_R   0.711221 0.715288 0.384864 -0.188256
H65   H     H_    0.286675 0.667998 0.376758 0.190217
H66   H     H_    0.286257 0.331819 0.876304 0.188562
H67   H     H_    0.786468 0.168197 0.376928 0.190303
H68   H     H_    0.785513 0.831184 0.877259 0.189715
H69   H     H_    0.717124 0.329574 0.809306 0.191332
H70   H     H_    0.716952 0.670311 0.309051 0.192357
H71   H     H_    0.216828 0.829761 0.809648 0.190967
H72   H     H_    0.217150 0.170430 0.308994 0.192511
H73   H     H_    0.095710 0.636582 0.869303 0.174279
H74   H     H_    0.096082 0.364094 0.367753 0.175050
H75   H     H_    0.596285 0.136226 0.868674 0.174293
H76   H     H_    0.596526 0.864404 0.367141 0.174930
H77   H     H_    0.902998 0.364748 0.322259 0.171727
H78   H     H_    0.903085 0.635053 0.821541 0.171276
H79   H     H_    0.402974 0.864724 0.322322 0.171696
H80   H     H_    0.403354 0.135270 0.821628 0.171179
H81   H     H_    0.283068 0.351757 0.275557 0.212062
H82   H     H_    0.286360 0.646233 0.797457 0.204629
H83   H     H_    0.774467 0.849803 0.228146 0.219878
H84   H     H_    0.784994 0.147060 0.784936 0.207116
N1    N     N_R   0.464374 0.591148 0.258065 0.285038
O49   O     O_R   0.417706 0.573956 0.356903 -0.348174
O50   O     O_R   0.541325 0.582399 0.302546 -0.311071
N2    N     N_R   0.465906 0.411444 0.757600 0.284583
O51   O     O_R   0.418517 0.429549 0.854413 -0.351039
O52   O     O_R   0.542949 0.418561 0.805376 -0.309463
N3    N     N_R   0.964139 0.092033 0.258503 0.284668
O53   O     O_R   0.917201 0.075083 0.356981 -0.345708
O54   O     O_R   0.040967 0.082459 0.302895 -0.312081
N4    N     N_R   0.965304 0.912316 0.753961 0.285441
O55   O     O_R   0.917281 0.930241 0.849603 -0.352630
O56   O     O_R   0.042288 0.918994 0.803964 -0.307305
N5    N     N_R   0.055386 0.068446 0.666637 0.321004
O57   O     O_R   0.012784 0.062722 0.778026 -0.305998
O58   O     O_R   0.069222 0.012384 0.585634 -0.294982
N6    N     N_R   0.052664 0.933747 0.159953 0.322056
O59   O     O_R   0.994683 0.944651 0.236364 -0.303486
O60   O     O_R   0.083750 0.987358 0.097026 -0.290671
N7    N     N_R   0.555152 0.568122 0.666338 0.320714
O61   O     O_R   0.511963 0.562214 0.776667 -0.306526
O62   O     O_R   0.569839 0.512075 0.586169 -0.291447
N8    N     N_R   0.554299 0.432885 0.163107 0.322197
O63   O     O_R   0.501297 0.442118 0.252682 -0.304650
O64   O     O_R   0.580968 0.487608 0.095664 -0.287875
H85   H     H_    0.935659 0.213250 0.953424 0.141763
H86   H     H_    0.936230 0.787072 0.456663 0.142126
H87   H     H_    0.435319 0.713493 0.954975 0.140523
H88   H     H_    0.435772 0.287368 0.457708 0.140729

loop_
_geom_bond_atom_site_label_1
_geom_bond_atom_site_label_2
_geom_bond_distance
_ccdc_geom_bond_type
C28   H56   1.103333 S    
C37   H77   1.082054 S    
C3    N7    1.452044 S    
O23   P16   1.746853 S    
C6    C10   1.524628 S    
C4    N8    1.451798 S    
O12   P15   1.730703 S    
P3    O19   1.749746 S    
O13   P14   1.546307 D    
C31   H59   1.105799 S    
P5    O37   1.749213 S    
C8    H12   1.111248 S    
C7    C11   1.524595 S    
P7    O39   1.748722 S    
C26   H46   1.101921 S    
O24   P15   1.743107 S    
P8    O40   1.750415 S    
P1    O17   1.749598 S    
C44   C48   1.400238 A    
P9    O33   1.546335 D    
C1    H7    1.103155 S    
P1    Ba1   3.404500 S    
C38   C46   1.395084 A    
C18   H82   1.106933 S    
P1    O1    1.532322 D    
O5    Ba2   2.845903 S    
C60   C64   1.442880 A    
C39   C51   1.399570 A    
C3    H5    1.103123 S    
C3    C31   1.522804 S    
O9    P14   1.731757 S    
P10   O42   1.750643 S    
P3    O3    1.532322 D    
C22   H38   1.108808 S    
P4    O20   1.747475 S    
C53   C59   1.442030 A    
C1    C29   1.522941 S    
C10   N4    1.452996 S    
O43   C7    1.410796 S    
C25   H53   1.103286 S    
C40   C48   1.395943 A    
C9    H15   1.109973 S    
C17   H33   1.105214 S    
N7    O61   1.298461 A    
O38   C13   1.400441 S    
Ba3   O47   2.845856 S    
C16   H24   1.106049 S    
P8    O47   1.594003 S    
O15   P16   1.546512 D    
C19   H35   1.107064 S    
C20   H84   1.106373 S    
C50   C54   1.443168 A    
C44   H66   1.073915 S    
P4    O4    1.532477 D    
C1    N5    1.451839 S    
C21   H37   1.108777 S    
O2    Ba2   2.852020 S    
O17   C21   1.402356 S    
P7    O48   1.591486 S    
C19   H83   1.105717 S    
H4    C32   1.104073 S    
C5    C9    1.523930 S    
P6    Ba2   3.406850 S    
C14   C18   1.518183 S    
P5    O46   1.591486 S    
C56   C58   1.441211 A    
N7    O62   1.297939 A    
O39   C16   1.399989 S    
C6    H10   1.111636 S    
C23   C27   1.512678 S    
C65   C69   1.400075 A    
C35   H75   1.081978 S    
P4    O8    1.586312 S    
O14   P13   1.545298 D    
C2    N6    1.451835 S    
C6    H86   1.108222 S    
C13   C17   1.515852 S    
C40   H80   1.081983 S    
C57   C61   1.444241 A    
C5    H85   1.106574 S    
P6    O38   1.748910 S    
O8    Ba3   2.842358 S    
P7    Ba3   3.405140 S    
C21   C25   1.512529 S    
P8    O28   1.531633 D    
O28   Ba4   2.859137 S    
P11   O31   1.740578 S    
C9    H17   1.103586 S    
N5    O57   1.298427 A    
C38   C50   1.398221 A    
C42   H68   1.074103 S    
P4    Ba4   3.402828 S    
C39   C47   1.396696 A    
P2    O2    1.532477 D    
P12   O36   1.546125 D    
N4    O56   1.300438 A    
C67   C71   1.400023 A    
O12   Ba4   2.826855 S    
C7    H87   1.106797 S    
O11   P16   1.732258 S    
O29   Ba1   2.826229 S    
C14   H22   1.105516 S    
Ba4   O48   2.842312 S    
P13   C46   1.849051 S    
C2    C30   1.514263 S    
C17   H29   1.103133 S    
N1    O50   1.299117 A    
N8    O64   1.297836 A    
C9    N3    1.449799 S    
O20   C24   1.401198 S    
P12   C67   1.849112 S    
O21   C29   1.414659 S    
C54   C60   1.441284 A    
P2    C50   1.895598 S    
C32   H60   1.102664 S    
P1    O5    1.588800 S    
Ba2   O46   2.842312 S    
C12   H14   1.110806 S    
P5    Ba1   3.405140 S    
C20   H36   1.104713 S    
C27   H51   1.107547 S    
C49   C53   1.444289 A    
P10   C65   1.848380 S    
C43   C47   1.401076 A    
N2    O51   1.300559 A    
P9    C66   1.849527 S    
O10   Ba2   2.826855 S    
C59   C63   1.444118 A    
P11   O35   1.546271 D    
Ba3   O48   2.934630 S    
C41   C59   1.410628 A    
C13   H21   1.105756 S    
C12   N2    1.452239 S    
C52   C56   1.443142 A    
C38   H78   1.082038 S    
C13   H25   1.109589 S    
O44   C8    1.410238 S    
O26   Ba2   2.859137 S    
P7    C64   1.893621 S    
Ba1   O46   2.934630 S    
P6    C61   1.893796 S    
C34   C66   1.395533 A    
P2    O18   1.748460 S    
P5    C62   1.893235 S    
C22   C26   1.511311 S    
C33   C65   1.394355 A    
C68   C72   1.398877 A    
C4    H62   1.106592 S    
C40   C52   1.399024 A    
C16   C20   1.517233 S    
C44   C58   1.410550 A    
C4    C32   1.517585 S    
C41   C45   1.400985 A    
C28   H48   1.101637 S    
C70   H72   1.071630 S    
P10   O30   1.742774 S    
N6    O60   1.297823 A    
O25   Ba1   2.855530 S    
O32   Ba4   2.827611 S    
P4    C52   1.896698 S    
C54   C72   1.410059 A    
P11   O43   1.751859 S    
C3    H61   1.107243 S    
C14   H26   1.109890 S    
C8    H88   1.108044 S    
C5    H9    1.111079 S    
O7    Ba4   2.845903 S    
C37   C49   1.399512 A    
O18   C22   1.401534 S    
C11   H19   1.103723 S    
O6    Ba1   2.842358 S    
P6    O26   1.531633 D    
P14   C45   1.852441 S    
C25   H45   1.100968 S    
C66   C70   1.399026 A    
C33   H73   1.081943 S    
C34   H74   1.081979 S    
Ba1   O45   2.845856 S    
N5    O58   1.297841 A    
C26   H50   1.107828 S    
P9    O41   1.751669 S    
N2    O52   1.300184 A    
C2    H8    1.101615 S    
P11   C68   1.849929 S    
O22   C30   1.412669 S    
N4    O55   1.300480 A    
C43   H65   1.074322 S    
P2    O6    1.586312 S    
C53   C71   1.410584 A    
C20   H32   1.104963 S    
C27   H55   1.103145 S    
O37   C14   1.400013 S    
C16   H28   1.109815 S    
C11   H13   1.109689 S    
Ba1   Ba2   4.629000 S    
C17   H81   1.106075 S    
P12   O32   1.742870 S    
C42   C46   1.399997 A    
N8    O63   1.298159 A    
P8    C63   1.894087 S    
P1    C49   1.899164 S    
C36   C68   1.395567 A    
O1    Ba1   2.855593 S    
C24   C28   1.510344 S    
C35   C63   1.398304 A    
O3    Ba3   2.855593 S    
O22   P13   1.740784 S    
C71   H69   1.071838 S    
C34   C62   1.399141 A    
Ba2   O45   2.934027 S    
C15   C19   1.515215 S    
P12   O44   1.751236 S    
C33   C61   1.397963 A    
C43   C57   1.410779 A    
Ba4   O47   2.934027 S    
H3    C31   1.105316 S    
C24   H44   1.108141 S    
C30   H58   1.101493 S    
C12   H20   1.104053 S    
C23   H39   1.108755 S    
C28   H52   1.107820 S    
P5    O25   1.531786 D    
C55   C69   1.410398 A    
O4    Ba4   2.852020 S    
C27   H47   1.100828 S    
O16   P15   1.545832 D    
O27   Ba3   2.855530 S    
C36   H76   1.082034 S    
P16   C47   1.852544 S    
C4    H6    1.102273 S    
H1    C29   1.105336 S    
C8    C12   1.524923 S    
P3    Ba3   3.404500 S    
C7    H11   1.110957 S    
P2    Ba2   3.402828 S    
P7    O27   1.531786 D    
P15   C48   1.851123 S    
O42   C6    1.409802 S    
O31   Ba3   2.826229 S    
C2    H64   1.106844 S    
C18   H34   1.104382 S    
O41   C5    1.410833 S    
O30   Ba2   2.827611 S    
O10   P13   1.729871 S    
C56   C70   1.410255 A    
N6    O59   1.298380 A    
C1    H63   1.107150 S    
C69   H71   1.072009 S    
C18   H30   1.105828 S    
C37   C45   1.396530 A    
O11   Ba3   2.828241 S    
C29   H57   1.106209 S    
C26   H54   1.103544 S    
C39   H79   1.082061 S    
C55   C57   1.442185 A    
P3    O7    1.588800 S    
C24   H40   1.108784 S    
C58   C62   1.442931 A    
P9    O29   1.740845 S    
C41   H67   1.073964 S    
C21   H41   1.108043 S    
C10   H16   1.111274 S    
O9    Ba1   2.828241 S    
H2    C30   1.103714 S    
C25   H49   1.107457 S    
P8    Ba4   3.406850 S    
C15   H23   1.106513 S    
N3    O54   1.299073 A    
C10   H18   1.105377 S    
C36   C64   1.399363 A    
C72   H70   1.071638 S    
N3    O53   1.300652 A    
O24   C32   1.413242 S    
C35   C67   1.394538 A    
O21   P14   1.746926 S    
O19   C23   1.402545 S    
C19   H31   1.101782 S    
C22   H42   1.108095 S    
O40   C15   1.401901 S    
C15   H27   1.108649 S    
P6    O45   1.594003 S    
P3    C51   1.899460 S    
C11   N1    1.450248 S    
P10   O34   1.546105 D    
C51   C55   1.444227 A    
Ba3   Ba4   4.629000 S    
C42   C60   1.410482 A    
N1    O49   1.300636 A    
O23   C31   1.414473 S    
C23   H43   1.108031 S    
