data_mof_unit_23144.cif
_audit_creation_date              2012-12-10T17:55:07-0500
_audit_creation_method            fapswitch 2.2
_symmetry_space_group_name_H-M    P1
_symmetry_Int_Tables_number       1
_space_group_crystal_system       triclinic
_cell_length_a                    8.734062
_cell_length_b                    10.82601
_cell_length_c                    9.531088
_cell_angle_alpha                 90.221964
_cell_angle_beta                  98.092288
_cell_angle_gamma                 90.345641
_cell_volume                      892.212322622

loop_
_atom_site_label
_atom_site_type_symbol
_atom_type_description
_atom_site_fract_x
_atom_site_fract_y
_atom_site_fract_z
_atom_type_partial_charge
C1    C     C_R   0.499895 0.262117 0.499791 0.781837
C2    C     C_R   0.500105 0.737883 0.500209 0.781836
C3    C     C_R   0.203721 0.499914 0.463638 0.886997
C4    C     C_R   0.796279 0.500086 0.536362 0.886996
C5    C     C_2   0.037768 0.499978 0.443706 -0.367817
C6    C     C_2   0.962231 0.500022 0.556294 -0.367818
C7    C     C_R   0.526522 0.063552 0.378133 -0.190727
C8    C     C_R   0.473477 0.936448 0.621867 -0.190727
C9    C     C_R   0.526438 0.935750 0.378246 -0.194454
C10   C     C_R   0.473562 0.064250 0.621754 -0.194454
C11   C     C_R   0.500092 0.871745 0.500211 -0.006671
C12   C     C_R   0.499907 0.128255 0.499789 -0.006671
C13   C     C_R   0.402922 0.422315 0.062284 0.616239
C14   C     C_R   0.597078 0.577685 0.937716 0.616239
C15   C     C_R   0.402005 0.424684 0.912096 -0.245605
C16   C     C_R   0.597995 0.575315 0.087904 -0.245605
Cu1   Cu    Cu3+1 0.500000 0.500020 0.640660 0.984040
Cu2   Cu    Cu3+1 0.500000 0.499980 0.359340 0.984040
H1    H     H_    0.977528 0.500041 0.335798 0.185104
H2    H     H_    0.022472 0.499959 0.664202 0.185104
H3    H     H_    0.548660 0.111451 0.283448 0.150277
H4    H     H_    0.451339 0.888549 0.716552 0.150277
H5    H     H_    0.548011 0.887321 0.283348 0.143712
H6    H     H_    0.451988 0.112679 0.716652 0.143712
H7    H     H_    0.322458 0.367062 0.843081 0.160826
H8    H     H_    0.677543 0.632937 0.156918 0.160827
N1    N     N_R   0.500040 0.500030 0.852080 -0.218186
N2    N     N_R   0.499960 0.499970 0.147920 -0.218185
O1    O     O_R   0.499990 0.319660 0.618740 -0.600114
O2    O     O_R   0.500010 0.680340 0.381260 -0.600114
O3    O     O_R   0.499990 0.319630 0.381170 -0.550258
O4    O     O_R   0.500010 0.680370 0.618830 -0.550258
O5    O     O_R   0.274840 0.500010 0.591370 -0.589671
O6    O     O_R   0.725160 0.499990 0.408630 -0.589670
O7    O     O_R   0.274830 0.499980 0.353800 -0.534724
O8    O     O_R   0.725170 0.500020 0.646200 -0.534724
O9    O     O_3   0.300716 0.348907 0.124821 -0.539647
C17   C     C_3   0.291350 0.227886 0.068283 -0.367341
H9    H     H_    0.405830 0.192335 0.048200 0.136956
H10   H     H_    0.206118 0.223535 0.970229 0.159246
H11   H     H_    0.248834 0.165430 0.146574 0.199982
O10   O     O_3   0.699284 0.651093 0.875179 -0.539647
C18   C     C_3   0.708651 0.772114 0.931718 -0.367341
H12   H     H_    0.793884 0.776465 0.029770 0.159247
H13   H     H_    0.594171 0.807664 0.951803 0.136955
H14   H     H_    0.751165 0.834571 0.853426 0.199981

loop_
_geom_bond_atom_site_label_1
_geom_bond_atom_site_label_2
_ccdc_geom_bond_type
C16   N2    A    
C8    H4    S    
C18   H12   S    
C4    O8    A    
C13   N2    A    
O9    C17   S    
C5    H1    S    
Cu1   O8    S    
C14   N1    A    
C18   H13   S    
Cu2   O7    S    
C13   O9    S    
C13   C15   A    
C3    O7    A    
C14   O10   S    
C1    O1    A    
Cu1   Cu2   S    
Cu2   N2    S    
Cu1   O1    S    
C17   H10   S    
C9    C11   A    
C5    C6    D    
C1    C12   S    
Cu1   O5    S    
C8    C11   A    
Cu2   O2    S    
C2    C11   S    
C10   C12   A    
C4    C6    S    
C14   C16   A    
Cu2   O6    S    
C16   H8    S    
C7    C12   A    
C18   H14   S    
C4    O6    A    
C15   H7    S    
O10   C18   S    
C3    O5    A    
Cu1   N1    S    
C1    O3    A    
C6    H2    S    
C17   H11   S    
C2    O4    A    
C7    C9    A    
Cu1   O4    S    
C9    H5    S    
C2    O2    A    
Cu2   O3    S    
C10   H6    S    
C7    H3    S    
C15   N1    A    
C8    C10   A    
C3    C5    S    
C17   H9    S    
