data_mof_unit_19326.cif
_audit_creation_date              2013-03-05T15:49:05-0500
_audit_creation_method            fapswitch 2.2
_symmetry_space_group_name_H-M    P1
_symmetry_Int_Tables_number       1
_space_group_crystal_system       triclinic
_cell_length_a                    10.644278
_cell_length_b                    12.991133
_cell_length_c                    11.808505
_cell_angle_alpha                 99.576296
_cell_angle_beta                  93.381673
_cell_angle_gamma                 92.375449
_cell_volume                      1605.15554053

loop_
_atom_site_label
_atom_site_type_symbol
_atom_site_description
_atom_site_fract_x
_atom_site_fract_y
_atom_site_fract_z
_atom_type_partial_charge
O1    O     O_R   0.506670 0.354460 0.582000 -0.550954
O2    O     O_R   0.493330 0.645540 0.418000 -0.550952
O3    O     O_R   0.490800 0.341410 0.386200 -0.575364
O4    O     O_R   0.509200 0.658590 0.613800 -0.575379
C1    C     C_R   0.499158 0.299429 0.478807 0.852127
C2    C     C_R   0.500842 0.700571 0.521193 0.852118
O5    O     O_R   0.324790 0.506500 0.597880 -0.573660
O6    O     O_R   0.675210 0.493500 0.402120 -0.573662
O7    O     O_R   0.308910 0.493440 0.402080 -0.528150
O8    O     O_R   0.691090 0.506560 0.597920 -0.528145
C3    C     C_R   0.259888 0.500878 0.500600 0.895830
C4    C     C_R   0.740112 0.499122 0.499400 0.895829
Cu1   Cu    Cu3+1 0.509400 0.507730 0.615930 1.069054
Cu2   Cu    Cu3+1 0.490600 0.492270 0.384070 1.069055
C5    C     C_3   0.048584 0.510335 0.610267 -0.182865
C6    C     C_3   0.951416 0.489665 0.389732 -0.182861
C7    C     C_3   0.959738 0.420571 0.546059 0.364520
C8    C     C_3   0.040262 0.579429 0.453940 0.364518
H1    H     H_    0.088839 0.517293 0.700271 0.220141
H2    H     H_    0.911161 0.482707 0.299729 0.220145
C9    C     C_3   0.876479 0.498455 0.498524 -0.154295
C10   C     C_3   0.123521 0.501545 0.501475 -0.154298
C11   C     C_3   0.964282 0.590148 0.561465 -0.224271
C12   C     C_3   0.035719 0.409851 0.438533 -0.224273
H3    H     H_    0.933862 0.664892 0.609321 0.222349
H4    H     H_    0.066140 0.335108 0.390677 0.222348
C13   C     C_R   0.498763 0.813949 0.533145 -0.038496
C14   C     C_R   0.501237 0.186051 0.466854 -0.038491
C15   C     C_R   0.515258 0.016600 0.348085 -0.152357
C16   C     C_R   0.484741 0.983400 0.651914 -0.152353
C17   C     C_R   0.513287 0.124641 0.358770 -0.122351
C18   C     C_R   0.486712 0.875359 0.641229 -0.122352
C19   C     C_R   0.492494 0.138722 0.564494 -0.162258
C20   C     C_R   0.507506 0.861277 0.435506 -0.162255
C21   C     C_R   0.494339 0.030769 0.554538 0.144802
C22   C     C_R   0.505660 0.969231 0.445462 0.144804
H5    H     H_    0.515994 0.814435 0.351617 0.190546
H6    H     H_    0.484006 0.185565 0.648383 0.190546
H7    H     H_    0.477719 0.840016 0.717349 0.194924
H8    H     H_    0.522278 0.159983 0.282650 0.194918
H9    H     H_    0.524597 0.970258 0.264052 0.164667
H10   H     H_    0.475402 0.029742 0.735948 0.164667
N1    N     N_R   0.523540 0.519360 0.790140 -0.266833
N2    N     N_R   0.476460 0.480640 0.209860 -0.266830
C23   C     C_R   0.374034 0.406408 0.024799 -0.269833
C24   C     C_R   0.625962 0.593596 0.975201 -0.269826
C25   C     C_R   0.386084 0.414465 0.144930 0.492977
C26   C     C_R   0.613909 0.585541 0.855070 0.492985
C27   C     C_R   0.555755 0.541144 0.155417 0.380800
C28   C     C_R   0.444247 0.458855 0.844582 0.380800
C29   C     C_R   0.546002 0.534187 0.033141 -0.076448
C30   C     C_R   0.453997 0.465813 0.966859 -0.076446
H11   H     H_    0.300449 0.353172 0.978758 0.226168
H12   H     H_    0.699542 0.646836 0.021243 0.226167
N3    N     N_R   0.917841 0.331187 0.596735 0.145336
O9    O     O_R   0.000764 0.272873 0.635868 -0.284035
O10   O     O_R   0.798535 0.306517 0.599133 -0.360463
N4    N     N_R   0.082159 0.668813 0.403263 0.145337
O11   O     O_R   0.999236 0.727127 0.364130 -0.284035
O12   O     O_R   0.201465 0.693482 0.400867 -0.360462
Br1   Br    Br    0.319667 0.360793 0.756344 -0.463421
Br2   Br    Br    0.680335 0.639205 0.243655 -0.463419
N5    N     N_R   0.700990 0.645866 0.802152 0.140272
O13   O     O_R   0.817404 0.619273 0.799861 -0.351465
O14   O     O_R   0.676855 0.741828 0.794444 -0.367000
N6    N     N_R   0.298988 0.354154 0.197850 0.140268
O15   O     O_R   0.182569 0.380741 0.200101 -0.351464
O16   O     O_R   0.323130 0.258201 0.205611 -0.366995

loop_
_geom_bond_atom_site_label_1
_geom_bond_atom_site_label_2
_geom_bond_distance
_ccdc_geom_bond_type
N2    C27   1.385876 A    
O5    Cu1   1.963140 S    
N6    O16   1.300020 A    
O7    Cu2   1.958453 S    
N5    O14   1.299988 A    
N1    C28   1.385877 A    
C6    C9    1.542499 S    
C1    C14   1.457319 S    
N1    C26   1.370202 A    
C7    N3    1.457781 S    
C3    C10   1.452552 S    
C28   C30   1.428958 A    
C2    C13   1.457320 S    
C19   H6    1.083662 S    
N2    C25   1.370207 A    
O6    C4    1.294773 A    
N3    O9    1.300119 A    
C24   H12   1.080340 S    
C5    C11   1.557998 S    
N6    O15   1.300746 A    
N4    O11   1.300121 A    
C23   H11   1.080340 S    
C29   C30   1.402436 A    
C6    C12   1.557996 S    
N3    O10   1.299899 A    
C8    C10   1.526053 S    
Cu1   Cu2   2.706595 S    
C16   C18   1.389318 A    
O7    C3    1.293619 A    
C15   C22   1.398369 A    
C13   C20   1.399941 A    
O2    C2    1.302414 A    
O3    Cu2   1.964271 S    
O8    C4    1.293620 A    
C16   C21   1.398368 A    
C15   C17   1.389318 A    
O1    C1    1.302413 A    
C4    C9    1.452553 S    
Cu2   N2    2.033609 S    
C6    H2    1.110140 S    
C19   C21   1.388789 A    
C12   H4    1.110010 S    
C14   C19   1.399942 A    
O5    C3    1.294775 A    
C20   C22   1.388789 A    
C23   C25   1.402769 A    
C9    C11   1.541436 S    
O2    Cu2   1.963275 S    
C10   C12   1.541437 S    
C7    C12   1.535357 S    
O1    Cu1   1.963275 S    
N4    O12   1.299901 A    
C8    C11   1.535356 S    
C20   H5    1.083661 S    
C24   C26   1.402770 A    
O3    C1    1.300841 A    
Cu1   N1    2.033608 S    
C11   H3    1.110009 S    
C17   H8    1.082478 S    
C6    C8    1.535872 S    
O4    C2    1.300841 A    
C5    C10   1.542498 S    
C18   H7    1.082477 S    
O4    Cu1   1.964270 S    
C5    C7    1.535872 S    
C28   Br1   1.929338 S    
C16   H10   1.083896 S    
C26   N5    1.426491 S    
O6    Cu2   1.963142 S    
C27   Br2   1.929339 S    
C25   N6    1.426497 S    
C23   C30   1.406449 A    
C15   H9    1.083895 S    
C13   C18   1.403883 A    
C5    H1    1.110140 S    
C24   C29   1.406449 A    
C8    N4    1.457781 S    
C14   C17   1.403884 A    
C7    C9    1.526054 S    
C21   C22   1.412913 A    
N5    O13   1.300726 A    
C27   C29   1.428959 A    
O8    Cu1   1.958454 S    
