data_mof_unit_10643.cif
_audit_creation_date              2012-12-11T14:19:31-0500
_audit_creation_method            fapswitch 2.2
_symmetry_space_group_name_H-M    P1
_symmetry_Int_Tables_number       1
_space_group_crystal_system       monoclinic
_cell_length_a                    19.425979
_cell_length_b                    7.241894
_cell_length_c                    17.729755
_cell_angle_alpha                 90.0
_cell_angle_beta                  107.764896
_cell_angle_gamma                 90.0
_cell_volume                      2375.30359177

loop_
_atom_site_label
_atom_site_type_symbol
_atom_type_description
_atom_site_fract_x
_atom_site_fract_y
_atom_site_fract_z
_atom_type_partial_charge
O1    O     O_R   0.414820 0.494320 0.416790 -0.542485
O2    O     O_R   0.585180 0.994320 0.583210 -0.542485
O3    O     O_R   0.560270 0.819500 0.430140 -0.536721
O4    O     O_R   0.439730 0.319500 0.569860 -0.536721
C1    C     C_R   0.583915 0.656240 0.417955 0.718329
C2    C     C_R   0.416084 0.156240 0.582045 0.718329
O5    O     O_R   0.413840 0.823740 0.407440 -0.537622
O6    O     O_R   0.586160 0.323740 0.592560 -0.537622
O7    O     O_R   0.437710 0.998590 0.560350 -0.540785
O8    O     O_R   0.562290 0.498590 0.439650 -0.540785
C3    C     C_R   0.387523 0.654931 0.385337 0.737340
C4    C     C_R   0.612477 0.154931 0.614663 0.737340
O9    O     O_3   0.508000 0.662290 0.550200 -0.379657
O10   O     O_3   0.492000 0.162290 0.449800 -0.379657
V1    V     V_3+5 0.498520 0.935380 0.490690 1.393671
V2    V     V_3+5 0.501480 0.435380 0.509310 1.393671
C5    C     C_2   0.785414 0.271850 0.788317 -0.130423
C6    C     C_2   0.214586 0.771849 0.211683 -0.130423
C7    C     C_2   0.820436 0.113456 0.817037 -0.304864
C8    C     C_2   0.179564 0.613456 0.182963 -0.304864
H1    H     H_    0.807422 0.402154 0.815452 0.140880
H2    H     H_    0.192578 0.902154 0.184548 0.140880
H3    H     H_    0.800149 0.981718 0.790654 0.129697
H4    H     H_    0.199851 0.481718 0.209345 0.129697
C9    C     C_2   0.717521 0.284627 0.720280 -0.134069
C10   C     C_2   0.282479 0.784627 0.279720 -0.134069
C11   C     C_2   0.679503 0.138454 0.682323 -0.303905
C12   C     C_2   0.320497 0.638454 0.317677 -0.303905
H5    H     H_    0.698175 0.422931 0.701441 0.137981
H6    H     H_    0.301825 0.922931 0.298559 0.137980
H7    H     H_    0.697432 0.999290 0.700461 0.131018
H8    H     H_    0.302568 0.499290 0.299539 0.131018
C13   C     C_R   0.310778 0.295456 0.620615 0.109389
C14   C     C_R   0.689222 0.795455 0.379385 0.109390
C15   C     C_R   0.362115 0.150822 0.626448 -0.086796
C16   C     C_R   0.637885 0.650822 0.373551 -0.086795
C17   C     C_R   0.362511 0.999056 0.676001 -0.266333
C18   C     C_R   0.637489 0.499056 0.323999 -0.266333
C19   C     C_R   0.315537 0.991160 0.722150 0.090276
C20   C     C_R   0.684463 0.491160 0.277850 0.090276
C21   C     C_R   0.268775 0.140524 0.721581 0.016771
C22   C     C_R   0.731225 0.640524 0.278419 0.016771
C23   C     C_R   0.267213 0.295113 0.672201 0.081751
C24   C     C_R   0.732787 0.795113 0.327799 0.081751
C25   C     C_R   0.315403 0.836666 0.769956 -0.175918
C26   C     C_R   0.684597 0.336666 0.230044 -0.175919
C27   C     C_R   0.268961 0.829057 0.816563 -0.190230
C28   C     C_R   0.731039 0.329057 0.183437 -0.190230
C29   C     C_R   0.222396 0.976760 0.816991 0.090661
C30   C     C_R   0.777604 0.476760 0.183008 0.090661
C31   C     C_R   0.222793 0.134025 0.770067 0.066639
C32   C     C_R   0.777207 0.634025 0.229933 0.066639
C33   C     C_R   0.177055 0.284411 0.771447 0.092455
C34   C     C_R   0.822946 0.784411 0.228553 0.092455
C35   C     C_R   0.177316 0.439349 0.724483 -0.198761
C36   C     C_R   0.822684 0.939349 0.275517 -0.198761
C37   C     C_R   0.221528 0.444846 0.675511 -0.182904
C38   C     C_R   0.778472 0.944845 0.324490 -0.182904
C39   C     C_R   0.175490 0.969906 0.863556 -0.218911
C40   C     C_R   0.824510 0.469906 0.136444 -0.218911
C41   C     C_R   0.129983 0.120118 0.865452 -0.076773
C42   C     C_R   0.870017 0.620118 0.134548 -0.076772
C43   C     C_R   0.131702 0.277601 0.819689 -0.218902
C44   C     C_R   0.868298 0.777601 0.180311 -0.218902
H9    H     H_    0.400190 0.886640 0.679225 0.138519
H10   H     H_    0.599810 0.386641 0.320775 0.138519
H11   H     H_    0.350942 0.720755 0.770880 0.132028
H12   H     H_    0.649058 0.220755 0.229119 0.132028
H13   H     H_    0.269554 0.707503 0.852403 0.134092
H14   H     H_    0.730446 0.207503 0.147597 0.134092
H15   H     H_    0.175194 0.848476 0.899231 0.127636
H16   H     H_    0.824805 0.348476 0.100768 0.127636
H17   H     H_    0.096706 0.393790 0.820432 0.131725
H18   H     H_    0.903294 0.893790 0.179568 0.131725
H19   H     H_    0.143114 0.556999 0.725491 0.134721
H20   H     H_    0.856887 0.056998 0.274509 0.134721
H21   H     H_    0.220255 0.569461 0.641514 0.147811
H22   H     H_    0.779746 0.069461 0.358486 0.147811
O11   O     O_R   0.937810 0.773680 0.060480 -0.537675
O12   O     O_R   0.062190 0.273680 0.939520 -0.537675
O13   O     O_R   0.086190 0.439740 0.092580 -0.541822
O14   O     O_R   0.913810 0.939740 0.907420 -0.541822
C45   C     C_R   0.112469 0.608314 0.114786 0.733246
C46   C     C_R   0.887531 0.108314 0.885213 0.733246
O15   O     O_R   0.939760 0.444210 0.069890 -0.542912
O16   O     O_R   0.060240 0.944210 0.930110 -0.542912
O17   O     O_R   0.914790 0.269640 0.916760 -0.536508
O18   O     O_R   0.085210 0.769640 0.083240 -0.536508
C47   C     C_R   0.919080 0.612395 0.084812 0.699697
C48   C     C_R   0.080920 0.112395 0.915188 0.699697
O19   O     O_3   0.992050 0.601530 0.949880 -0.379489
O20   O     O_3   0.007950 0.101530 0.050120 -0.379489
V3    V     V_3+5 0.001480 0.328340 0.009300 1.397178
V4    V     V_3+5 0.998520 0.828340 0.990700 1.397178
C49   C     C_3   0.298050 0.441218 0.556220 -0.757732
H23   H     H_    0.316031 0.396029 0.505573 0.207725
H24   H     H_    0.239331 0.467236 0.529376 0.192730
H25   H     H_    0.325713 0.571677 0.581290 0.208231
C50   C     C_3   0.701950 0.941218 0.443780 -0.757733
H26   H     H_    0.683968 0.896030 0.494427 0.207726
H27   H     H_    0.760669 0.967233 0.470625 0.192730
H28   H     H_    0.674288 0.071678 0.418710 0.208231

loop_
_geom_bond_atom_site_label_1
_geom_bond_atom_site_label_2
_ccdc_geom_bond_type
C1    C16   S    
C36   H20   S    
C49   H23   S    
O1    C3    A    
C46   O17   A    
O2    C4    A    
C2    O7    A    
C49   H25   S    
C27   C29   A    
C20   C26   A    
O14   V4    S    
C15   C17   A    
C40   H16   S    
C42   C47   S    
C2    C15   S    
C40   C42   A    
C25   C27   A    
C41   C43   A    
C8    H4    S    
C27   H13   S    
C42   C44   A    
O16   V4    S    
C13   C15   A    
O15   V3    S    
C18   H10   S    
C24   C38   A    
C29   C31   A    
C17   H9    S    
C25   H11   S    
C30   C32   A    
C14   C16   A    
C19   C25   A    
C35   H19   S    
C28   C30   A    
C45   O18   A    
O6    V2    S    
C21   C23   A    
C38   H22   S    
C22   C24   A    
C13   C49   S    
O13   C45   A    
C32   C34   A    
O5    C3    A    
O18   V4    S    
C33   C35   A    
C9    H5    S    
C34   C36   A    
C39   C41   A    
C4    C11   S    
C11   H7    S    
C13   C23   A    
C37   H21   S    
C12   H8    S    
C14   C24   A    
O11   V4    S    
O4    C2    A    
O16   C48   A    
O15   C47   A    
O5    V1    S    
C43   H17   S    
C5    H1    S    
C31   C33   A    
O4    V2    S    
C7    H3    S    
C26   H12   S    
O13   V3    S    
C50   H26   S    
O6    C4    A    
C6    C10   S    
C14   C50   S    
O1    V2    S    
O2    V1    S    
C50   H27   S    
C10   H6    S    
O14   C46   A    
C35   C37   A    
O9    V2    S    
C7    C46   S    
O3    V1    S    
C41   C48   S    
C6    H2    S    
C28   H14   S    
O3    C1    A    
C49   H24   S    
C9    C11   D    
C10   C12   D    
C29   C39   A    
C30   C40   A    
C16   C18   A    
O7    V1    S    
C5    C9    S    
C1    O8    A    
C17   C19   A    
O8    V2    S    
O19   V4    S    
C18   C20   A    
C33   C43   A    
C34   C44   A    
C3    C12   S    
O17   V3    S    
C20   C22   A    
O20   V3    S    
C5    C7    D    
C36   C38   A    
C6    C8    D    
O12   C48   A    
O11   C47   A    
C23   C37   A    
C26   C28   A    
C50   H28   S    
C19   C21   A    
C8    C45   S    
C22   C32   A    
C44   H18   S    
O10   V1    S    
O12   V3    S    
C21   C31   A    
C39   H15   S    
