data_mof_unit_57923.cif
_audit_creation_date              2012-12-11T15:15:38-0500
_audit_creation_method            fapswitch 2.2
_symmetry_space_group_name_H-M    P1
_symmetry_Int_Tables_number       1
_space_group_crystal_system       triclinic
_cell_length_a                    20.681262
_cell_length_b                    22.710231
_cell_length_c                    6.933716
_cell_angle_alpha                 89.929536
_cell_angle_beta                  86.49417
_cell_angle_gamma                 90.036426
_cell_volume                      3250.50389439

loop_
_atom_site_label
_atom_site_type_symbol
_atom_type_description
_atom_site_fract_x
_atom_site_fract_y
_atom_site_fract_z
_atom_type_partial_charge
O1    O     O_R   0.387100 0.552640 0.378490 -0.534474
O2    O     O_R   0.612900 0.052640 0.621510 -0.534820
O3    O     O_R   0.249610 0.559600 0.072250 -0.547383
O4    O     O_R   0.750390 0.059600 0.927750 -0.548025
O5    O     O_R   0.249120 0.447360 0.902040 -0.539022
O6    O     O_R   0.750880 0.947360 0.097960 -0.537619
C1    C     C_R   0.226539 0.572874 0.244866 0.684653
C2    C     C_R   0.773020 0.073458 0.754866 0.684597
O7    O     O_R   0.386610 0.559560 0.048860 -0.536098
O8    O     O_R   0.613390 0.059560 0.951140 -0.536146
O9    O     O_R   0.387100 0.447320 0.878470 -0.535863
O10   O     O_R   0.612900 0.947320 0.121530 -0.535822
C3    C     C_R   0.407919 0.574749 0.213728 0.692572
C4    C     C_R   0.592126 0.074773 0.786096 0.691530
O11   O     O_R   0.249120 0.552680 0.402050 -0.543835
O12   O     O_R   0.750880 0.052680 0.597950 -0.543991
O13   O     O_3   0.318110 0.463180 0.223790 -0.369264
O14   O     O_3   0.681890 0.963180 0.776210 -0.367665
V1    V     V_3+5 0.318110 0.506830 0.948930 1.412575
V2    V     V_3+5 0.681890 0.006830 0.051070 1.413478
O15   O     O_R   0.386610 0.440400 0.548840 -0.538473
O16   O     O_R   0.613390 0.940400 0.451160 -0.538446
C5    C     C_R   0.407928 0.425224 0.713847 0.717862
C6    C     C_R   0.592020 0.925255 0.286329 0.718495
O17   O     O_R   0.249610 0.440440 0.572240 -0.548207
O18   O     O_R   0.750390 0.940440 0.427760 -0.548210
C7    C     C_R   0.225462 0.428160 0.745618 0.705602
C8    C     C_R   0.775021 0.928912 0.254883 0.706005
V3    V     V_3+5 0.318110 0.493170 0.448930 1.409415
V4    V     V_3+5 0.681890 0.993170 0.551070 1.411423
O19   O     O_3   0.318110 0.536820 0.723940 -0.368131
O20   O     O_3   0.681890 0.036820 0.276060 -0.369304
C9    C     C_R   0.170196 0.386349 0.767256 -0.092025
C10   C     C_R   0.832580 0.889925 0.235459 -0.091749
C11   C     C_R   0.163418 0.344560 0.621316 -0.231917
C12   C     C_R   0.843076 0.850447 0.385707 -0.235851
C13   C     C_R   0.115073 0.302175 0.638035 -0.189522
C14   C     C_R   0.896588 0.813519 0.376996 -0.177997
C15   C     C_R   0.072209 0.299863 0.801812 0.123029
C16   C     C_R   0.939714 0.812413 0.212723 0.125600
C17   C     C_R   0.076116 0.342566 0.949815 0.194829
C18   C     C_R   0.928885 0.850417 0.055325 0.182837
C19   C     C_R   0.124679 0.387094 0.930694 0.133168
C20   C     C_R   0.878047 0.892524 0.072881 0.142590
C21   C     C_R   0.902792 0.181217 0.884814 -0.121543
C22   C     C_R   0.095476 0.678851 0.113522 -0.131273
C23   C     C_R   0.851983 0.140855 0.901555 -0.182915
C24   C     C_R   0.149826 0.642551 0.098968 -0.184861
C25   C     C_R   0.853662 0.133286 0.552845 -0.166902
C26   C     C_R   0.135638 0.620946 0.441459 -0.169212
C27   C     C_R   0.904620 0.173749 0.536178 -0.148320
C28   C     C_R   0.080806 0.656919 0.455474 -0.146934
C29   C     C_R   0.930188 0.197546 0.701739 0.167735
C30   C     C_R   0.060734 0.686573 0.292268 0.166103
C31   C     C_2   0.024334 0.251585 0.817842 -0.187509
C32   C     C_2   0.997999 0.773900 0.207069 -0.186114
C33   C     C_2   0.983197 0.241344 0.679179 -0.206052
C34   C     C_2   0.002296 0.723957 0.309774 -0.214438
C35   C     C_R   0.826861 0.116333 0.735960 -0.048457
C36   C     C_R   0.170584 0.613250 0.262725 -0.046940
H1    H     H_    0.196822 0.343651 0.494739 0.143588
H2    H     H_    0.810152 0.848686 0.513286 0.144982
H3    H     H_    0.832116 0.129266 0.044701 0.122315
H4    H     H_    0.175227 0.637133 0.958831 0.126496
H5    H     H_    0.835301 0.115380 0.422235 0.121756
H6    H     H_    0.149987 0.598489 0.569939 0.122567
H7    H     H_    0.988081 0.266508 0.545540 0.134693
H8    H     H_    0.962951 0.709811 0.409657 0.129296
H9    H     H_    0.919281 0.200387 0.015782 0.096507
H10   H     H_    0.079910 0.699785 0.983855 0.105212
H11   H     H_    0.021912 0.225538 0.949253 0.128688
H12   H     H_    0.039489 0.787165 0.113688 0.143364
H13   H     H_    0.112281 0.269724 0.524379 0.134201
H14   H     H_    0.904028 0.786225 0.501477 0.129045
H15   H     H_    0.924382 0.186265 0.393681 0.097695
H16   H     H_    0.054280 0.661970 0.594126 0.104185
C37   C     C_R   0.577597 0.361856 0.667302 -0.156564
C38   C     C_R   0.422452 0.861561 0.335938 -0.156934
H17   H     H_    0.667389 0.278691 0.660763 0.125706
H18   H     H_    0.332734 0.778217 0.343674 0.124647
H19   H     H_    0.626882 0.377221 0.637889 0.114339
H20   H     H_    0.373211 0.876779 0.366782 0.113916
C39   C     C_R   0.462644 0.382928 0.711581 -0.052553
C40   C     C_R   0.537308 0.882912 0.289041 -0.052954
C41   C     C_R   0.475244 0.095454 0.826659 -0.164730
C42   C     C_R   0.524728 0.595675 0.170836 -0.164887
C43   C     C_R   0.422027 0.132945 0.834392 -0.116740
C44   C     C_R   0.577908 0.633277 0.162264 -0.116708
C45   C     C_R   0.429968 0.193333 0.804992 -0.158244
C46   C     C_R   0.569973 0.693592 0.192599 -0.158276
C47   C     C_R   0.492142 0.218198 0.766336 0.088989
C48   C     C_R   0.507846 0.718262 0.233086 0.089032
C49   C     C_R   0.546810 0.179158 0.757333 0.068006
C50   C     C_R   0.453229 0.679106 0.243020 0.068345
C51   C     C_R   0.501869 0.280375 0.736715 0.075695
C52   C     C_R   0.498112 0.780358 0.263615 0.075575
C53   C     C_R   0.565938 0.301562 0.698141 0.098308
C54   C     C_R   0.434099 0.801351 0.304057 0.098851
C55   C     C_R   0.618424 0.262554 0.690053 -0.188983
C56   C     C_R   0.381659 0.762231 0.312990 -0.190076
C57   C     C_R   0.609155 0.202492 0.719238 -0.190249
C58   C     C_R   0.390928 0.702245 0.282884 -0.190793
C59   C     C_R   0.450608 0.322441 0.743494 -0.262175
C60   C     C_R   0.549324 0.822524 0.255995 -0.262049
C61   C     C_R   0.526707 0.402640 0.672974 0.149619
C62   C     C_R   0.473311 0.902442 0.329552 0.149539
C63   C     C_R   0.537806 0.117502 0.788059 -0.085864
C64   C     C_R   0.462226 0.617538 0.211309 -0.086419
H21   H     H_    0.400724 0.309701 0.771764 0.103003
H22   H     H_    0.599165 0.809935 0.226323 0.103158
H23   H     H_    0.467570 0.048751 0.851113 0.105817
H24   H     H_    0.532381 0.549036 0.145568 0.105909
H25   H     H_    0.386377 0.219347 0.813727 0.107902
H26   H     H_    0.613532 0.719703 0.183091 0.107773
H27   H     H_    0.373928 0.115004 0.864135 0.119229
H28   H     H_    0.625964 0.615486 0.131092 0.119191
H29   H     H_    0.651491 0.174357 0.711618 0.109326
H30   H     H_    0.348626 0.674015 0.291194 0.109320
C65   C     C_3   0.541314 0.466988 0.638182 -0.784059
H31   H     H_    0.594084 0.475134 0.611991 0.203439
H32   H     H_    0.516713 0.482577 0.509655 0.209580
H33   H     H_    0.523823 0.493100 0.766272 0.203431
C66   C     C_3   0.458738 0.966695 0.365553 -0.784319
H34   H     H_    0.406006 0.974703 0.393055 0.203353
H35   H     H_    0.483667 0.982064 0.493665 0.209610
H36   H     H_    0.475888 0.993093 0.237485 0.203445
C67   C     C_3   0.028481 0.341754 0.125590 -0.816946
H37   H     H_    0.994632 0.304006 0.131175 0.199911
H38   H     H_    0.055312 0.340007 0.259378 0.215431
H39   H     H_    0.997866 0.381883 0.126404 0.215256
C68   C     C_3   0.970329 0.844401 0.868091 -0.830889
H40   H     H_    0.978382 0.797200 0.832421 0.205011
H41   H     H_    0.946647 0.862998 0.742506 0.227880
H42   H     H_    0.017718 0.866477 0.881925 0.210653
C69   C     C_3   0.127448 0.435791 0.080450 -0.737628
H43   H     H_    0.168294 0.427744 0.173749 0.217516
H44   H     H_    0.133511 0.479192 0.007541 0.193580
H45   H     H_    0.083137 0.439936 0.176892 0.202705
C70   C     C_3   0.875863 0.942677 0.928467 -0.743790
H46   H     H_    0.861050 0.984341 0.002078 0.195800
H47   H     H_    0.924317 0.952594 0.858606 0.204156
H48   H     H_    0.841825 0.931902 0.815815 0.213514

loop_
_geom_bond_atom_site_label_1
_geom_bond_atom_site_label_2
_ccdc_geom_bond_type
C69   H45   S    
V4    O20   S    
O6    C8    A    
O13   V3    S    
C17   C67   S    
O4    C2    A    
C68   H42   S    
V1    O19   S    
C66   H34   S    
C15   C17   A    
C7    C9    S    
O9    V1    S    
C5    C39   S    
H17   C55   S    
C11   C13   A    
C27   H15   S    
O3    C1    A    
C2    C35   S    
C23   H3    S    
C70   H48   S    
C42   C44   A    
C24   H4    S    
O12   V4    S    
C48   C52   A    
C21   C23   A    
O7    C3    A    
C9    C11   A    
O5    C7    A    
C46   C48   A    
O7    V1    S    
C15   C31   S    
C51   C59   A    
C16   C32   S    
C52   C54   A    
C62   C66   S    
C38   C54   A    
C26   C28   A    
O3    V1    S    
C18   C68   S    
O14   V4    S    
C45   C47   A    
C43   H27   S    
C58   H30   S    
V2    O20   S    
C24   C36   A    
C16   C18   A    
C8    C10   S    
C2    O12   A    
H18   C56   S    
C17   C19   A    
O10   V2    S    
C18   C20   A    
C33   H7    S    
C3    C64   S    
C12   H2    S    
O1    V3    S    
C53   C55   A    
C28   C30   A    
O11   V3    S    
C22   C24   A    
C65   H32   S    
O17   V3    S    
C45   H25   S    
C23   C35   A    
C41   C43   A    
C21   H9    S    
C9    C19   A    
C69   H43   S    
C10   C20   A    
O8    C4    A    
C49   C57   A    
C29   C33   S    
C66   H36   S    
C1    O11   A    
C14   H14   S    
C25   C27   A    
O15   V3    S    
C39   C61   A    
C27   C29   A    
C44   H28   S    
C42   H24   S    
C67   H38   S    
C25   H5    S    
C47   C49   A    
C38   H20   S    
C40   C62   A    
C37   H19   S    
C70   H46   S    
C50   C64   A    
C22   C30   A    
C56   C58   A    
C11   H1    S    
C19   C69   S    
C26   H6    S    
C39   C59   A    
C34   H8    S    
C4    C63   S    
C55   C57   A    
C44   C46   A    
O18   V4    S    
C20   C70   S    
C54   C56   A    
O15   C5    A    
C28   H16   S    
C40   C60   A    
O16   C6    A    
O1    C3    A    
C68   H40   S    
C1    C36   S    
C60   H22   S    
C30   C34   S    
C65   H33   S    
C69   H44   S    
C52   C60   A    
C13   H13   S    
O16   V4    S    
C32   H12   S    
C42   C64   A    
C68   H41   S    
C65   H31   S    
C51   C53   A    
O5    V1    S    
O17   C7    A    
O6    V2    S    
O10   C6    A    
O18   C8    A    
C37   C61   A    
C25   C35   A    
O2    V4    S    
C59   H21   S    
C57   H29   S    
C31   C33   D    
C6    C40   S    
C67   H39   S    
C26   C36   A    
C13   C15   A    
C49   C63   A    
C12   C14   A    
C14   C16   A    
C70   H47   S    
C48   C50   A    
O8    V2    S    
O9    C5    A    
O13   V1    S    
C10   C12   A    
C32   C34   D    
C38   C62   A    
O14   V2    S    
C46   H26   S    
O2    C4    A    
C22   H10   S    
C66   H35   S    
C21   C29   A    
O4    V2    S    
C41   H23   S    
C50   C58   A    
C47   C51   A    
V3    O19   S    
C43   C45   A    
C61   C65   S    
C37   C53   A    
C41   C63   A    
C31   H11   S    
C67   H37   S    
