data_mof_unit_45750.cif
_audit_creation_date              2012-12-11T15:26:35-0500
_audit_creation_method            fapswitch 2.2
_symmetry_space_group_name_H-M    P1
_symmetry_Int_Tables_number       1
_space_group_crystal_system       triclinic
_cell_length_a                    7.245917
_cell_length_b                    11.9034
_cell_length_c                    29.053457
_cell_angle_alpha                 89.895197
_cell_angle_beta                  89.995873
_cell_angle_gamma                 89.994486
_cell_volume                      2505.88691621

loop_
_atom_site_label
_atom_site_type_symbol
_atom_type_description
_atom_site_fract_x
_atom_site_fract_y
_atom_site_fract_z
_atom_type_partial_charge
O1    O     O_R   0.647170 0.849180 0.201220 -0.533814
O2    O     O_R   0.352830 0.150820 0.798780 -0.533823
O3    O     O_R   0.352830 0.150820 0.701220 -0.534421
O4    O     O_R   0.647170 0.849180 0.298780 -0.534427
O5    O     O_R   0.147170 0.650820 0.298780 -0.533825
O6    O     O_R   0.852830 0.349180 0.701220 -0.533832
O7    O     O_R   0.852830 0.349180 0.798780 -0.534444
O8    O     O_R   0.147170 0.650820 0.201220 -0.534448
O9    O     O_R   0.317430 0.862210 0.298450 -0.541026
O10   O     O_R   0.682570 0.137790 0.701550 -0.541019
O11   O     O_R   0.682570 0.137790 0.798450 -0.540786
O12   O     O_R   0.317430 0.862210 0.201550 -0.540791
O13   O     O_R   0.817430 0.637790 0.201550 -0.541029
O14   O     O_R   0.182570 0.362210 0.798450 -0.541022
O15   O     O_R   0.182570 0.362210 0.701550 -0.540768
O16   O     O_R   0.817430 0.637790 0.298450 -0.540775
H1    H     H_    0.141324 0.229543 0.458298 0.179133
H2    H     H_    0.858891 0.770528 0.541711 0.179144
H3    H     H_    0.879278 0.773920 0.957648 0.180377
H4    H     H_    0.120562 0.226047 0.042358 0.180394
H5    H     H_    0.642267 0.270260 0.041700 0.179082
H6    H     H_    0.358036 0.729664 0.958295 0.179099
H7    H     H_    0.378867 0.726139 0.542348 0.180312
H8    H     H_    0.621057 0.273859 0.457654 0.180328
C1    C     C_R   0.486040 0.888997 0.313157 0.708082
C2    C     C_R   0.513960 0.110995 0.686844 0.708040
C3    C     C_R   0.513940 0.110667 0.813089 0.706789
C4    C     C_R   0.486060 0.889324 0.186908 0.706786
C5    C     C_R   0.986056 0.611023 0.186839 0.708235
C6    C     C_R   0.013944 0.388978 0.813162 0.708181
C7    C     C_R   0.013939 0.389343 0.686914 0.706827
C8    C     C_R   0.986061 0.610669 0.313090 0.706826
H9    H     H_    0.910444 0.604681 0.691172 0.091959
H10   H     H_    0.089782 0.395376 0.308843 0.091996
H11   H     H_    0.075798 0.394351 0.191801 0.090745
H12   H     H_    0.924073 0.605646 0.808209 0.090742
H13   H     H_    0.409761 0.895458 0.808853 0.092051
H14   H     H_    0.590528 0.104483 0.191135 0.092090
H15   H     H_    0.576193 0.105654 0.308215 0.090725
H16   H     H_    0.423698 0.894332 0.691783 0.090721
H17   H     H_    0.080043 0.346321 0.600723 0.110804
H18   H     H_    0.919767 0.653668 0.399281 0.110810
H19   H     H_    0.930688 0.656183 0.100310 0.111507
H20   H     H_    0.069428 0.343832 0.899692 0.111491
H21   H     H_    0.580542 0.153580 0.899270 0.110803
H22   H     H_    0.419217 0.846452 0.100728 0.110810
H23   H     H_    0.430283 0.843908 0.399684 0.111463
H24   H     H_    0.569789 0.156065 0.600319 0.111449
O17   O     O_3   0.480630 0.680630 0.250000 -0.378381
O18   O     O_3   0.519370 0.319370 0.750000 -0.378381
O19   O     O_3   0.980630 0.819370 0.250000 -0.378405
O20   O     O_3   0.019370 0.180630 0.750000 -0.378403
V1    V     V_3+5 0.205800 0.762860 0.250000 1.389159
V2    V     V_3+5 0.794200 0.237140 0.750000 1.389158
V3    V     V_3+5 0.705800 0.737140 0.250000 1.389194
V4    V     V_3+5 0.294200 0.262860 0.750000 1.389194
H25   H     H_    0.111435 0.291253 0.534471 0.131147
H26   H     H_    0.888733 0.708808 0.465536 0.131147
H27   H     H_    0.905810 0.712042 0.033922 0.132080
H28   H     H_    0.094064 0.287932 0.966082 0.132080
H29   H     H_    0.612167 0.208594 0.965523 0.131112
H30   H     H_    0.388071 0.791344 0.034472 0.131112
H31   H     H_    0.405523 0.788014 0.466073 0.132047
H32   H     H_    0.594429 0.211978 0.533929 0.132044
C9    C     C_R   0.997092 0.530310 0.351361 -0.091705
C10   C     C_R   0.002915 0.469711 0.648646 -0.091658
C11   C     C_R   0.003074 0.469044 0.851404 -0.091128
C12   C     C_R   0.996927 0.530957 0.148598 -0.091182
C13   C     C_R   0.497116 0.969686 0.148639 -0.091847
C14   C     C_R   0.502896 0.030301 0.851356 -0.091796
C15   C     C_R   0.503125 0.030907 0.648604 -0.091049
C16   C     C_R   0.496874 0.969079 0.351399 -0.091084
C17   C     C_R   0.084967 0.346119 0.380896 0.519310
C18   C     C_R   0.915214 0.653945 0.619116 0.519402
C19   C     C_R   0.927708 0.655848 0.880342 0.528061
C20   C     C_R   0.072164 0.344126 0.119667 0.528205
C21   C     C_R   0.585620 0.153726 0.119094 0.518971
C22   C     C_R   0.414637 0.846205 0.880898 0.519095
C23   C     C_R   0.427386 0.844180 0.619654 0.527774
C24   C     C_R   0.572514 0.155824 0.380347 0.527869
C25   C     C_R   0.058428 0.420767 0.343718 -0.267955
C26   C     C_R   0.941714 0.579281 0.656293 -0.268097
C27   C     C_R   0.950096 0.580030 0.843363 -0.279774
C28   C     C_R   0.049824 0.419961 0.156643 -0.279956
C29   C     C_R   0.558894 0.079130 0.156271 -0.267449
C30   C     C_R   0.441289 0.920821 0.843719 -0.267651
C31   C     C_R   0.449902 0.919957 0.656637 -0.279314
C32   C     C_R   0.550039 0.080036 0.343364 -0.279465
C33   C     C_R   0.964620 0.567848 0.396088 -0.214712
C34   C     C_R   0.035321 0.432165 0.603918 -0.214740
C35   C     C_R   0.030553 0.430699 0.896259 -0.219722
C36   C     C_R   0.969482 0.569304 0.103743 -0.219804
C37   C     C_R   0.464394 0.932205 0.103916 -0.214559
C38   C     C_R   0.535535 0.067795 0.896080 -0.214602
C39   C     C_R   0.530739 0.069231 0.603749 -0.219479
C40   C     C_R   0.469286 0.930750 0.396254 -0.219551
C41   C     C_R   0.998855 0.498170 0.434695 0.024015
C42   C     C_R   0.001175 0.501865 0.565313 0.023993
C43   C     C_R   0.000781 0.501409 0.934654 0.022449
C44   C     C_R   0.999193 0.498580 0.065351 0.022426
C45   C     C_R   0.498864 0.001833 0.065304 0.024089
C46   C     C_R   0.501188 0.998140 0.934690 0.024059
C47   C     C_R   0.500827 0.998556 0.565350 0.022510
C48   C     C_R   0.499161 0.001432 0.434651 0.022493
C49   C     C_R   0.059333 0.386279 0.426323 0.059687
C50   C     C_R   0.940784 0.613772 0.573687 0.059739
C51   C     C_R   0.949237 0.614927 0.925937 0.062002
C52   C     C_R   0.050675 0.385052 0.074069 0.061993
C53   C     C_R   0.559764 0.113630 0.073670 0.059529
C54   C     C_R   0.440408 0.886320 0.926322 0.059599
C55   C     C_R   0.449053 0.885082 0.574061 0.062046
C56   C     C_R   0.550892 0.114913 0.425940 0.062032
C57   C     C_R   0.979540 0.536965 0.481235 0.083219
C58   C     C_R   0.020506 0.463075 0.518773 0.083220
C59   C     C_R   0.017292 0.462377 0.981322 0.083987
C60   C     C_R   0.982668 0.537608 0.018683 0.083994
C61   C     C_R   0.479423 0.963067 0.018767 0.083208
C62   C     C_R   0.520650 0.036902 0.981227 0.083206
C63   C     C_R   0.517382 0.037591 0.518683 0.083937
C64   C     C_R   0.482603 0.962398 0.481319 0.083937
C65   C     C_R   0.077993 0.352498 0.508528 -0.219579
C66   C     C_R   0.922115 0.647553 0.491480 -0.219604
C67   C     C_R   0.933812 0.649645 0.008133 -0.223139
C68   C     C_R   0.066103 0.350334 0.991873 -0.223170
C69   C     C_R   0.578512 0.147398 0.991468 -0.219443
C70   C     C_R   0.421643 0.852555 0.008526 -0.219489
C71   C     C_R   0.433595 0.850389 0.491865 -0.223018
C72   C     C_R   0.566372 0.149602 0.508137 -0.223041
C73   C     C_R   0.096173 0.315355 0.463587 -0.158518
C74   C     C_R   0.903980 0.684704 0.536423 -0.158509
C75   C     C_R   0.917921 0.686952 0.963084 -0.159693
C76   C     C_R   0.081962 0.313022 0.036922 -0.159727
C77   C     C_R   0.596828 0.184511 0.036409 -0.158534
C78   C     C_R   0.403391 0.815430 0.963585 -0.158524
C79   C     C_R   0.417637 0.813084 0.536913 -0.159590
C80   C     C_R   0.582304 0.186911 0.463089 -0.159613
O21   O     O_3   0.157464 0.238522 0.374973 -0.564915
C81   C     C_3   0.080523 0.182062 0.336852 -0.277583
H33   H     H_    0.147274 0.208842 0.304257 0.110955
H34   H     H_    0.928970 0.192603 0.334883 0.167419
H35   H     H_    0.107642 0.090864 0.340911 0.178973
O22   O     O_3   0.842892 0.761593 0.625035 -0.564963
C82   C     C_3   0.919531 0.817932 0.663225 -0.277334
H36   H     H_    0.071028 0.807225 0.665312 0.167388
H37   H     H_    0.852304 0.791184 0.695763 0.110872
H38   H     H_    0.892719 0.909162 0.659162 0.178958
O23   O     O_3   0.870069 0.767212 0.874511 -0.565453
C83   C     C_3   0.920403 0.814697 0.831728 -0.253990
H39   H     H_    0.823910 0.788040 0.804168 0.105042
H40   H     H_    0.064904 0.795119 0.822129 0.162856
H41   H     H_    0.909610 0.907402 0.834508 0.176449
O24   O     O_3   0.129582 0.232715 0.125496 -0.565411
C84   C     C_3   0.079686 0.185353 0.168334 -0.253606
H42   H     H_    0.935319 0.205029 0.178032 0.162756
H43   H     H_    0.176554 0.212028 0.195810 0.104993
H44   H     H_    0.090316 0.092636 0.165582 0.176404
O25   O     O_3   0.658745 0.261127 0.125035 -0.564788
C85   C     C_3   0.580705 0.318027 0.162908 -0.278455
H45   H     H_    0.645807 0.291167 0.195697 0.111275
H46   H     H_    0.428970 0.308036 0.164472 0.167495
H47   H     H_    0.608829 0.409107 0.158853 0.179054
O26   O     O_3   0.341752 0.738733 0.874962 -0.564844
C86   C     C_3   0.419419 0.681993 0.837000 -0.278102
H48   H     H_    0.571087 0.692185 0.835290 0.167472
H49   H     H_    0.353726 0.708824 0.804280 0.111153
H50   H     H_    0.391673 0.590869 0.841058 0.179019
O27   O     O_3   0.369176 0.732946 0.625490 -0.565551
C87   C     C_3   0.420595 0.685142 0.668131 -0.254929
H51   H     H_    0.324976 0.711727 0.695896 0.105214
H52   H     H_    0.565396 0.704500 0.677490 0.163037
H53   H     H_    0.409479 0.592467 0.665274 0.176577
O28   O     O_3   0.630535 0.267100 0.374513 -0.565519
C88   C     C_3   0.579491 0.314799 0.331824 -0.254623
H54   H     H_    0.434775 0.295400 0.322391 0.162984
H55   H     H_    0.675377 0.288164 0.304125 0.105140
H56   H     H_    0.590551 0.407482 0.334651 0.176536

loop_
_geom_bond_atom_site_label_1
_geom_bond_atom_site_label_2
_ccdc_geom_bond_type
O13   V3    S    
C82   H38   S    
O14   V4    S    
C11   C27   A    
O25   C85   S    
C60   C67   A    
C7    C10   S    
O23   C83   S    
C44   C60   A    
C83   H41   S    
C19   C27   A    
C20   C28   A    
C23   C31   A    
O4    C1    A    
C64   C71   A    
O9    C1    A    
C10   C34   A    
C88   H54   S    
C9    C33   A    
H6    C78   S    
O8    C5    A    
H16   C31   S    
O13   C5    A    
C86   H49   S    
O6    V2    S    
O26   C86   S    
C13   C37   A    
C72   C80   A    
C43   C59   A    
C42   C58   A    
C18   C50   A    
C20   O24   S    
H12   C27   S    
C45   C53   A    
C59   C60   A    
C82   H37   S    
C68   C76   A    
C47   C55   A    
H5    C77   S    
H28   C68   S    
O16   C8    A    
C85   H47   S    
C58   C65   A    
C9    C25   A    
C85   H46   S    
C87   H53   S    
C57   C66   A    
C4    C13   S    
C39   C47   A    
H32   C72   S    
O1    C4    A    
H23   C40   S    
O2    C3    A    
C19   C51   A    
C62   C69   A    
C84   H43   S    
C61   C70   A    
C6    C11   S    
C46   C62   A    
O5    C8    A    
C41   C49   A    
C63   C72   A    
H8    C80   S    
C87   H52   S    
H17   C34   S    
C18   O22   S    
C21   C29   A    
C20   C52   A    
O7    C6    A    
H3    C75   S    
C2    C15   S    
H15   C32   S    
C18   C26   A    
H21   C38   S    
C17   C25   A    
C16   C32   A    
O20   V2    S    
C88   H55   S    
H27   C67   S    
C44   C52   A    
H26   C66   S    
C56   C80   A    
H14   C29   S    
C53   C77   A    
C12   C28   A    
H13   C30   S    
C86   H50   S    
C83   H39   S    
C51   C75   A    
H24   C39   S    
C37   C45   A    
O27   C87   S    
H30   C70   S    
C49   C73   A    
C19   O23   S    
O17   V3    S    
H1    C73   S    
O18   V4    S    
C33   C41   A    
O19   V1    S    
H4    C76   S    
C10   C26   A    
C5    C12   S    
O3    V4    S    
C17   C49   A    
O11   C3    A    
H11   C28   S    
C69   C77   A    
C24   C56   A    
C11   C35   A    
O10   C2    A    
C22   C54   A    
C1    C16   S    
C84   H44   S    
C21   C53   A    
C3    C14   S    
C38   C46   A    
H20   C35   S    
C81   H34   S    
C15   C31   A    
C83   H40   S    
O11   V2    S    
C87   H51   S    
H10   C25   S    
O12   C4    A    
C22   O26   S    
C40   C48   A    
O4    V3    S    
C85   H45   S    
C46   C54   A    
O9    V1    S    
C24   O28   S    
C41   C57   A    
C14   C30   A    
C13   C29   A    
O28   C88   S    
C36   C44   A    
C48   C56   A    
C57   C58   A    
H9    C26   S    
C88   H56   S    
O5    V1    S    
C50   C74   A    
C54   C78   A    
C65   C73   A    
C59   C68   A    
C67   C75   A    
O3    C2    A    
C47   C63   A    
O12   V1    S    
C71   C79   A    
C81   H35   S    
O8    V1    S    
C63   C64   A    
O15   C7    A    
H7    C79   S    
C14   C38   A    
C43   C51   A    
O21   C81   S    
H19   C36   S    
C42   C50   A    
C23   C55   A    
H18   C33   S    
C23   O27   S    
O15   V4    S    
O1    V3    S    
O16   V3    S    
C45   C61   A    
C24   C32   A    
O2    V4    S    
C61   C62   A    
C55   C79   A    
H22   C37   S    
C17   O21   S    
C12   C36   A    
C66   C74   A    
O6    C7    A    
O10   V2    S    
H31   C71   S    
C52   C76   A    
C86   H48   S    
H2    C74   S    
C81   H33   S    
H25   C65   S    
C16   C40   A    
C15   C39   A    
O24   C84   S    
C70   C78   A    
C22   C30   A    
O22   C82   S    
H29   C69   S    
O7    V2    S    
C35   C43   A    
C84   H42   S    
C34   C42   A    
O14   C6    A    
C82   H36   S    
C21   O25   S    
C8    C9    S    
C48   C64   A    
