data_mof_unit_60290.cif
_audit_creation_date              2012-10-26T21:10:12-0400
_audit_creation_method            fapswitch 2.2
_symmetry_space_group_name_H-M    P1
_symmetry_Int_Tables_number       1
_space_group_crystal_system       triclinic
_cell_length_a                    15.85975
_cell_length_b                    16.577477
_cell_length_c                    17.846282
_cell_angle_alpha                 89.926922
_cell_angle_beta                  93.930738
_cell_angle_gamma                 69.807454
_cell_volume                      4391.74842283

loop_
_atom_site_label
_atom_site_type_symbol
_atom_type_description
_atom_site_fract_x
_atom_site_fract_y
_atom_site_fract_z
_atom_type_partial_charge
C1    C     C_R   0.491881 0.502606 0.644031 0.584699
C2    C     C_R   0.481317 0.578233 0.768505 0.092742
C3    C     C_R   0.518381 0.493777 0.273025 -0.003986
C4    C     C_R   0.481144 0.505330 0.726840 -0.004158
C5    C     C_R   0.517224 0.567717 0.231538 -0.037484
C6    C     C_R   0.476692 0.432318 0.766402 -0.035442
C7    C     C_R   0.501166 0.571461 0.152642 -0.030060
C8    C     C_R   0.492868 0.425607 0.845258 -0.030238
C9    C     C_R   0.498931 0.497840 0.114426 0.012080
C10   C     C_R   0.501862 0.495656 0.885339 0.012534
C11   C     C_1   0.499532 0.496271 0.033563 0.102538
C12   C     C_R   0.507933 0.497369 0.355915 0.583104
C13   C     C_1   0.501787 0.495346 0.966236 0.102897
C14   C     C_R   0.442708 0.188535 0.449185 -0.026224
C15   C     C_R   0.556774 0.811687 0.551030 -0.028819
C16   C     C_R   0.672656 0.447515 0.497218 0.570639
C17   C     C_R   0.327559 0.552413 0.503358 0.571559
C18   C     C_R   0.442832 0.274574 0.449705 0.247579
C19   C     C_R   0.557320 0.725426 0.550124 0.247922
C20   C     C_R   0.557072 0.237301 0.550737 0.197545
C21   C     C_R   0.442057 0.762901 0.449898 0.200188
C22   C     C_R   0.555345 0.151851 0.553786 -0.006381
C23   C     C_R   0.099232 0.394483 0.507727 -0.082468
C24   C     C_R   0.443529 0.848435 0.446864 -0.003273
C25   C     C_R   0.497881 0.127024 0.502406 -0.023584
C26   C     C_R   0.501189 0.873272 0.498032 -0.024528
C27   C     C_1   0.499072 0.037226 0.501020 0.071014
C28   C     C_1   0.499791 0.963139 0.499454 0.070148
C29   C     C_R   0.772069 0.415065 0.494374 0.013847
C30   C     C_R   0.229745 0.583914 0.514111 0.015186
C31   C     C_R   0.917048 0.302958 0.482982 -0.070535
C32   C     C_R   0.090276 0.690131 0.549456 -0.072534
C33   C     C_R   0.823431 0.328598 0.480702 0.093266
C34   C     C_R   0.910667 0.594480 0.543839 -0.085156
C35   C     C_R   0.181419 0.667657 0.537580 0.090907
C36   C     C_R   0.816817 0.474138 0.505131 -0.124190
C37   C     C_R   0.184764 0.524895 0.505220 -0.119556
C38   C     C_R   0.911364 0.449046 0.509184 0.013366
C39   C     C_R   0.094361 0.545007 0.521382 0.013994
C40   C     C_R   0.961926 0.361574 0.497269 0.037445
C41   C     C_R   0.045812 0.630324 0.541453 0.035636
C42   C     C_R   0.956498 0.509229 0.522681 0.018465
C43   C     C_R   0.050845 0.482763 0.516459 0.019357
C44   C     C_2   0.384569 0.161395 0.393393 0.303531
C45   C     C_R   0.056201 0.334713 0.498621 0.095470
C46   C     C_2   0.614441 0.839080 0.607075 0.305522
C47   C     C_2   0.614867 0.088227 0.610579 0.250791
C48   C     C_2   0.383397 0.912189 0.390453 0.251675
C49   C     C_2   0.539024 0.639265 0.268323 0.261574
C50   C     C_2   0.448975 0.365095 0.727536 0.261718
C51   C     C_2   0.485871 0.653093 0.110354 0.252086
C52   C     C_2   0.501461 0.344467 0.885477 0.250391
C53   C     C_R   0.954118 0.653868 0.553816 0.094714
C54   C     C_R   0.508746 0.421977 0.154584 0.102854
C55   C     C_R   0.497740 0.571033 0.847048 0.104872
C56   C     C_R   0.523817 0.418071 0.233253 0.092294
Cu1   Cu    Cu3+1 0.500000 0.419580 0.500020 1.095549
Cu2   Cu    Cu3+1 0.500000 0.580420 0.499980 1.096088
H1    H     H_    0.221684 0.463171 0.484173 0.150103
H2    H     H_    0.314129 0.916158 0.378495 0.157073
H3    H     H_    0.499266 0.705596 0.253172 0.129903
H4    H     H_    0.483903 0.297564 0.741866 0.130957
H5    H     H_    0.528358 0.691184 0.122997 0.130393
H6    H     H_    0.452982 0.312580 0.873063 0.128989
H7    H     H_    0.775857 0.540663 0.507643 0.151834
H8    H     H_    0.954058 0.236563 0.471811 0.182543
H9    H     H_    0.055160 0.754952 0.566322 0.182038
H10   H     H_    0.171691 0.368715 0.510297 0.144416
H11   H     H_    0.840983 0.616897 0.555893 0.146874
H12   H     H_    0.345196 0.124007 0.411829 0.155329
H13   H     H_    0.652566 0.877840 0.589006 0.153843
H14   H     H_    0.684143 0.084081 0.622883 0.158410
I1    I     I_    0.141110 0.204670 0.486425 -0.316430
I2    I     I_    0.523197 0.672284 0.908295 -0.119939
I3    I     I_    0.575522 0.292442 0.286384 -0.119344
I4    I     I_    0.434357 0.705495 0.719008 -0.110656
I5    I     I_    0.873612 0.778736 0.586745 -0.295946
I6    I     I_    0.345766 0.364501 0.371871 -0.192925
I7    I     I_    0.655442 0.635222 0.627136 -0.199953
I8    I     I_    0.650663 0.265827 0.630059 -0.257168
I9    I     I_    0.346866 0.734704 0.372097 -0.260855
I10   I     I_    0.236220 0.765878 0.561545 -0.220102
I11   I     I_    0.770224 0.231634 0.447456 -0.224942
I12   I     I_    0.494293 0.314446 0.095773 -0.109471
N1    N     N_R   0.500020 0.298780 0.500030 -0.222925
N2    N     N_R   0.499980 0.701220 0.499970 -0.222083
O1    O     O_R   0.500010 0.432060 0.608760 -0.457879
O2    O     O_2   0.615690 0.823150 0.674022 -0.385359
O3    O     O_2   0.586400 0.040762 0.645342 -0.456238
O4    O     O_2   0.411335 0.960019 0.355631 -0.458349
O5    O     O_2   0.604717 0.624394 0.313060 -0.462873
O6    O     O_2   0.383866 0.385109 0.681717 -0.467891
O7    O     O_2   0.422690 0.680148 0.063087 -0.434473
O8    O     O_2   0.565790 0.310624 0.930346 -0.431308
O9    O     O_R   0.499990 0.567940 0.391240 -0.455718
O10   O     O_R   0.500000 0.567880 0.608730 -0.472855
O11   O     O_R   0.500000 0.432120 0.391270 -0.473611
O12   O     O_R   0.629840 0.394000 0.500020 -0.464026
O13   O     O_R   0.370160 0.606000 0.499980 -0.465271
O14   O     O_R   0.629830 0.529820 0.499990 -0.492062
O15   O     O_R   0.370170 0.470180 0.500010 -0.490003
O16   O     O_2   0.384231 0.176040 0.326303 -0.391221

loop_
_geom_bond_atom_site_label_1
_geom_bond_atom_site_label_2
_ccdc_geom_bond_type
C1    O1    A    
C31   H8    S    
C23   C45   A    
C14   C18   A    
C2    C4    A    
C34   C42   A    
C19   N2    A    
C54   I12   S    
C39   C41   A    
C15   C19   A    
C29   C36   A    
C30   C35   A    
C24   C26   A    
C38   C42   A    
C2    C55   A    
C29   C33   A    
C23   C43   A    
C31   C40   A    
C45   I1    S    
Cu2   O10   S    
C17   O15   A    
C3    C12   S    
C55   I2    S    
C22   C25   A    
C32   C41   A    
C31   C33   A    
C12   O9    A    
C52   O8    D    
C8    C52   S    
C22   C47   S    
C56   I3    S    
C48   O4    D    
C17   C30   S    
C47   O3    D    
C5    C49   S    
C49   O5    D    
Cu2   N2    S    
C35   I10   S    
C48   H2    S    
C46   O2    D    
C40   C45   A    
C54   C56   A    
C18   N1    A    
C49   H3    S    
C20   I8    S    
C24   C48   S    
C32   C35   A    
C51   H5    S    
C4    C6    A    
C52   H6    S    
C5    C7    A    
C44   O16   D    
C36   H7    S    
C16   O14   A    
C15   C26   A    
C6    C8    A    
C16   C29   S    
C17   O13   A    
Cu1   O1    S    
C30   C37   A    
C23   H10   S    
C53   I5    S    
Cu2   O9    S    
C9    C11   S    
C3    C56   A    
C18   I6    S    
Cu1   O11   S    
C20   N1    A    
C12   O11   A    
Cu2   O14   S    
C6    C50   S    
C19   I7    S    
C10   C55   A    
C33   I11   S    
C34   H11   S    
C41   C53   A    
C46   H13   S    
C37   H1    S    
C51   O7    D    
C32   H9    S    
C50   O6    D    
C21   I9    S    
C50   H4    S    
C42   C43   A    
C2    I4    S    
C44   H12   S    
C14   C44   S    
C7    C9    A    
C21   N2    A    
Cu2   O13   S    
C20   C22   A    
C3    C5    A    
C10   C13   S    
C39   C43   A    
C25   C27   S    
Cu1   O15   S    
C26   C28   S    
C1    C4    S    
C36   C38   A    
C7    C51   S    
C37   C39   A    
C38   C40   A    
C11   C13   T    
C16   O12   A    
Cu1   Cu2   S    
C1    O10   A    
Cu1   O12   S    
Cu1   N1    S    
C14   C25   A    
C47   H14   S    
C34   C53   A    
C8    C10   A    
C21   C24   A    
C27   C28   T    
C9    C54   A    
C15   C46   S    
