data_mof_unit_57071.cif
_audit_creation_date              2013-03-05T16:47:21-0500
_audit_creation_method            fapswitch 2.2
_symmetry_space_group_name_H-M    P1
_symmetry_Int_Tables_number       1
_space_group_crystal_system       triclinic
_cell_length_a                    10.864673
_cell_length_b                    10.924921
_cell_length_c                    9.684667
_cell_angle_alpha                 89.905562
_cell_angle_beta                  91.005825
_cell_angle_gamma                 89.635083
_cell_volume                      1149.32605655

loop_
_atom_site_label
_atom_site_type_symbol
_atom_site_description
_atom_site_fract_x
_atom_site_fract_y
_atom_site_fract_z
_atom_type_partial_charge
O1    O     O_R   0.500020 0.321960 0.617040 -0.570032
O2    O     O_R   0.499980 0.321920 0.382900 -0.567258
C1    C     C_R   0.501791 0.265314 0.500156 0.882857
O3    O     O_R   0.319660 0.500030 0.617070 -0.574321
O4    O     O_R   0.319620 0.499990 0.382930 -0.568504
C2    C     C_R   0.262077 0.499861 0.498327 0.821244
Cu1   Cu    Cu3+1 0.500020 0.500020 0.638630 0.984496
Cu2   Cu    Cu3+1 0.499980 0.499980 0.361370 0.983895
O5    O     O_R   0.500020 0.678080 0.617100 -0.574242
O6    O     O_R   0.499980 0.678040 0.382960 -0.576767
O7    O     O_R   0.680380 0.500010 0.617070 -0.597070
O8    O     O_R   0.680340 0.499970 0.382930 -0.555934
C3    C     C_R   0.498667 0.734682 0.499993 0.856357
C4    C     C_R   0.737570 0.495274 0.501414 0.851256
H1    H     H_    0.256866 0.435702 0.876150 0.208065
C5    C     C_R   0.179556 0.549227 0.033411 0.209315
C6    C     C_R   0.127132 0.552623 0.163562 -0.122268
H2    H     H_    0.096911 0.639417 0.205532 0.178146
C7    C     C_R   0.115447 0.445060 0.241031 0.055549
C8    C     C_R   0.156462 0.333206 0.187234 -0.241809
H3    H     H_    0.148204 0.250391 0.248046 0.138394
C9    C     C_R   0.207670 0.328715 0.055111 0.016661
C10   C     C_R   0.217895 0.437413 0.978045 -0.171335
C11   C     C_R   0.933439 0.434141 0.391306 -0.034172
C12   C     C_R   0.871622 0.487041 0.504475 -0.071930
C13   C     C_R   0.939760 0.539484 0.615214 0.024577
C14   C     C_R   0.066891 0.536075 0.612380 -0.188471
H4    H     H_    0.118492 0.572187 0.699268 0.199496
C15   C     C_R   0.127848 0.496798 0.494969 -0.081824
C16   C     C_R   0.060048 0.453422 0.379218 -0.042962
C17   C     C_R   0.824959 0.718944 0.722841 0.061328
C18   C     C_R   0.766749 0.768478 0.838813 -0.194378
H5    H     H_    0.721184 0.856872 0.832481 0.121751
C19   C     C_R   0.767545 0.705632 0.964435 -0.072275
H6    H     H_    0.722696 0.745087 0.052989 0.142699
C20   C     C_R   0.826586 0.592464 0.976371 -0.112433
H7    H     H_    0.827426 0.544614 0.074164 0.128462
C21   C     C_R   0.883356 0.540526 0.862177 -0.157485
H8    H     H_    0.927339 0.451644 0.872925 0.132901
C22   C     C_R   0.882278 0.601765 0.734369 0.136236
C23   C     C_2   0.504433 0.933147 0.386642 -0.140415
C24   C     C_2   0.492685 0.866719 0.501994 -0.321340
H9    H     H_    0.516451 0.888450 0.287610 0.176423
H10   H     H_    0.475908 0.907751 0.601536 0.162963
C25   C     C_2   0.498759 0.067177 0.386536 -0.133289
C26   C     C_2   0.508762 0.133292 0.502568 -0.270280
H11   H     H_    0.487615 0.112135 0.286886 0.168030
H12   H     H_    0.525058 0.092042 0.602908 0.148173
C27   C     C_2   0.553311 0.417009 0.923371 -0.027888
N1    N     N_2   0.498640 0.498660 0.846910 -0.282882
H13   H     H_    0.601309 0.342478 0.873221 0.158657
H14   H     H_    0.458191 0.572729 0.892973 0.222196
C28   C     C_2   0.556670 0.419361 0.078996 -0.081424
N2    N     N_2   0.498610 0.498630 0.153040 -0.286414
H15   H     H_    0.610872 0.349169 0.131312 0.185038
H16   H     H_    0.444231 0.563432 0.105008 0.217460
Br1   Br    Br    0.202902 0.699078 0.935551 -0.578991
C29   C     C_2   0.251189 0.210395 0.999890 0.362812
H17   H     H_    0.242851 0.127616 0.061096 0.083916
O9    O     O_2   0.297076 0.203749 0.885899 -0.537196
C30   C     C_2   0.869394 0.354262 0.288405 0.347605
H18   H     H_    0.896733 0.353278 0.181280 0.062827
O10   O     O_2   0.789605 0.283378 0.324446 -0.555007
C31   C     C_2   0.823470 0.793425 0.594223 0.324631
H19   H     H_    0.768343 0.876609 0.588846 0.079408
O11   O     O_2   0.884457 0.765441 0.494326 -0.543226

loop_
_geom_bond_atom_site_label_1
_geom_bond_atom_site_label_2
_geom_bond_distance
_ccdc_geom_bond_type
C9    C29   1.477788 S    
O4    Cu2   1.974286 S    
N1    H14   1.024935 S    
C11   C12   1.417495 A    
C18   C19   1.395862 A    
C15   C16   1.414582 A    
O2    C1    1.291948 A    
C14   C15   1.392891 A    
C23   C24   1.339588 D    
C1    C26   1.443957 S    
C7    C8    1.402355 A    
Cu2   O8    1.966996 S    
C31   H19   1.085881 S    
C27   H13   1.084261 S    
H1    C10   1.080769 S    
C6    H2    1.083581 S    
C12   C13   1.416351 A    
Cu1   Cu2   2.685165 S    
O1    Cu1   1.956839 S    
C28   N2    1.293468 D    
C17   C22   1.423394 A    
Cu1   O7    1.974285 S    
C23   H9    1.086498 S    
C13   C22   1.485639 S    
C13   C14   1.382256 A    
C11   C30   1.491685 S    
C24   H10   1.081707 S    
O3    Cu1   1.966997 S    
C27   C28   1.507243 S    
O4    C2    1.290110 A    
C20   C21   1.395361 A    
C20   H7    1.080899 S    
C21   C22   1.405884 A    
C8    C9    1.405022 A    
C27   N1    1.293254 D    
C5    C10   1.398831 A    
C19   C20   1.392920 A    
C5    Br1   1.910833 S    
C28   H15   1.083536 S    
C4    C12   1.458412 S    
C30   H18   1.084203 S    
O7    C4    1.291345 A    
N2    H16   1.024973 S    
C11   C16   1.399827 A    
C29   O9    1.221348 D    
C26   H12   1.081785 S    
C2    C15   1.458738 S    
C21   H8    1.083562 S    
C8    H3    1.083789 S    
Cu1   N1    2.017471 S    
Cu2   O6    1.956839 S    
C19   H6    1.082561 S    
C25   H11   1.086675 S    
Cu2   N2    2.017479 S    
C14   H4    1.079537 S    
Cu1   O5    1.956093 S    
C23   C25   1.465172 S    
C9    C10   1.407570 A    
C3    C24   1.443712 S    
O5    C3    1.290690 A    
C6    C7    1.400801 A    
C29   H17   1.085631 S    
C25   C26   1.340033 D    
C7    C16   1.479746 S    
O3    C2    1.299481 A    
C17   C31   1.486517 S    
C30   O10   1.221184 D    
O2    Cu2   1.956092 S    
C17   C18   1.406008 A    
C18   H5    1.083528 S    
O8    C4    1.296263 A    
C5    C6    1.392724 A    
O1    C1    1.291379 A    
O6    C3    1.292497 A    
C31   O11   1.220403 D    
