data_mof_unit_49346.cif
_audit_creation_date              2013-03-05T15:44:15-0500
_audit_creation_method            fapswitch 2.2
_symmetry_space_group_name_H-M    P1
_symmetry_Int_Tables_number       1
_space_group_crystal_system       triclinic
_cell_length_a                    19.641713
_cell_length_b                    10.976772
_cell_length_c                    19.497482
_cell_angle_alpha                 89.647515
_cell_angle_beta                  97.636886
_cell_angle_gamma                 89.979896
_cell_volume                      4166.34008841

loop_
_atom_site_label
_atom_site_type_symbol
_atom_site_description
_atom_site_fract_x
_atom_site_fract_y
_atom_site_fract_z
_atom_type_partial_charge
O1    O     O_R   0.783230 0.287800 0.346510 -0.491662
O2    O     O_R   0.216770 0.287800 0.653490 -0.526690
O3    O     O_R   0.283230 0.787800 0.346510 -0.522588
O4    O     O_R   0.716770 0.787800 0.653490 -0.526068
O5    O     O_R   0.760130 0.037060 0.338610 -0.526630
O6    O     O_R   0.239870 0.037060 0.661390 -0.512961
O7    O     O_R   0.260130 0.537060 0.338610 -0.511272
O8    O     O_R   0.739870 0.537060 0.661390 -0.512358
C1    C     C_R   0.726278 0.949146 0.359874 0.582219
C2    C     C_R   0.275861 0.956971 0.637835 0.567807
C3    C     C_R   0.225549 0.451963 0.361080 0.598774
C4    C     C_R   0.775476 0.455759 0.638096 0.558690
O9    O     O_R   0.666620 0.921370 0.332440 -0.492169
O10   O     O_R   0.333380 0.921370 0.667560 -0.472862
O11   O     O_R   0.166620 0.421370 0.332440 -0.492728
O12   O     O_R   0.833380 0.421370 0.667560 -0.477817
O13   O     O_R   0.557170 0.082420 0.312350 -0.498422
O14   O     O_R   0.442830 0.082420 0.687650 -0.505813
O15   O     O_R   0.057170 0.582420 0.312350 -0.495775
O16   O     O_R   0.942830 0.582420 0.687650 -0.504955
C5    C     C_R   0.535937 0.179882 0.338369 0.539523
C6    C     C_R   0.464569 0.180290 0.662016 0.534235
C7    C     C_R   0.035620 0.679897 0.338146 0.546048
C8    C     C_R   0.964290 0.680328 0.661813 0.535879
O17   O     O_R   0.548310 0.285980 0.316250 -0.514358
O18   O     O_R   0.451690 0.285980 0.683750 -0.482011
O19   O     O_R   0.048310 0.785980 0.316250 -0.511339
O20   O     O_R   0.951690 0.785980 0.683750 -0.477985
O21   O     O_R   0.680520 0.375500 0.327470 -0.444259
O22   O     O_R   0.319480 0.375500 0.672530 -0.455487
O23   O     O_R   0.180520 0.875500 0.327470 -0.485634
O24   O     O_R   0.819480 0.875500 0.672530 -0.452305
C9    C     C_R   0.725401 0.312813 0.367771 0.558094
C10   C     C_R   0.259594 0.367116 0.639856 0.560523
C11   C     C_R   0.238707 0.860236 0.362233 0.605152
C12   C     C_R   0.760621 0.863204 0.638335 0.560825
O25   O     O_R   0.780350 0.286970 0.193350 -0.500258
O26   O     O_R   0.219650 0.286970 0.806650 -0.508033
O27   O     O_R   0.280350 0.786970 0.193350 -0.504125
O28   O     O_R   0.719650 0.786970 0.806650 -0.507565
O29   O     O_R   0.757460 0.036290 0.196640 -0.498053
O30   O     O_R   0.242540 0.036290 0.803360 -0.496088
O31   O     O_R   0.257460 0.536290 0.196640 -0.496563
O32   O     O_R   0.742540 0.536290 0.803360 -0.496115
C13   C     C_R   0.721796 0.953319 0.163614 0.554096
C14   C     C_R   0.278212 0.952817 0.836345 0.545847
C15   C     C_R   0.221797 0.453314 0.163616 0.554635
C16   C     C_R   0.778211 0.452816 0.836345 0.544558
O33   O     O_R   0.663740 0.920540 0.179290 -0.496622
O34   O     O_R   0.336260 0.920540 0.820710 -0.498431
O35   O     O_R   0.163740 0.420540 0.179290 -0.498791
O36   O     O_R   0.836260 0.420540 0.820710 -0.499425
O37   O     O_R   0.554500 0.081650 0.170370 -0.499696
O38   O     O_R   0.445500 0.081650 0.829630 -0.503290
O39   O     O_R   0.054500 0.581650 0.170370 -0.501265
O40   O     O_R   0.945500 0.581650 0.829630 -0.503058
C17   C     C_R   0.530120 0.178910 0.140917 0.545396
C18   C     C_R   0.469973 0.178411 0.859061 0.535968
C19   C     C_R   0.030117 0.678909 0.140918 0.545015
C20   C     C_R   0.969975 0.678411 0.859061 0.536211
O41   O     O_R   0.545430 0.285140 0.163100 -0.513457
O42   O     O_R   0.454570 0.285140 0.836900 -0.514040
O43   O     O_R   0.045430 0.785140 0.163100 -0.513329
O44   O     O_R   0.954570 0.785140 0.836900 -0.514141
O45   O     O_R   0.677850 0.374730 0.185500 -0.483017
O46   O     O_R   0.322150 0.374730 0.814500 -0.491650
O47   O     O_R   0.177850 0.874730 0.185500 -0.488503
O48   O     O_R   0.822150 0.874730 0.814500 -0.492091
C21   C     C_R   0.735788 0.360142 0.164269 0.567620
C22   C     C_R   0.264248 0.359444 0.835820 0.542460
C23   C     C_R   0.235786 0.860135 0.164265 0.557536
C24   C     C_R   0.764247 0.859447 0.835818 0.542198
Cr1   Cr    Cr6+3 0.765830 0.160660 0.268180 1.048388
Cr2   Cr    Cr6+3 0.234170 0.160660 0.731820 1.040912
Cr3   Cr    Cr6+3 0.265830 0.660660 0.268180 1.050655
Cr4   Cr    Cr6+3 0.734170 0.660660 0.731820 1.039944
Cr5   Cr    Cr6+3 0.612110 0.009150 0.248770 1.048956
Cr6   Cr    Cr6+3 0.387890 0.009150 0.751230 1.058686
Cr7   Cr    Cr6+3 0.112110 0.509150 0.248770 1.053516
Cr8   Cr    Cr6+3 0.887890 0.509150 0.751230 1.056474
Cr9   Cr    Cr6+3 0.615930 0.324050 0.248450 1.068105
Cr10  Cr    Cr6+3 0.384070 0.324050 0.751550 1.086099
Cr11  Cr    Cr6+3 0.115930 0.824050 0.248450 1.056241
Cr12  Cr    Cr6+3 0.884070 0.824050 0.751550 1.088628
O49   O     O_3   0.664630 0.164620 0.255130 -0.302948
O50   O     O_3   0.335370 0.164620 0.744870 -0.280989
O51   O     O_3   0.164630 0.664620 0.255130 -0.282789
O52   O     O_3   0.835370 0.664620 0.744870 -0.280917
C25   C     C_1   0.486715 0.172733 0.595290 0.002696
C26   C     C_1   0.515854 0.171509 0.406002 0.035931
C27   C     C_1   0.985496 0.672900 0.594668 0.007258
C28   C     C_1   0.014511 0.671693 0.405353 0.027585
C29   C     C_1   0.506361 0.168295 0.465658 -0.000494
C30   C     C_1   0.497585 0.168974 0.536098 -0.026915
C31   C     C_1   0.004365 0.668651 0.464805 -0.013504
C32   C     C_1   0.995715 0.669271 0.535271 -0.030585
C33   C     C_3   0.702865 0.482471 0.512288 -0.127320
C34   C     C_3   0.308203 0.395450 0.479449 -0.070303
C35   C     C_3   0.212826 0.009793 0.510992 -0.136020
C36   C     C_3   0.809121 0.877868 0.476270 -0.077552
C37   C     C_3   0.679562 0.352819 0.488055 -0.181573
C38   C     C_3   0.267796 0.303749 0.518833 -0.103403
C39   C     C_3   0.186553 0.887308 0.478784 -0.166387
C40   C     C_3   0.766194 0.790084 0.515934 -0.107809
H1    H     H_    0.625715 0.322536 0.474317 0.129429
H2    H     H_    0.288110 0.214622 0.538994 0.135293
H3    H     H_    0.132291 0.864381 0.459799 0.144137
H4    H     H_    0.782182 0.697413 0.534258 0.132321
H5    H     H_    0.668933 0.559852 0.521551 0.138842
H6    H     H_    0.358110 0.378782 0.460300 0.179542
H7    H     H_    0.179977 0.086770 0.523176 0.137772
H8    H     H_    0.857987 0.855747 0.456296 0.172188
C41   C     C_3   0.734096 0.353949 0.438506 0.023917
C42   C     C_3   0.252162 0.404912 0.568582 0.038088
C43   C     C_3   0.245039 0.891418 0.433725 0.041934
C44   C     C_3   0.754709 0.893383 0.566196 0.037177
C45   C     C_3   0.757015 0.480147 0.462159 0.220247
C46   C     C_3   0.292268 0.494240 0.530135 0.196056
C47   C     C_3   0.270769 0.009723 0.464937 0.189776
C48   C     C_3   0.797113 0.978290 0.527661 0.197221
C49   C     C_3   0.811342 0.425092 0.516907 -0.090203
C50   C     C_3   0.225184 0.529467 0.484163 -0.160916
C51   C     C_3   0.319724 0.940663 0.519347 -0.090904
C52   C     C_3   0.730763 0.020063 0.482939 -0.158485
C53   C     C_3   0.788050 0.296723 0.493220 -0.108890
C54   C     C_3   0.184804 0.436399 0.523061 -0.170376
C55   C     C_3   0.292969 0.819103 0.487836 -0.104852
C56   C     C_3   0.688102 0.931426 0.521686 -0.172270
C57   C     C_3   0.733582 0.294537 0.543950 -0.124128
C58   C     C_3   0.199746 0.334925 0.472771 -0.088203
C59   C     C_3   0.234692 0.815312 0.534014 -0.130583
C60   C     C_3   0.698980 0.828893 0.470579 -0.083029
C61   C     C_3   0.756716 0.421891 0.566833 0.013242
C62   C     C_3   0.240162 0.426558 0.434526 0.042164
C63   C     C_3   0.261143 0.935524 0.564870 0.021590
C64   C     C_3   0.741893 0.916784 0.432315 0.041514
H9    H     H_    0.374135 0.964096 0.537403 0.155303
H10   H     H_    0.710764 0.108658 0.462705 0.095491
H11   H     H_    0.865207 0.456656 0.529921 0.152219
H12   H     H_    0.205266 0.618446 0.463551 0.107588
H13   H     H_    0.823666 0.224950 0.480286 0.188490
H14   H     H_    0.135124 0.454410 0.542429 0.137332
H15   H     H_    0.325950 0.743283 0.474567 0.192365
H16   H     H_    0.639417 0.954569 0.541769 0.134190
H17   H     H_    0.722777 0.220205 0.579778 0.159844
H18   H     H_    0.161910 0.268434 0.447748 0.168126
H19   H     H_    0.218411 0.739127 0.565726 0.156738
H20   H     H_    0.658576 0.766371 0.446181 0.174385
C65   C     C_3   0.530436 0.268723 0.976027 -0.113301
C66   C     C_3   0.472939 0.272755 0.022719 -0.110243
C67   C     C_3   0.030385 0.768793 0.976031 -0.113129
C68   C     C_3   0.972879 0.772709 0.022722 -0.110345
C69   C     C_3   0.567354 0.166649 0.021245 -0.110584
C70   C     C_3   0.432677 0.173584 0.978796 -0.107532
C71   C     C_3   0.067361 0.666763 0.021246 -0.110318
C72   C     C_3   0.932671 0.673471 0.978796 -0.107544
H21   H     H_    0.623142 0.163799 0.040660 0.117016
H22   H     H_    0.376884 0.176308 0.959400 0.118851
H23   H     H_    0.123154 0.664008 0.040661 0.117411
H24   H     H_    0.876872 0.676102 0.959399 0.119005
H25   H     H_    0.556039 0.348182 0.954993 0.132083
H26   H     H_    0.450041 0.355647 0.042696 0.133785
H27   H     H_    0.055948 0.848310 0.954999 0.132154
H28   H     H_    0.949932 0.855558 0.042701 0.133491
C73   C     C_3   0.509394 0.171074 0.067199 0.053008
C74   C     C_3   0.490640 0.169917 0.932818 0.053356
C75   C     C_3   0.009392 0.671071 0.067200 0.053396
C76   C     C_3   0.990642 0.669921 0.932818 0.053385
C77   C     C_3   0.469695 0.071567 0.024401 -0.119914
C78   C     C_3   0.526982 0.067531 0.976907 -0.119552
C79   C     C_3   0.969747 0.571498 0.024398 -0.119928
C80   C     C_3   0.027042 0.567579 0.976905 -0.119750
H29   H     H_    0.444271 0.992336 0.045853 0.128431
H30   H     H_    0.549694 0.984880 0.956490 0.128156
H31   H     H_    0.944364 0.492209 0.045848 0.128456
H32   H     H_    0.049804 0.484969 0.956486 0.128100
C81   C     C_1   0.763156 0.425346 0.904296 -0.003441
C82   C     C_1   0.237034 0.426200 0.095732 -0.001319
C83   C     C_1   0.263157 0.925347 0.904296 -0.003188
C84   C     C_1   0.737032 0.926205 0.095730 -0.001310
C85   C     C_1   0.747488 0.407838 0.034560 -0.048013
C86   C     C_1   0.252393 0.407412 0.965375 -0.047292
C87   C     C_1   0.247489 0.907839 0.034558 -0.047611
C88   C     C_1   0.752392 0.907416 0.965373 -0.047368
C89   C     C_1   0.754492 0.415213 0.963888 -0.046772
C90   C     C_1   0.245586 0.415645 0.036127 -0.046545
C91   C     C_1   0.254493 0.915215 0.963888 -0.047021
C92   C     C_1   0.745585 0.915650 0.036125 -0.046461
C93   C     C_1   0.742457 0.394637 0.094867 -0.004195
C94   C     C_1   0.257364 0.393751 0.905103 -0.003812
C95   C     C_1   0.242457 0.894635 0.094864 -0.001779
C96   C     C_1   0.757363 0.893755 0.905102 -0.004334
N1    N     N_R   0.770286 0.575891 0.413556 0.073838
O53   O     O_R   0.720799 0.616235 0.368165 -0.328076
O54   O     O_R   0.832849 0.612267 0.410670 -0.369413
N2    N     N_R   0.343764 0.575395 0.565955 0.067367
O55   O     O_R   0.405880 0.575739 0.549645 -0.342822
O56   O     O_R   0.330784 0.634607 0.620319 -0.340942
N3    N     N_R   0.289740 0.107037 0.420084 0.053348
O57   O     O_R   0.245050 0.147490 0.369895 -0.349741
O58   O     O_R   0.353703 0.138897 0.422619 -0.378996
N4    N     N_R   0.851939 0.053614 0.562956 0.069382
O59   O     O_R   0.913521 0.047058 0.545585 -0.339851
O60   O     O_R   0.841468 0.118146 0.616280 -0.341379

loop_
_geom_bond_atom_site_label_1
_geom_bond_atom_site_label_2
_geom_bond_distance
_ccdc_geom_bond_type
O7    Cr3   1.938298 S    
C18   O42   1.268668 A    
Cr11  O51   1.989336 S    
C79   C80   1.550236 S    
O4    C12   1.256732 A    
O47   Cr11  1.919353 S    
C29   C30   1.406784 S    
C34   H6    1.109852 S    
O39   C19   1.271957 A    
C58   H18   1.109684 S    
C37   C41   1.534834 S    
C77   C78   1.550147 S    
C35   C39   1.546954 S    
C31   C32   1.406666 S    
C33   C61   1.543961 S    
O29   Cr1   1.949099 S    
O26   C22   1.263854 A    
O1    C9    1.289846 A    
C72   C76   1.540570 S    
O7    C3    1.265039 A    
C20   C76   1.443865 S    
C17   O41   1.268490 A    
N4    O60   1.300300 A    
C47   N3    1.456040 S    
O24   C12   1.263185 A    
C52   H10   1.099773 S    
C42   C46   1.514069 S    
C70   H22   1.111105 S    
C15   C82   1.428301 S    
C59   C63   1.516646 S    
C69   H21   1.111113 S    
C86   C90   1.406978 S    
C42   C54   1.530163 S    
C23   C95   1.425616 S    
O47   C23   1.272001 A    
O20   Cr12  2.039419 S    
C54   C58   1.542071 S    
C81   C89   1.200960 T    
C40   C60   1.546314 S    
C67   C76   1.527785 S    
O21   C9    1.294929 A    
O8    Cr4   1.950032 S    
C48   N4    1.458617 S    
O30   C14   1.271461 A    
C25   C30   1.202209 T    
O32   Cr4   1.936962 S    
C65   C69   1.541374 S    
C50   C62   1.545350 S    
C1    O9    1.260096 A    
C84   C92   1.202391 T    
C13   C84   1.428298 S    
C27   C32   1.202260 T    
C40   C44   1.539229 S    
C3    O11   1.262977 A    
C71   C80   1.545992 S    
O41   Cr9   2.065400 S    
C36   C40   1.549897 S    
O11   Cr7   2.061978 S    
O16   C8    1.279269 A    
C53   H13   1.105714 S    
N1    O54   1.300419 A    
C34   C38   1.544592 S    
C69   C78   1.545914 S    
C67   C68   1.542775 S    
C88   C96   1.202342 T    
O6    Cr2   1.950032 S    
C36   C48   1.533268 S    
O27   Cr3   2.053851 S    
O8    C4    1.257291 A    
O3    Cr3   2.069964 S    
Cr4   O52   1.970662 S    
C57   H17   1.109629 S    
O2    Cr2   2.057091 S    
O48   C24   1.272521 A    
C52   C56   1.542483 S    
C67   H27   1.110289 S    
O2    C10   1.262253 A    
C40   H4    1.107476 S    
O42   Cr10  2.060960 S    
C43   C55   1.534490 S    
Cr5   O49   1.990408 S    
N3    O57   1.300516 A    
O18   Cr10  2.039419 S    
C83   C91   1.200953 T    
O5    Cr1   1.938298 S    
C58   C62   1.531857 S    
C85   C93   1.200898 T    
C66   H26   1.110177 S    
C56   C60   1.541270 S    
Cr7   O51   1.990408 S    
C16   C81   1.425813 S    
C14   O34   1.269592 A    
C34   C46   1.531554 S    
C88   C92   1.406978 S    
C5    C26   1.428184 S    
C73   C77   1.528489 S    
C4    O12   1.260717 A    
O24   Cr12  1.942023 S    
O16   Cr8   1.921449 S    
O9    Cr5   2.061978 S    
O30   Cr2   1.936962 S    
C37   H1    1.107662 S    
N4    O59   1.300791 A    
O22   C10   1.264719 A    
C71   H23   1.111185 S    
O48   Cr12  1.923478 S    
C68   C72   1.541471 S    
C72   H24   1.111182 S    
C2    C63   1.434490 S    
N2    O56   1.300435 A    
C2    O10   1.260112 A    
C3    C62   1.447959 S    
C71   C75   1.540497 S    
C85   C89   1.404678 S    
O15   C7    1.280582 A    
C52   C64   1.542143 S    
C15   O35   1.270738 A    
O26   Cr2   2.065800 S    
Cr10  O50   1.991336 S    
C66   C73   1.527440 S    
C79   H31   1.110042 S    
C54   H14   1.110212 S    
C28   C31   1.202252 T    
O13   C5    1.280005 A    
C44   C48   1.511658 S    
C70   C77   1.545510 S    
O43   Cr11  2.065400 S    
O12   Cr8   2.071687 S    
C60   H20   1.109576 S    
C50   C54   1.548820 S    
C39   C43   1.536652 S    
O21   Cr9   1.947786 S    
C46   C50   1.539653 S    
O5    C1    1.270447 A    
C38   C42   1.536371 S    
C53   C57   1.550628 S    
O46   Cr10  1.923478 S    
O39   Cr7   1.942947 S    
O25   C21   1.262815 A    
C33   C37   1.552214 S    
O45   Cr9   1.919353 S    
O3    C11   1.250882 A    
C60   C64   1.535142 S    
C35   H7    1.108836 S    
O13   Cr5   1.927505 S    
C13   O33   1.270737 A    
O23   Cr11  1.947786 S    
C35   C63   1.546833 S    
O35   Cr7   2.047018 S    
C55   H15   1.107280 S    
Cr2   O50   1.970662 S    
O15   Cr7   1.927505 S    
C56   H16   1.110346 S    
C45   C49   1.527153 S    
Cr1   O49   1.970562 S    
C68   H28   1.110253 S    
C57   C61   1.521178 S    
Cr3   O51   1.970562 S    
O14   Cr6   1.921449 S    
C49   C53   1.536361 S    
C74   C78   1.528401 S    
C7    O19   1.273860 A    
C4    C61   1.440459 S    
C66   C70   1.541382 S    
O37   Cr5   1.942947 S    
C8    O20   1.274038 A    
C41   C45   1.512405 S    
C65   H25   1.110210 S    
C44   C56   1.527255 S    
C21   C93   1.425636 S    
C12   C44   1.432597 S    
C8    C27   1.428372 S    
C51   C55   1.535845 S    
O34   Cr6   2.039423 S    
C68   C75   1.527508 S    
C46   N2    1.457724 S    
C22   C94   1.428162 S    
C26   C29   1.202521 T    
O38   C18   1.273971 A    
O25   Cr1   2.053851 S    
C5    O17   1.274078 A    
O37   C17   1.271952 A    
O22   Cr10  1.942023 S    
O28   C24   1.263853 A    
C69   C73   1.540405 S    
O14   C6    1.279325 A    
C19   O43   1.268504 A    
C14   C83   1.425803 S    
C65   C74   1.527690 S    
Cr12  O52   1.991336 S    
N2    O55   1.301071 A    
O17   Cr9   2.036274 S    
C87   C95   1.200888 T    
C34   C62   1.534510 S    
O6    C2    1.254720 A    
C75   C79   1.528580 S    
C36   H8    1.110042 S    
C78   H30   1.109930 S    
C47   C51   1.530737 S    
C10   C42   1.436503 S    
C51   H9    1.110664 S    
C72   C79   1.545593 S    
C9    C41   1.442303 S    
C67   C71   1.541446 S    
O40   Cr8   1.950959 S    
O44   Cr12  2.060960 S    
C20   O44   1.268666 A    
C76   C80   1.528474 S    
O1    Cr1   2.069964 S    
C49   H11   1.110755 S    
O19   Cr11  2.036274 S    
C33   H5    1.109857 S    
C50   H12   1.105276 S    
Cr8   O52   1.988479 S    
O32   C16   1.271465 A    
O29   C13   1.273814 A    
C65   C66   1.542687 S    
C77   H29   1.109965 S    
Cr6   O50   1.988479 S    
O46   C22   1.272525 A    
O31   C15   1.273816 A    
O45   C21   1.271987 A    
C19   C75   1.443964 S    
C43   C47   1.496855 S    
O31   Cr3   1.949099 S    
C6    C25   1.428414 S    
O33   Cr5   2.047018 S    
C38   H2    1.106420 S    
O23   C11   1.259467 A    
O10   Cr6   2.071687 S    
C33   C45   1.537452 S    
C18   C74   1.443855 S    
C55   C59   1.547952 S    
O4    Cr4   2.057091 S    
C45   N1    1.457427 S    
C48   C52   1.536748 S    
C35   C47   1.540532 S    
C82   C90   1.202393 T    
C1    C64   1.446986 S    
O40   C20   1.273982 A    
C16   O36   1.269597 A    
C41   C53   1.531826 S    
C11   C43   1.426697 S    
N1    O53   1.300146 A    
C6    O18   1.274291 A    
O28   Cr4   2.065800 S    
C51   C63   1.544599 S    
C36   C64   1.534574 S    
N3    O58   1.298910 A    
O27   C23   1.262821 A    
C7    C28   1.428288 S    
C70   C74   1.540484 S    
C17   C73   1.443955 S    
C39   H3    1.110286 S    
C59   H19   1.109165 S    
C86   C94   1.202342 T    
C49   C61   1.541822 S    
O36   Cr8   2.039423 S    
C39   C59   1.548095 S    
C24   C96   1.428166 S    
Cr9   O49   1.989336 S    
C87   C91   1.404667 S    
C80   H32   1.110010 S    
C37   C57   1.551253 S    
O38   Cr6   1.950959 S    
C38   C58   1.545017 S    
