data_mof_unit_9674.cif
_audit_creation_date              2012-12-10T17:44:37-0500
_audit_creation_method            fapswitch 2.2
_symmetry_space_group_name_H-M    P1
_symmetry_Int_Tables_number       1
_space_group_crystal_system       triclinic
_cell_length_a                    9.929197
_cell_length_b                    10.68894
_cell_length_c                    15.436811
_cell_angle_alpha                 93.139648
_cell_angle_beta                  68.251161
_cell_angle_gamma                 90.761263
_cell_volume                      1519.39879034

loop_
_atom_site_label
_atom_site_type_symbol
_atom_type_description
_atom_site_fract_x
_atom_site_fract_y
_atom_site_fract_z
_atom_type_partial_charge
C1    C     C_R   0.502841 0.739060 0.496360 0.855862
C2    C     C_R   0.743680 0.505135 0.027150 0.111075
C3    C     C_R   0.605016 0.455393 0.078152 0.087734
C4    C     C_R   0.409095 0.498739 0.675766 0.881575
C5    C     C_R   0.837752 0.541531 0.074164 0.090744
C6    C     C_R   0.790103 0.534291 0.170991 -0.177850
C7    C     C_R   0.557179 0.459360 0.175441 -0.242219
C8    C     C_R   0.412197 0.854515 0.360172 -0.165700
C9    C     C_R   0.349412 0.912013 0.305679 -0.136306
C10   C     C_R   0.337454 0.041467 0.310434 -0.142585
C11   C     C_R   0.393881 0.114389 0.366479 -0.177535
C12   C     C_R   0.433379 0.442881 0.901946 0.050737
C13   C     C_R   0.451028 0.057567 0.426465 0.095170
C14   C     C_R   0.457078 0.926128 0.424588 0.099038
C15   C     C_R   0.510283 0.870324 0.486484 -0.099415
C16   C     C_R   0.501785 0.260133 0.495153 0.871598
C17   C     C_R   0.566495 0.940636 0.543517 -0.215096
C18   C     C_R   0.564338 0.068332 0.543741 -0.201436
C19   C     C_R   0.504580 0.126825 0.487675 -0.114243
C20   C     C_R   0.797188 0.675436 0.616656 -0.177419
C21   C     C_R   0.836287 0.761200 0.674297 -0.220810
C22   C     C_R   0.973500 0.756325 0.677667 -0.185864
C23   C     C_R   0.320045 0.356308 0.938652 0.132572
C24   C     C_R   0.073712 0.667804 0.621589 -0.151818
C25   C     C_R   0.039860 0.583709 0.559286 0.163707
C26   C     C_R   0.896200 0.585456 0.558058 0.177648
C27   C     C_R   0.959865 0.419100 0.443536 -0.119818
C28   C     C_R   0.590839 0.499774 0.323950 0.858951
C29   C     C_R   0.103083 0.419668 0.443144 -0.112957
C30   C     C_R   0.354284 0.470948 0.774024 -0.044222
C31   C     C_R   0.648339 0.497045 0.221890 -0.125283
C32   C     C_R   0.226770 0.325902 0.891275 -0.218526
C33   C     C_R   0.248508 0.378772 0.806693 -0.262994
C34   C     C_R   0.540953 0.456332 0.941249 0.020031
C35   C     C_R   0.433089 0.513811 0.827759 0.041730
C36   C     C_R   0.512155 0.414306 0.031330 0.070236
C37   C     C_R   0.396548 0.328595 0.068299 0.077340
C38   C     C_R   0.303761 0.299147 0.020716 -0.273917
C39   C     C_R   0.681912 0.497782 0.889475 -0.212627
C40   C     C_R   0.782967 0.519184 0.931245 -0.246898
H1    H     H_    0.219136 0.230576 0.048111 0.146294
H2    H     H_    0.758162 0.829827 0.718412 0.151120
H3    H     H_    0.445326 0.440100 0.216546 0.185078
H4    H     H_    0.002286 0.820968 0.724389 0.148794
H5    H     H_    0.176164 0.667151 0.629143 0.201451
H6    H     H_    0.182419 0.354214 0.396447 0.133963
H7    H     H_    0.861586 0.563840 0.206782 0.170262
H8    H     H_    0.889699 0.550862 0.888344 0.152757
H9    H     H_    0.142399 0.256801 0.917060 0.150552
H10   H     H_    0.186370 0.345001 0.765556 0.172496
H11   H     H_    0.718840 0.505345 0.814859 0.164260
H12   H     H_    0.607772 0.896655 0.590418 0.152454
H13   H     H_    0.968928 0.671530 0.994133 0.181735
H14   H     H_    0.039188 0.524122 0.974784 0.203613
H15   H     H_    0.457031 0.685536 0.884154 0.195332
H16   H     H_    0.596111 0.641804 0.784220 0.190562
H17   H     H_    0.398970 0.162955 0.123535 0.191097
H18   H     H_    0.279259 0.269925 0.195957 0.164887
H19   H     H_    0.425398 0.754032 0.350445 0.163030
H20   H     H_    0.310912 0.855986 0.259098 0.138141
H21   H     H_    0.285493 0.085031 0.269630 0.128268
H22   H     H_    0.392105 0.214452 0.361242 0.155548
H23   H     H_    0.605298 0.121939 0.590342 0.165765
H24   H     H_    0.931904 0.352983 0.397385 0.144363
H25   H     H_    0.687746 0.680826 0.621427 0.203786
N1    N     N_R   0.856800 0.501200 0.500850 -0.119193
N2    N     N_R   0.142390 0.501280 0.500880 -0.120071
N3    N     N_3   0.979448 0.590628 0.026284 -0.468158
N4    N     N_3   0.484605 0.640459 0.817964 -0.492920
N5    N     N_3   0.384516 0.257442 0.146511 -0.482072
O1    O     O_R   0.385310 0.683220 0.500000 -0.637432
O2    O     O_R   0.614640 0.683250 0.500010 -0.630245
O3    O     O_R   0.319840 0.499980 0.632240 -0.637387
O4    O     O_R   0.549160 0.500000 0.632250 -0.618098
O5    O     O_R   0.385360 0.316750 0.499990 -0.619693
O6    O     O_R   0.614690 0.316780 0.500000 -0.610086
O7    O     O_R   0.450840 0.500000 0.367750 -0.629007
O8    O     O_R   0.680160 0.500020 0.367760 -0.609296
Zn1   Zn    Zn3+2 0.346880 0.499980 0.499990 0.921026
Zn2   Zn    Zn3+2 0.653120 0.500020 0.500010 0.936814

loop_
_geom_bond_atom_site_label_1
_geom_bond_atom_site_label_2
_ccdc_geom_bond_type
C39   H11   S    
C27   C29   A    
C16   O5    A    
C25   N2    A    
C11   H22   S    
O1    Zn1   S    
C12   C23   A    
C1    O1    A    
C30   C35   A    
C24   H5    S    
C36   C37   A    
C3    C7    A    
C8    H19   S    
C5    C6    A    
O8    Zn2   S    
C18   H23   S    
H14   N3    S    
C40   H8    S    
C18   C19   A    
H13   N3    S    
C13   C14   A    
C29   N2    A    
C22   H4    S    
C8    C9    A    
C1    C15   S    
C7    H3    S    
H17   N5    S    
C28   O8    A    
C9    C10   A    
C4    O4    A    
C6    C31   A    
O4    Zn2   S    
C37   N5    S    
C5    N3    S    
C17   H12   S    
O7    Zn1   S    
C1    O2    A    
C7    C31   A    
C6    H7    S    
C13   C19   A    
C34   C39   A    
C26   N1    A    
C20   H25   S    
N2    Zn1   S    
C24   C25   A    
C38   H1    S    
C27   H24   S    
C39   C40   A    
H18   N5    S    
C33   H10   S    
C37   C38   A    
C17   C18   A    
O3    Zn1   S    
C12   C35   A    
C28   O7    A    
C4    O3    A    
H15   N4    S    
C22   C24   A    
C2    C5    A    
C12   C34   A    
C15   C17   A    
C8    C14   A    
C30   C33   A    
C16   O6    A    
C28   C31   S    
O6    Zn2   S    
C23   C38   A    
N1    Zn2   S    
C29   H6    S    
C9    H20   S    
C23   C32   A    
C2    C3    A    
C25   C26   A    
O2    Zn2   S    
C27   N1    A    
C32   C33   A    
C11   C13   A    
C20   C26   A    
C3    C36   A    
C16   C19   S    
C34   C36   A    
C32   H9    S    
C10   C11   A    
C21   H2    S    
C10   H21   S    
C2    C40   A    
C20   C21   A    
C35   N4    S    
H16   N4    S    
C14   C15   A    
C21   C22   A    
O5    Zn1   S    
C4    C30   S    
