data_mof_unit_43832.cif
_audit_creation_date              2012-12-11T15:12:21-0500
_audit_creation_method            fapswitch 2.2
_symmetry_space_group_name_H-M    P1
_symmetry_Int_Tables_number       1
_space_group_crystal_system       triclinic
_cell_length_a                    31.415253
_cell_length_b                    22.559941
_cell_length_c                    18.133869
_cell_angle_alpha                 89.999861
_cell_angle_beta                  124.983017
_cell_angle_gamma                 90.000145
_cell_volume                      10529.8848782

loop_
_atom_site_label
_atom_site_type_symbol
_atom_type_description
_atom_site_fract_x
_atom_site_fract_y
_atom_site_fract_z
_atom_type_partial_charge
C1    C     C_R   0.533418 0.610359 0.705175 -0.126863
C2    C     C_R   0.262605 0.651115 0.539349 0.125694
C3    C     C_R   0.372451 0.189708 0.130934 0.105162
C4    C     C_R   0.804938 0.154920 0.927347 0.106195
C5    C     C_R   0.195126 0.845823 0.072914 0.105706
C6    C     C_R   0.195052 0.154934 0.072645 0.106197
C7    C     C_R   0.804880 0.845810 0.927094 0.105706
C8    C     C_R   0.298266 0.811081 0.142660 0.053459
C9    C     C_R   0.701468 0.188766 0.856551 0.053814
C10   C     C_R   0.701738 0.811076 0.857341 0.053460
C11   C     C_R   0.298527 0.188769 0.143456 0.053814
C12   C     C_R   0.727650 0.148874 0.929736 0.053017
C13   C     C_R   0.237951 0.352899 0.470325 0.124164
C14   C     C_R   0.272277 0.851436 0.070076 0.052865
C15   C     C_R   0.272346 0.148875 0.070273 0.053016
C16   C     C_R   0.727729 0.851428 0.929927 0.052866
C17   C     C_R   0.724591 0.203204 0.811211 -0.256371
C18   C     C_R   0.275155 0.796515 0.187985 -0.253928
C19   C     C_R   0.275400 0.203216 0.188786 -0.256362
C20   C     C_R   0.724849 0.796508 0.812017 -0.253931
C21   C     C_R   0.300205 0.877782 0.039466 -0.259000
C22   C     C_R   0.699744 0.122504 0.960380 -0.259093
C23   C     C_R   0.699800 0.877777 0.960536 -0.259001
C24   C     C_R   0.737409 0.651097 0.460664 0.125695
C25   C     C_R   0.300255 0.122498 0.039640 -0.259090
C26   C     C_R   0.775024 0.184858 0.844137 0.018768
C27   C     C_R   0.224909 0.815304 0.155618 0.019461
C28   C     C_R   0.224964 0.184875 0.155852 0.018762
C29   C     C_R   0.775096 0.815294 0.844387 0.019464
C30   C     C_R   0.350115 0.858744 0.070708 0.017892
C31   C     C_R   0.649615 0.141107 0.928465 0.017650
C32   C     C_R   0.649888 0.858743 0.929289 0.017893
C33   C     C_R   0.350387 0.141095 0.071565 0.017649
C34   C     C_R   0.593847 0.582551 0.424965 0.012894
C35   C     C_R   0.218685 0.807258 0.487310 0.124467
C36   C     C_R   0.405879 0.417424 0.574953 0.006737
C37   C     C_R   0.406154 0.582554 0.575035 0.012884
C38   C     C_R   0.594124 0.417430 0.425049 0.006730
C39   C     C_R   0.077846 0.107090 0.424351 0.037725
C40   C     C_R   0.923592 0.890952 0.574586 0.038852
C41   C     C_R   0.922160 0.107096 0.575650 0.037732
C42   C     C_R   0.076406 0.890957 0.425403 0.038880
C43   C     C_R   0.394960 0.609690 0.294290 -0.123532
C44   C     C_R   0.604696 0.389965 0.704896 -0.122510
C45   C     C_R   0.605039 0.609690 0.705708 -0.123529
C46   C     C_R   0.783175 0.191750 0.525914 0.122142
C47   C     C_R   0.395305 0.389964 0.295111 -0.122513
C48   C     C_R   0.882011 0.079425 0.254168 -0.121994
C49   C     C_R   0.118075 0.921434 0.746393 -0.124304
C50   C     C_R   0.117989 0.079428 0.745831 -0.122001
C51   C     C_R   0.881927 0.921430 0.253608 -0.124322
C52   C     C_R   0.577520 0.643070 0.730020 0.039209
C53   C     C_R   0.423098 0.356355 0.271582 0.046602
C54   C     C_R   0.422479 0.643069 0.269977 0.039208
C55   C     C_R   0.576904 0.356359 0.728430 0.046583
C56   C     C_R   0.100192 0.093396 0.798261 0.036900
C57   C     C_R   0.781325 0.807243 0.512681 0.124466
C58   C     C_R   0.899681 0.907697 0.201097 0.036341
C59   C     C_R   0.899806 0.093393 0.201736 0.036902
C60   C     C_R   0.100324 0.907710 0.798911 0.036367
C61   C     C_R   0.642034 0.596773 0.498341 -0.024488
C62   C     C_R   0.357471 0.403982 0.501005 -0.017398
C63   C     C_R   0.357969 0.596779 0.501660 -0.024475
C64   C     C_R   0.642531 0.403982 0.498997 -0.017381
C65   C     C_R   0.116261 0.138001 0.497925 -0.053326
C66   C     C_R   0.886307 0.859326 0.500176 -0.054037
C67   C     C_R   0.883748 0.138010 0.502076 -0.053331
C68   C     C_R   0.216817 0.191751 0.474051 0.122144
C69   C     C_R   0.113702 0.859339 0.499813 -0.054022
C70   C     C_R   0.671741 0.304255 0.504278 -0.025822
C71   C     C_R   0.323968 0.695868 0.483911 -0.023228
C72   C     C_R   0.328250 0.304255 0.495685 -0.025820
C73   C     C_R   0.676040 0.695860 0.516086 -0.023225
C74   C     C_R   0.150748 0.760240 0.527414 -0.018341
C75   C     C_R   0.863819 0.239486 0.518632 -0.026827
C76   C     C_R   0.849262 0.760223 0.472578 -0.018329
C77   C     C_R   0.136199 0.239481 0.481415 -0.026820
C78   C     C_R   0.678506 0.365252 0.501278 0.061722
C79   C     C_R   0.755474 0.290820 0.528974 -0.020210
C80   C     C_R   0.323642 0.635973 0.503367 0.061031
C81   C     C_R   0.321496 0.365251 0.498722 0.061699
C82   C     C_R   0.676364 0.635963 0.496634 0.061031
C83   C     C_R   0.147633 0.818469 0.499503 0.056106
C84   C     C_R   0.851784 0.179250 0.507461 0.060972
C85   C     C_R   0.852376 0.818454 0.500483 0.056115
C86   C     C_R   0.148223 0.179242 0.492541 0.060978
C87   C     C_R   0.723213 0.389669 0.516949 -0.243352
C88   C     C_R   0.294761 0.613832 0.532138 -0.252588
C89   C     C_R   0.276800 0.389670 0.483095 -0.243367
C90   C     C_R   0.258887 0.711307 0.514117 -0.024491
C91   C     C_R   0.705248 0.613817 0.467872 -0.252590
C92   C     C_R   0.181534 0.842220 0.482500 -0.245952
C93   C     C_R   0.813501 0.155342 0.513399 -0.248622
C94   C     C_R   0.818473 0.842204 0.517485 -0.245998
C95   C     C_R   0.186493 0.155337 0.486565 -0.248635
C96   C     C_1   0.691270 0.574820 0.661981 0.029487
C97   C     C_1   0.308950 0.425548 0.337318 0.034977
C98   C     C_1   0.308730 0.574823 0.338019 0.029488
C99   C     C_1   0.691049 0.425546 0.662685 0.034967
C100  C     C_1   0.178215 0.112421 0.660923 0.028353
C101  C     C_R   0.244528 0.290823 0.471032 -0.020211
C102  C     C_1   0.823481 0.886274 0.338227 0.029534
C103  C     C_1   0.821790 0.112431 0.339077 0.028355
C104  C     C_1   0.176523 0.886277 0.661770 0.029534
C105  C     C_1   0.319597 0.823969 0.442127 0.059657
C106  C     C_1   0.673216 0.177436 0.549150 0.056994
C107  C     C_1   0.680416 0.823960 0.557870 0.059657
C108  C     C_1   0.326748 0.177448 0.450740 0.056984
C109  C     C_1   0.890058 0.367073 0.561665 0.065039
C110  C     C_1   0.171410 0.640345 0.608068 0.066297
C111  C     C_1   0.109986 0.367081 0.438489 0.065041
C112  C     C_R   0.467103 0.389178 0.296192 -0.140789
C113  C     C_R   0.741125 0.711291 0.485888 -0.024493
C114  C     C_1   0.828612 0.640315 0.391964 0.066300
C115  C     C_1   0.796175 0.201267 0.794109 0.039473
C116  C     C_1   0.203733 0.798629 0.205503 0.036972
C117  C     C_1   0.203808 0.201295 0.205867 0.039468
C118  C     C_1   0.796272 0.798619 0.794502 0.036977
C119  C     C_1   0.376401 0.887971 0.036422 0.052038
C120  C     C_1   0.623345 0.111843 0.962750 0.052563
C121  C     C_1   0.623603 0.887973 0.963574 0.052036
C122  C     C_1   0.376661 0.111825 0.037292 0.052561
C123  C     C_R   0.222779 0.747360 0.513544 -0.022901
C124  C     C_R   0.791258 0.253685 0.530383 -0.019595
C125  C     C_R   0.777232 0.747343 0.486455 -0.022894
C126  C     C_R   0.208745 0.253686 0.469625 -0.019599
C127  C     C_R   0.711787 0.266003 0.522812 0.046108
C128  C     C_R   0.290694 0.734916 0.488007 0.046051
C129  C     C_R   0.288202 0.266006 0.477152 0.046111
C130  C     C_R   0.709316 0.734904 0.511992 0.046051
C131  C     C_R   0.190078 0.723629 0.537728 0.048507
C132  C     C_R   0.466581 0.610359 0.294823 -0.126862
C133  C     C_R   0.833672 0.278226 0.531893 0.046774
C134  C     C_R   0.809935 0.723610 0.462276 0.048503
C135  C     C_R   0.166345 0.278226 0.468158 0.046773
C136  C     C_R   0.807035 0.377351 0.542987 -0.053125
C137  C     C_R   0.234402 0.628717 0.571389 -0.055097
C138  C     C_R   0.192993 0.377356 0.457113 -0.053122
C139  C     C_R   0.765615 0.628695 0.428635 -0.055099
C140  C     C_R   0.251320 0.831942 0.466018 -0.048520
C141  C     C_R   0.744891 0.166882 0.533388 -0.048041
C142  C     C_R   0.748690 0.831928 0.533973 -0.048523
C143  C     C_R   0.532899 0.389183 0.703819 -0.140770
C144  C     C_R   0.255088 0.166886 0.466539 -0.048038
C145  C     C_R   0.287509 0.796089 0.466249 -0.000123
C146  C     C_R   0.709545 0.204064 0.533779 -0.000202
C147  C     C_R   0.712502 0.796077 0.533746 -0.000123
C148  C     C_R   0.290432 0.204069 0.466149 -0.000195
C149  C     C_R   0.843367 0.340138 0.545001 -0.010859
C150  C     C_R   0.198206 0.664840 0.571222 -0.010192
C151  C     C_R   0.156662 0.340142 0.455098 -0.010859
C152  C     C_R   0.801811 0.664816 0.428797 -0.010196
C153  C     C_R   0.407915 0.702903 0.228105 0.129559
C154  C     C_R   0.047595 0.079658 0.746696 -0.122064
C155  C     C_R   0.591290 0.296342 0.769749 0.127748
C156  C     C_R   0.592084 0.702905 0.771890 0.129559
C157  C     C_R   0.408712 0.296335 0.230270 0.127743
C158  C     C_R   0.866893 0.109382 0.104577 0.130317
C159  C     C_R   0.133251 0.892009 0.896139 0.130433
C160  C     C_R   0.133103 0.109389 0.895420 0.130318
C161  C     C_R   0.866755 0.891992 0.103871 0.130433
C162  C     C_R   0.418152 0.783072 0.150250 -0.189318
C163  C     C_R   0.581100 0.216162 0.847655 -0.188474
C164  C     C_R   0.581848 0.783075 0.849742 -0.189318
C165  C     C_R   0.952309 0.921026 0.252939 -0.119496
C166  C     C_R   0.418906 0.216146 0.152382 -0.188471
C167  C     C_R   0.858374 0.144080 0.969854 -0.192250
C168  C     C_R   0.141794 0.857156 0.030799 -0.192580
C169  C     C_R   0.141615 0.144099 0.030131 -0.192255
C170  C     C_R   0.858213 0.857138 0.969212 -0.192577
C171  C     C_R   0.435557 0.730023 0.198144 -0.170194
C172  C     C_R   0.563561 0.269097 0.799446 -0.169315
C173  C     C_R   0.564442 0.730026 0.801848 -0.170194
C174  C     C_R   0.436446 0.269083 0.200586 -0.169311
C175  C     C_R   0.888939 0.121941 0.057493 -0.171433
C176  C     C_R   0.952404 0.079655 0.253302 -0.122076
C177  C     C_R   0.111255 0.879620 0.943348 -0.171366
C178  C     C_R   0.111053 0.121957 0.942494 -0.171435
C179  C     C_R   0.888752 0.879601 0.056663 -0.171360
C180  C     C_R   0.364706 0.732393 0.215015 -0.233134
C181  C     C_R   0.634628 0.266965 0.783139 -0.234554
C182  C     C_R   0.635295 0.732392 0.784982 -0.233136
C183  C     C_R   0.365370 0.266964 0.216872 -0.234554
C184  C     C_R   0.813016 0.115794 0.059766 -0.238201
C185  C     C_R   0.187072 0.885294 0.940715 -0.238207
C186  C     C_R   0.186982 0.115794 0.940238 -0.238195
C187  C     C_R   0.047697 0.921040 0.747070 -0.119638
C188  C     C_R   0.812934 0.885279 0.059293 -0.238203
C189  C     C_R   0.345757 0.785452 0.165401 0.085463
C190  C     C_R   0.653753 0.214086 0.833196 0.085693
C191  C     C_R   0.654245 0.785450 0.834597 0.085463
C192  C     C_R   0.346246 0.214084 0.166819 0.085699
C193  C     C_R   0.781311 0.137684 0.971220 0.083521
C194  C     C_R   0.218738 0.863072 0.029031 0.083585
C195  C     C_R   0.218683 0.137689 0.028782 0.083520
C196  C     C_R   0.781268 0.863060 0.970976 0.083583
C197  C     C_R   0.644215 0.581709 0.573192 0.013913
C198  C     C_R   0.762063 0.352896 0.529724 0.124156
C199  C     C_R   0.355737 0.418600 0.426495 0.015497
C200  C     C_R   0.355787 0.581713 0.426808 0.013911
C201  C     C_R   0.644263 0.418599 0.573507 0.015494
C202  C     C_R   0.129887 0.106509 0.573670 0.050095
C203  C     C_R   0.872135 0.891976 0.425251 0.050176
C204  C     C_R   0.870118 0.106515 0.426330 0.050102
C205  C     C_R   0.127870 0.891981 0.574744 0.050154
C206  C     C_R   0.371940 0.809803 0.129446 0.105284
C207  C     C_R   0.627552 0.189718 0.869094 0.105164
C208  C     C_R   0.628062 0.809804 0.870549 0.105284
H1    H     H_    0.503678 0.623865 0.713475 0.107921
H2    H     H_    0.343610 0.711477 0.237981 0.111298
H3    H     H_    0.747075 0.093630 0.600769 0.119773
H4    H     H_    0.717769 0.914637 0.512767 0.118339
H5    H     H_    0.762615 0.897207 0.622787 0.120779
H6    H     H_    0.294691 0.089145 0.512986 0.119012
H7    H     H_    0.252879 0.093652 0.399103 0.119773
H8    H     H_    0.344241 0.287903 0.239757 0.113936
H9    H     H_    0.656392 0.711474 0.762020 0.111299
H10   H     H_    0.203645 0.892333 0.903538 0.119415
H11   H     H_    0.796383 0.108601 0.096811 0.119205
H12   H     H_    0.796360 0.892318 0.096468 0.119418
H13   H     H_    0.203618 0.108592 0.903200 0.119200
H14   H     H_    0.529300 0.289494 0.788738 0.115943
H15   H     H_    0.469699 0.709508 0.208547 0.113391
H16   H     H_    0.470710 0.289475 0.211301 0.115940
H17   H     H_    0.497346 0.375309 0.289224 0.109087
H18   H     H_    0.530299 0.709514 0.791443 0.113392
H19   H     H_    0.070014 0.884623 0.911808 0.112423
H20   H     H_    0.930220 0.117219 0.089203 0.112465
H21   H     H_    0.929994 0.884602 0.088205 0.112424
H22   H     H_    0.069771 0.117240 0.910778 0.112467
H23   H     H_    0.439725 0.801254 0.125692 0.134497
H24   H     H_    0.559485 0.197917 0.872094 0.134979
H25   H     H_    0.560274 0.801260 0.874298 0.134498
H26   H     H_    0.440525 0.197896 0.127952 0.134978
H27   H     H_    0.877457 0.155374 0.937497 0.131826
H28   H     H_    0.496321 0.623864 0.286523 0.107919
H29   H     H_    0.122742 0.845920 0.063229 0.131704
H30   H     H_    0.122529 0.155400 0.062480 0.131828
H31   H     H_    0.877265 0.845901 0.936783 0.131705
H32   H     H_    0.703404 0.227683 0.748610 0.142757
H33   H     H_    0.296192 0.771567 0.250136 0.141847
H34   H     H_    0.296584 0.227697 0.251385 0.142761
H35   H     H_    0.703811 0.771562 0.749864 0.141847
H36   H     H_    0.283960 0.914332 0.992295 0.139439
H37   H     H_    0.716166 0.086250 0.008070 0.139390
H38   H     H_    0.716047 0.914325 0.007710 0.139439
H39   H     H_    0.502659 0.375320 0.710797 0.109121
H40   H     H_    0.283834 0.086243 0.991953 0.139388
H41   H     H_    0.359067 0.621540 0.284546 0.103809
H42   H     H_    0.640502 0.377937 0.714492 0.105063
H43   H     H_    0.640932 0.621541 0.715450 0.103808
H44   H     H_    0.359499 0.377937 0.285517 0.105056
H45   H     H_    0.842153 0.071597 0.229079 0.103828
H46   H     H_    0.157874 0.930088 0.771802 0.104207
H47   H     H_    0.157847 0.071603 0.770921 0.103831
H48   H     H_    0.842127 0.930086 0.228194 0.104212
H49   H     H_    0.726857 0.437554 0.518018 0.145656
H50   H     H_    0.025009 0.072982 0.773618 0.103016
H51   H     H_    0.297716 0.567066 0.548474 0.141775
H52   H     H_    0.273166 0.437555 0.482055 0.145652
H53   H     H_    0.702293 0.567051 0.451541 0.141774
H54   H     H_    0.178362 0.888900 0.465540 0.146451
H55   H     H_    0.807831 0.107648 0.508005 0.149054
H56   H     H_    0.821648 0.888885 0.534448 0.146488
H57   H     H_    0.192155 0.107643 0.491929 0.149049
H58   H     H_    0.582260 0.620179 0.314411 0.103143
H59   H     H_    0.606021 0.550869 0.334675 0.097265
H60   H     H_    0.387399 0.442863 0.660054 0.104201
H61   H     H_    0.974976 0.927966 0.226194 0.102494
H62   H     H_    0.449182 0.455282 0.698096 0.111066
H63   H     H_    0.417736 0.620174 0.685590 0.103151
H64   H     H_    0.393981 0.550860 0.665320 0.097263
H65   H     H_    0.612582 0.442952 0.339955 0.104190
H66   H     H_    0.550772 0.455223 0.301862 0.111053
H67   H     H_    0.047946 0.158849 0.315037 0.106775
H68   H     H_    0.093460 0.110432 0.330913 0.110699
H69   H     H_    0.955665 0.836609 0.681499 0.110257
H70   H     H_    0.909974 0.882653 0.670360 0.105207
H71   H     H_    0.952037 0.158852 0.684964 0.106767
H72   H     H_    0.974990 0.072979 0.226380 0.103014
H73   H     H_    0.906533 0.110411 0.669070 0.110707
H74   H     H_    0.044578 0.836593 0.318540 0.110287
H75   H     H_    0.090074 0.882972 0.329662 0.105108
H76   H     H_    0.593067 0.295214 0.420795 0.119478
H77   H     H_    0.617652 0.298132 0.532496 0.115736
H78   H     H_    0.396763 0.704931 0.512590 0.119355
H79   H     H_    0.348130 0.697424 0.400647 0.105205
H80   H     H_    0.406923 0.295200 0.579129 0.119485
H81   H     H_    0.382320 0.298139 0.467423 0.115728
H82   H     H_    0.603242 0.704927 0.487398 0.119353
H83   H     H_    0.025033 0.927991 0.773819 0.102513
H84   H     H_    0.651872 0.697422 0.599344 0.105207
H85   H     H_    0.076034 0.744925 0.483722 0.112573
H86   H     H_    0.116438 0.763603 0.594203 0.121433
H87   H     H_    0.939705 0.240530 0.563293 0.113877
H88   H     H_    0.896749 0.248348 0.450181 0.120393
H89   H     H_    0.923974 0.744911 0.516259 0.112561
H90   H     H_    0.883565 0.763587 0.405778 0.121435
H91   H     H_    0.060319 0.240533 0.436791 0.113879
H92   H     H_    0.103291 0.248320 0.549905 0.120392
H93   H     H_    0.849363 0.449138 0.615739 0.124906
H94   H     H_    0.655754 0.287899 0.760242 0.113939
H95   H     H_    0.819452 0.455371 0.503039 0.109790
H96   H     H_    0.207709 0.546319 0.568494 0.112297
H97   H     H_    0.256518 0.570131 0.672365 0.118519
H98   H     H_    0.150674 0.449171 0.384443 0.124903
H99   H     H_    0.180613 0.455356 0.497157 0.109788
H100  H     H_    0.792311 0.546293 0.431550 0.112297
H101  H     H_    0.743506 0.570099 0.327673 0.118523
H102  H     H_    0.282241 0.914650 0.487218 0.118337
H103  H     H_    0.237396 0.897217 0.377199 0.120775
H104  H     H_    0.705276 0.089152 0.486881 0.119015
N1    N     N_R   0.532970 0.559900 0.665210 -0.040095
N2    N     N_R   0.402100 0.440070 0.454470 -0.067648
N3    N     N_R   0.402100 0.559930 0.454470 -0.067623
N4    N     N_R   0.597900 0.440070 0.545530 -0.067645
N5    N     N_R   0.097900 0.059930 0.545530 -0.071973
N6    N     N_R   0.902100 0.940070 0.454470 -0.071948
N7    N     N_R   0.902100 0.059930 0.454470 -0.071975
N8    N     N_R   0.097900 0.940070 0.545530 -0.071947
N9    N     N_R   0.567170 0.559950 0.454460 -0.055580
N10   N     N_R   0.432830 0.440050 0.545540 -0.061123
N11   N     N_R   0.432830 0.559950 0.545540 -0.055582
N12   N     N_R   0.467030 0.440100 0.334790 -0.041901
N13   N     N_R   0.567170 0.440050 0.454460 -0.061131
N14   N     N_R   0.067170 0.059950 0.454460 -0.057815
N15   N     N_R   0.932830 0.940050 0.545540 -0.058166
N16   N     N_R   0.932830 0.059950 0.545540 -0.057814
N17   N     N_R   0.067170 0.940050 0.454460 -0.058182
N18   N     N_R   0.421470 0.559970 0.334770 -0.041492
N19   N     N_R   0.578530 0.440030 0.665230 -0.040750
N20   N     N_R   0.578530 0.559970 0.665230 -0.041493
N21   N     N_R   0.421470 0.440030 0.334770 -0.040748
N22   N     N_R   0.921470 0.059970 0.334770 -0.045165
N23   N     N_R   0.467030 0.559900 0.334790 -0.040095
N24   N     N_R   0.078530 0.940030 0.665230 -0.045613
N25   N     N_R   0.078530 0.059970 0.665230 -0.045164
N26   N     N_R   0.921470 0.940030 0.334770 -0.045618
N27   N     N_1   0.729192 0.569669 0.733313 -0.077137
N28   N     N_1   0.271252 0.430754 0.265716 -0.077054
N29   N     N_1   0.270808 0.569672 0.266688 -0.077136
N30   N     N_1   0.728747 0.430751 0.734287 -0.077056
N31   N     N_1   0.217442 0.117545 0.730446 -0.093375
N32   N     N_1   0.784028 0.881238 0.269044 -0.093598
N33   N     N_1   0.782563 0.117557 0.269555 -0.093376
N34   N     N_R   0.532970 0.440100 0.665210 -0.041897
N35   N     N_1   0.215975 0.881240 0.730955 -0.093596
N36   N     N_3   0.579000 0.577963 0.334480 -0.224383
N37   N     N_3   0.419227 0.424164 0.664437 -0.222622
N38   N     N_3   0.421000 0.577961 0.665519 -0.224394
N39   N     N_3   0.580780 0.424170 0.335568 -0.222597
N40   N     N_3   0.061229 0.115265 0.333406 -0.223893
N41   N     N_3   0.941521 0.880018 0.665656 -0.223366
N42   N     N_3   0.938767 0.115264 0.666591 -0.223890
N43   N     N_3   0.058532 0.880077 0.334349 -0.223360
N44   N     N_3   0.623556 0.281583 0.485171 -0.206444
N45   N     N_R   0.032970 0.059900 0.665210 -0.038691
N46   N     N_3   0.358542 0.716455 0.461371 -0.207481
N47   N     N_3   0.376425 0.281580 0.514755 -0.206444
N48   N     N_3   0.641463 0.716451 0.538619 -0.207480
N49   N     N_3   0.113262 0.738831 0.542527 -0.205711
N50   N     N_3   0.904896 0.260640 0.512665 -0.205027
N51   N     N_3   0.886745 0.738815 0.457457 -0.205709
N52   N     N_3   0.095135 0.260631 0.487422 -0.205028
N53   N     N_3   0.815034 0.440414 0.552795 -0.216632
N54   N     N_3   0.243110 0.568902 0.604642 -0.220856
N55   N     N_3   0.185010 0.440422 0.447366 -0.216640
N56   N     N_R   0.967030 0.940100 0.334790 -0.038597
N57   N     N_3   0.756911 0.568877 0.395395 -0.220854
N58   N     N_3   0.246607 0.893733 0.442350 -0.222174
N59   N     N_3   0.742085 0.103600 0.539945 -0.221352
N60   N     N_3   0.753402 0.893721 0.557635 -0.222168
N61   N     N_3   0.257882 0.103606 0.459942 -0.221356
N62   N     N_1   0.344953 0.846631 0.422743 -0.085565
N63   N     N_1   0.644468 0.155938 0.561767 -0.085210
N64   N     N_1   0.655062 0.846624 0.577256 -0.085567
N65   N     N_1   0.355485 0.155953 0.438094 -0.085212
N66   N     N_1   0.927246 0.388915 0.575131 -0.085099
N67   N     N_R   0.967030 0.059900 0.334790 -0.038693
N68   N     N_1   0.150266 0.620461 0.637694 -0.085580
N69   N     N_1   0.072810 0.388926 0.425068 -0.085099
N70   N     N_1   0.849760 0.620425 0.362350 -0.085578
N71   N     N_1   0.813134 0.214462 0.754172 -0.088645
N72   N     N_1   0.186756 0.785206 0.245329 -0.088603
N73   N     N_1   0.186844 0.214499 0.245794 -0.088642
N74   N     N_1   0.813248 0.785196 0.754676 -0.088606
N75   N     N_1   0.397383 0.911426 0.008944 -0.078623
N76   N     N_1   0.602374 0.088358 0.990227 -0.078330
N77   N     N_1   0.602621 0.911429 0.991052 -0.078624
N78   N     N_R   0.032970 0.940100 0.665210 -0.038590
N79   N     N_1   0.397634 0.088334 0.009824 -0.078328
N80   N     N_R   0.597900 0.559930 0.545530 -0.067624
Ni1   Ni    Ni4+2 0.483030 0.500000 0.604430 0.206391
Ni2   Ni    Ni4+2 0.516970 0.500000 0.395570 0.206386
Ni3   Ni    Ni4+2 0.983030 1.000000 0.604430 0.206164
Ni4   Ni    Ni4+2 0.016970 0.000000 0.395570 0.206146
Ni5   Ni    Ni4+2 0.587400 0.500000 0.604430 0.225951
Ni6   Ni    Ni4+2 0.412600 0.500000 0.395570 0.225950
Ni7   Ni    Ni4+2 0.087400 1.000000 0.604430 0.206241
Ni8   Ni    Ni4+2 0.912600 0.000000 0.395570 0.206240

loop_
_geom_bond_atom_site_label_1
_geom_bond_atom_site_label_2
_ccdc_geom_bond_type
N5    N14   A    
C125  C134  A    
C94   H56   S    
C7    C29   A    
C114  C152  S    
C74   C83   A    
C64   C201  A    
C66   C85   S    
C41   C67   A    
C136  N53   S    
C143  N34   A    
C167  H27   S    
C49   C60   A    
C124  C133  A    
C142  N60   S    
C14   C21   A    
H6    N61   S    
C61   C82   S    
C139  N57   S    
C128  C145  A    
C184  C193  A    
C139  C152  A    
C183  H8    S    
C201  N4    A    
C11   C192  A    
C2    C90   A    
C58   C165  A    
N56   Ni4   S    
C50   H47   S    
C11   C15   A    
N5    Ni7   S    
C162  C171  A    
C10   C20   A    
H65   N39   S    
H90   N51   S    
C136  C198  A    
C162  H23   S    
C47   C53   A    
N20   Ni5   S    
N18   Ni6   S    
C153  C180  A    
H58   N36   S    
H70   N41   S    
C74   N49   S    
C39   C65   A    
C46   C124  A    
C103  N33   T    
C36   C62   A    
C51   H48   S    
C37   N11   A    
C37   C63   A    
C98   N29   T    
C197  N80   A    
C38   C64   A    
C34   N36   S    
C156  C173  A    
C166  C174  A    
C68   C95   A    
C91   H53   S    
C65   C86   S    
C75   N50   S    
C56   C154  A    
C113  C130  A    
C61   C197  A    
N15   Ni3   S    
N67   Ni4   S    
C34   C61   A    
C82   C91   A    
C102  C203  S    
C31   C207  A    
C99   N30   T    
C106  N63   T    
C181  C190  A    
N2    Ni6   S    
C43   C54   A    
C119  N75   T    
C108  N65   T    
N24   Ni7   S    
H75   N43   S    
C174  H16   S    
C164  C173  A    
C104  C205  S    
C180  H2    S    
C163  C172  A    
C132  H28   S    
C160  C178  A    
C18   H33   S    
H103  N58   S    
C186  H13   S    
C163  H24   S    
C140  N58   S    
C169  H30   S    
C71   C128  A    
N34   Ni1   S    
C79   C127  A    
C73   C130  A    
H81   N47   S    
C32   C121  S    
C110  C150  S    
C140  C145  A    
C171  H15   S    
C104  N35   T    
N17   Ni4   S    
C138  C151  A    
C54   C132  A    
C10   C191  A    
C23   H38   S    
C80   C88   A    
C204  N7    A    
C10   C16   A    
C44   C55   A    
N10   Ni1   S    
C43   N18   A    
C34   N9    A    
C70   N44   S    
C84   C93   A    
H82   N48   S    
C31   C120  S    
C86   C95   A    
N25   Ni7   S    
C7    C170  A    
C137  N54   S    
C3    C33   A    
C87   C198  A    
C7    C196  A    
C76   C85   A    
C5    C194  A    
C108  C148  S    
C78   C87   A    
C20   H35   S    
C90   C123  A    
C87   H49   S    
C55   C155  S    
C51   N26   A    
C57   C142  A    
N1    N20   A    
C62   C199  A    
C178  H22   S    
C161  C188  A    
C180  C189  A    
C57   C125  A    
C59   C158  S    
C75   C84   A    
C15   C25   A    
C12   C22   A    
N21   Ni6   S    
C88   H51   S    
C5    C27   A    
H59   N36   S    
N2    N10   A    
N16   Ni3   S    
C6    C28   A    
N7    Ni8   S    
C100  N31   T    
C161  C179  A    
C154  H50   S    
C157  C174  A    
H76   N44   S    
C79   C198  A    
C74   C131  A    
H7    N61   S    
C63   C80   S    
H92   N52   S    
C122  N79   T    
C55   C143  A    
C185  H10   S    
C1    H1    S    
C203  N6    A    
C59   C176  A    
C164  C208  A    
C156  C182  A    
C112  N12   A    
C45   C52   A    
C50   C56   A    
C200  N3    A    
N80   Ni5   S    
H69   N41   S    
C43   H41   S    
H78   N46   S    
H4    N60   S    
C19   C28   A    
C16   C23   A    
C57   C94   A    
C45   N20   A    
C33   C122  S    
C36   N10   A    
H60   N37   S    
C66   C203  A    
H3    N59   S    
C40   N41   S    
C115  N71   T    
C48   C59   A    
C167  C175  A    
C48   N22   A    
H99   N55   S    
C112  H17   S    
H89   N51   S    
C130  C147  A    
C64   C78   S    
C142  C147  A    
C73   N48   S    
N6    Ni8   S    
C111  N69   T    
C155  C181  A    
C29   C118  S    
C69   C205  A    
C170  C179  A    
H84   N48   S    
C13   C138  A    
C159  C185  A    
C35   C123  A    
C48   H45   S    
C81   C89   A    
C3    C192  A    
C45   H43   S    
C49   H46   S    
H102  N58   S    
C181  H94   S    
C68   C144  A    
C14   C194  A    
C137  C150  A    
C9    C12   A    
C172  H14   S    
C25   H40   S    
C190  C207  A    
C182  H9    S    
C162  C206  A    
H67   N40   S    
C25   C33   A    
C101  C129  A    
C70   C127  A    
C166  H26   S    
H96   N54   S    
C170  H31   S    
N14   Ni4   S    
C44   N19   A    
C202  N5    A    
C12   C193  A    
C97   C199  S    
N12   Ni2   S    
C60   C159  S    
C185  C194  A    
C183  C192  A    
H63   N38   S    
C136  C149  A    
C72   C129  A    
N25   N45   A    
H100  N57   S    
C11   C19   A    
C165  H61   S    
C41   N16   A    
C76   N51   S    
C176  H72   S    
H93   N53   S    
C95   H57   S    
C47   N21   A    
C168  C177  A    
C63   C200  A    
C5    C168  A    
C103  C204  S    
C42   N17   A    
N19   N34   A    
C100  C202  S    
C155  C172  A    
C65   C202  A    
N3    Ni6   S    
N8    N17   A    
C46   C141  A    
H62   N37   S    
C72   C81   A    
C15   C195  A    
C35   C92   A    
C176  N67   A    
H68   N40   S    
C40   C66   A    
C99   C201  S    
C89   H52   S    
C102  N32   T    
C6    C195  A    
C39   N14   A    
H101  N57   S    
C37   N38   S    
C188  H12   S    
C24   C139  A    
C4    C193  A    
C39   N40   S    
N26   Ni8   S    
C116  N72   T    
N78   Ni3   S    
C76   C134  A    
C41   N42   S    
C165  N56   A    
C121  N77   T    
H95   N53   S    
C158  C175  A    
C8    C18   A    
C50   N25   A    
H85   N49   S    
C16   C196  A    
C40   N15   A    
N4    Ni5   S    
C177  H19   S    
C107  C147  S    
C8    C189  A    
C134  C152  A    
N1    Ni1   S    
C51   C58   A    
C141  C146  A    
C44   H42   S    
C126  C135  A    
C60   C187  A    
C182  C191  A    
C9    C190  A    
C73   C82   A    
C132  N23   A    
H88   N50   S    
C79   C124  A    
N12   N21   A    
C123  C131  A    
C2    C137  A    
C36   N37   S    
C4    C26   A    
C75   C133  A    
N8    Ni7   S    
C117  N73   T    
C21   C30   A    
H64   N38   S    
C4    C167  A    
C98   C200  S    
C173  H18   S    
C23   C32   A    
H86   N49   S    
C38   N13   A    
C135  C151  A    
C163  C207  A    
C143  H39   S    
N6    N15   A    
H91   N52   S    
C1    C52   A    
C187  H83   S    
C175  H20   S    
C127  C146  A    
C17   H32   S    
H71   N42   S    
C131  C150  A    
C157  C183  A    
C58   C161  S    
C158  C184  A    
H97   N54   S    
H87   N50   S    
C1    N1    A    
C70   C78   A    
C160  C186  A    
C144  C148  A    
C54   C153  S    
N45   Ni3   S    
C144  N61   S    
C83   C92   A    
C17   C26   A    
C71   N46   S    
C28   C117  S    
C35   C140  A    
C105  N62   T    
C113  C125  A    
C30   C119  S    
C30   C206  A    
C107  N64   T    
N24   N78   A    
C129  C148  A    
C67   C204  A    
N19   Ni5   S    
C19   H34   S    
N3    N11   A    
C205  N8    A    
C77   N52   S    
C109  N66   T    
C2    C88   A    
C97   N28   T    
C189  C206  A    
C49   N24   A    
H74   N43   S    
C27   C116  S    
C105  C145  S    
C24   C113  A    
C120  N76   T    
H66   N39   S    
C159  C177  A    
C71   C80   A    
C13   C89   A    
C20   C29   A    
C184  H11   S    
C154  N45   A    
C96   C197  S    
C22   C31   A    
H79   N46   S    
C186  C195  A    
C133  C149  A    
C42   C69   A    
N26   N56   A    
C109  C149  S    
C69   C83   S    
N22   Ni8   S    
C85   C94   A    
H73   N42   S    
C187  N78   A    
C153  C171  A    
C101  C126  A    
H80   N47   S    
C96   N27   T    
N22   N67   A    
C47   H44   S    
C21   H36   S    
N9    Ni2   S    
C53   C112  A    
C9    C17   A    
C72   N47   S    
C77   C86   A    
C114  N70   T    
C32   C208  A    
C199  N2    A    
C13   C101  A    
C118  N74   T    
C24   C91   A    
C68   C126  A    
C169  C178  A    
N13   Ni2   S    
C26   C115  S    
C8    C14   A    
H77   N44   S    
C110  N68   T    
C164  H25   S    
C62   C81   S    
C18   C27   A    
C111  C151  S    
C38   N39   S    
C22   H37   S    
C168  H29   S    
C52   C156  S    
C53   C157  S    
C106  C146  S    
C138  N55   S    
C56   C160  S    
C141  N59   S    
C46   C93   A    
N4    N13   A    
H98   N55   S    
H104  N59   S    
C191  C208  A    
N11   Ni1   S    
N9    N80   A    
N18   N23   A    
C67   C84   S    
N23   Ni2   S    
N7    N16   A    
C188  C196  A    
C179  H21   S    
C90   C128  A    
C77   C135  A    
C42   N43   S    
H5    N60   S    
C92   H54   S    
C3    C166  A    
C93   H55   S    
C6    C169  A    
