data_mof_unit_26131.cif
_audit_creation_date              2012-12-10T16:52:04-0500
_audit_creation_method            fapswitch 2.2
_symmetry_space_group_name_H-M    P1
_symmetry_Int_Tables_number       1
_space_group_crystal_system       triclinic
_cell_length_a                    7.76833
_cell_length_b                    8.612441
_cell_length_c                    14.88172
_cell_angle_alpha                 91.156169
_cell_angle_beta                  86.168028
_cell_angle_gamma                 93.343386
_cell_volume                      991.601531913

loop_
_atom_site_label
_atom_site_type_symbol
_atom_type_description
_atom_site_fract_x
_atom_site_fract_y
_atom_site_fract_z
_atom_type_partial_charge
C1    C     C_R   0.545015 0.794300 0.499119 0.858734
C2    C     C_R   0.548962 0.646160 0.814156 0.371260
C3    C     C_R   0.490380 0.494351 0.232431 -0.157103
C4    C     C_R   0.509621 0.505651 0.767569 -0.157111
C5    C     C_R   0.530454 0.633756 0.188350 -0.269551
C6    C     C_R   0.469547 0.366246 0.811650 -0.269539
C7    C     C_R   0.534164 0.637161 0.095620 0.126256
C8    C     C_R   0.465839 0.362841 0.904379 0.126253
C9    C     C_R   0.497216 0.498391 0.046935 -0.000092
C10   C     C_R   0.502788 0.501610 0.953065 -0.000091
C11   C     C_R   0.455127 0.356428 0.092007 0.088162
C12   C     C_R   0.454984 0.205701 0.500882 0.858737
C13   C     C_R   0.544878 0.643573 0.907992 0.088160
C14   C     C_R   0.575649 0.777053 0.051091 -0.223380
C15   C     C_R   0.424355 0.222948 0.948908 -0.223376
C16   C     C_R   0.581043 0.780417 0.957816 -0.158882
C17   C     C_R   0.418963 0.219584 0.042183 -0.158885
C18   C     C_2   0.565307 0.957224 0.511405 0.195761
C19   C     C_2   0.434687 0.042777 0.488603 0.195693
C20   C     C_R   0.502870 0.501276 0.672613 0.874260
C21   C     C_R   0.497130 0.498726 0.327387 0.874247
C22   C     C_R   0.451043 0.353841 0.185843 0.371264
H1    H     H_    0.560212 0.739443 0.226737 0.170607
H2    H     H_    0.589951 0.772138 0.705140 0.325341
H3    H     H_    0.779038 0.938893 0.572758 0.347621
H4    H     H_    0.221048 0.061125 0.427206 0.347617
H5    H     H_    0.439787 0.260559 0.773262 0.170616
H6    H     H_    0.604285 0.883784 0.088433 0.167401
H7    H     H_    0.395718 0.116218 0.911566 0.167402
H8    H     H_    0.613654 0.890429 0.925104 0.201796
H9    H     H_    0.386352 0.109572 0.074896 0.201794
H10   H     H_    0.013870 0.382632 0.432251 0.199131
H11   H     H_    0.986130 0.617368 0.567749 0.199133
H12   H     H_    0.410056 0.227863 0.294859 0.325317
N1    N     N_2   0.950330 0.457950 0.475660 -0.152000
N2    N     N_2   0.049670 0.542050 0.524340 -0.151996
O1    O     O_R   0.389250 0.738570 0.505970 -0.554400
O2    O     O_3   0.588932 0.786354 0.771200 -0.782629
O3    O     O_3   0.705517 0.022095 0.555262 -0.756011
O4    O     O_3   0.294459 0.977904 0.444757 -0.756024
O5    O     O_R   0.610750 0.261430 0.494030 -0.554419
O6    O     O_R   0.678390 0.711620 0.490370 -0.647769
O7    O     O_R   0.321610 0.288380 0.509630 -0.647751
O8    O     O_R   0.355420 0.513510 0.639950 -0.609471
O9    O     O_R   0.644580 0.486490 0.360050 -0.609472
O10   O     O_R   0.644560 0.486560 0.624350 -0.614267
O11   O     O_R   0.355440 0.513440 0.375650 -0.614276
O12   O     O_3   0.411077 0.213647 0.228799 -0.782654
Zn1   Zn    Zn3+2 0.306940 0.517990 0.510420 0.999299
Zn2   Zn    Zn3+2 0.693060 0.482010 0.489580 0.999290

loop_
_geom_bond_atom_site_label_1
_geom_bond_atom_site_label_2
_ccdc_geom_bond_type
O8    Zn1   S    
C22   O12   S    
C18   O3    S    
C5    C7    A    
C12   O5    A    
C8    C15   A    
O1    Zn1   S    
C9    C10   A    
C2    O2    S    
C11   C22   A    
C2    C4    A    
N1    N2    D    
C5    H1    S    
C1    O1    A    
H11   N2    S    
N1    Zn2   S    
O7    Zn1   S    
O11   Zn1   S    
C21   O11   A    
H3    O3    S    
C9    C11   A    
H4    O4    S    
C1    C18   S    
O9    Zn2   S    
O6    Zn2   S    
C12   C19   S    
C4    C6    A    
C20   O8    A    
C15   H7    S    
C12   O7    A    
C21   O9    A    
C17   H9    S    
C14   C16   A    
C3    C21   S    
H12   O12   S    
C19   O4    S    
C16   H8    S    
H2    O2    S    
C4    C20   S    
H10   N1    S    
C7    C9    A    
O5    Zn2   S    
C1    O6    A    
C8    C10   A    
C18   C19   D    
C13   C16   A    
C15   C17   A    
C2    C13   A    
O10   Zn2   S    
C11   C17   A    
C3    C22   A    
C6    C8    A    
C14   H6    S    
C7    C14   A    
C20   O10   A    
N2    Zn1   S    
C6    H5    S    
C3    C5    A    
C10   C13   A    
