data_mof_unit_25332.cif
_audit_creation_date              2012-12-10T17:20:49-0500
_audit_creation_method            fapswitch 2.2
_symmetry_space_group_name_H-M    P1
_symmetry_Int_Tables_number       1
_space_group_crystal_system       triclinic
_cell_length_a                    14.339758
_cell_length_b                    10.789302
_cell_length_c                    9.613192
_cell_angle_alpha                 90.165639
_cell_angle_beta                  90.178556
_cell_angle_gamma                 92.487035
_cell_volume                      1485.89943425

loop_
_atom_site_label
_atom_site_type_symbol
_atom_type_description
_atom_site_fract_x
_atom_site_fract_y
_atom_site_fract_z
_atom_type_partial_charge
C1    C     C_R   0.496381 0.262571 0.499860 0.792767
C2    C     C_R   0.553201 0.066929 0.417502 -0.199694
C3    C     C_R   0.553533 0.939089 0.418003 -0.205486
C4    C     C_R   0.331211 0.499484 0.499838 0.797762
C5    C     C_R   0.490234 0.870575 0.500408 -0.090739
C6    C     C_R   0.623203 0.666055 0.144746 -0.119274
C7    C     C_R   0.682710 0.747950 0.073114 -0.210276
C8    C     C_R   0.682577 0.748051 0.929840 -0.200959
C9    C     C_R   0.622917 0.666274 0.857236 -0.114310
C10   C     C_R   0.560090 0.582000 0.925790 0.192394
C11   C     C_R   0.560205 0.581855 0.075237 0.150489
C12   C     C_1   0.771156 0.500428 0.500426 -0.201344
C13   C     C_R   0.442364 0.421547 0.073103 0.336025
C14   C     C_R   0.443497 0.421195 0.924930 -0.117046
C15   C     C_R   0.497007 0.737144 0.500184 0.758113
C16   C     C_R   0.668787 0.500320 0.500151 0.789559
C17   C     C_1   0.228868 0.499592 0.499505 -0.212232
C18   C     C_1   0.143435 0.499759 0.499503 -0.015672
C19   C     C_1   0.042748 0.500014 0.499738 -0.000990
C20   C     C_1   0.957301 0.500222 0.500019 -0.000661
C21   C     C_1   0.856604 0.500397 0.500325 -0.011012
C22   C     C_3   0.283518 0.359454 0.130144 -0.682699
C23   C     C_R   0.351147 0.121148 0.652997 -0.186687
C24   C     C_R   0.284231 0.052686 0.728701 -0.143429
C25   C     C_R   0.284579 0.923849 0.729395 -0.132454
C26   C     C_R   0.351875 0.862652 0.654458 -0.172460
C27   C     C_R   0.421828 0.930145 0.579294 0.098950
C28   C     C_R   0.421471 0.061305 0.578664 0.100441
C29   C     C_R   0.489595 0.128405 0.499451 -0.103632
Cu1   Cu    Cu3+1 0.499990 0.499990 0.640660 0.920910
Cu2   Cu    Cu3+1 0.500010 0.500010 0.359340 0.947732
H1    H     H_    0.604511 0.118445 0.355441 0.151743
H2    H     H_    0.630344 0.672933 0.254355 0.186872
H3    H     H_    0.729751 0.811368 0.129559 0.143995
H4    H     H_    0.395314 0.245154 0.122022 0.236430
H5    H     H_    0.242653 0.298045 0.202125 0.227694
H6    H     H_    0.259360 0.339853 0.022032 0.195915
H7    H     H_    0.270226 0.457353 0.157003 0.246800
H8    H     H_    0.729557 0.811491 0.874175 0.148701
H9    H     H_    0.629859 0.673061 0.747668 0.191107
H10   H     H_    0.397752 0.356444 0.868325 0.143138
H11   H     H_    0.345611 0.220682 0.651269 0.137546
H12   H     H_    0.231001 0.099792 0.785339 0.133130
H13   H     H_    0.231589 0.870947 0.786555 0.136895
H14   H     H_    0.346925 0.762483 0.654186 0.153415
H15   H     H_    0.605068 0.893387 0.356221 0.138272
N1    N     N_R   0.500820 0.501210 0.147910 -0.204763
N2    N     N_R   0.500850 0.501290 0.852040 -0.204173
N3    N     N_2   0.381716 0.336155 0.144358 -0.376185
O1    O     O_R   0.499990 0.319640 0.618810 -0.575436
O2    O     O_R   0.500000 0.319660 0.381240 -0.549137
O3    O     O_R   0.376050 0.499990 0.618810 -0.572153
O4    O     O_R   0.376060 0.500010 0.381240 -0.524146
O5    O     O_R   0.500000 0.680340 0.618760 -0.596864
O6    O     O_R   0.500010 0.680360 0.381190 -0.586962
O7    O     O_R   0.623940 0.499990 0.618760 -0.569033
O8    O     O_R   0.623950 0.500010 0.381190 -0.576882

loop_
_geom_bond_atom_site_label_1
_geom_bond_atom_site_label_2
_ccdc_geom_bond_type
H4    N3    S    
C23   C24   A    
C16   O7    A    
C24   C25   A    
C6    C7    A    
C8    H8    S    
C4    O4    A    
C22   H5    S    
C9    C10   A    
C3    H15   S    
C11   N1    A    
C19   C20   T    
C6    H2    S    
C5    C27   A    
Cu1   O5    S    
C1    C29   S    
C17   C18   T    
Cu1   O1    S    
C7    C8    A    
Cu2   N1    S    
C13   C14   A    
Cu2   O4    S    
C1    O2    A    
Cu2   O8    S    
C26   C27   A    
C23   H11   S    
C4    O3    A    
C14   H10   S    
C13   N3    S    
C4    C17   S    
C25   H13   S    
Cu1   N2    S    
C28   C29   A    
C2    C3    A    
C16   O8    A    
C22   N3    S    
C10   N2    A    
Cu1   Cu2   S    
C7    H3    S    
C5    C15   S    
C10   C11   A    
C22   H7    S    
C15   O5    A    
C27   C28   A    
C2    C29   A    
C20   C21   S    
C2    H1    S    
C18   C19   S    
C1    O1    A    
C6    C11   A    
C13   N1    A    
C24   H12   S    
Cu1   O3    S    
C14   N2    A    
C26   H14   S    
Cu2   O6    S    
C25   C26   A    
C23   C28   A    
C22   H6    S    
Cu1   O7    S    
C12   C21   T    
C9    H9    S    
C12   C16   S    
Cu2   O2    S    
C8    C9    A    
C3    C5    A    
C15   O6    A    
