data_mof_unit_53392.cif
_audit_creation_date              2012-12-11T15:39:17-0500
_audit_creation_method            fapswitch 2.2
_symmetry_space_group_name_H-M    P1
_symmetry_Int_Tables_number       1
_space_group_crystal_system       triclinic
_cell_length_a                    17.354306
_cell_length_b                    24.289848
_cell_length_c                    15.034935
_cell_angle_alpha                 90.124292
_cell_angle_beta                  125.982479
_cell_angle_gamma                 90.133463
_cell_volume                      5128.40573453

loop_
_atom_site_label
_atom_site_type_symbol
_atom_type_description
_atom_site_fract_x
_atom_site_fract_y
_atom_site_fract_z
_atom_type_partial_charge
C1    C     C_R   0.310174 0.374292 0.905933 -0.130817
C2    C     C_R   0.433560 0.499514 0.633930 0.048518
C3    C     C_R   0.118295 0.816776 0.997943 0.053609
C4    C     C_3   0.168173 0.399165 0.412425 0.212029
C5    C     C_3   0.215699 0.342733 0.439049 -0.244696
C6    C     C_3   0.235077 0.325910 0.355916 -1.071850
C7    C     C_3   0.908674 0.411427 0.183092 0.161526
C8    C     C_3   0.885786 0.353721 0.132530 -0.238121
C9    C     C_3   0.835583 0.355666 0.008580 -1.007973
C10   C     C_3   0.668108 0.899137 0.412349 0.211987
C11   C     C_3   0.715928 0.842785 0.439279 -0.244780
C12   C     C_3   0.735263 0.825892 0.356141 -1.071882
C13   C     C_R   0.984699 0.999807 0.310229 0.042880
C14   C     C_3   0.408655 0.911437 0.183072 0.161370
C15   C     C_3   0.385758 0.853735 0.132494 -0.238116
C16   C     C_3   0.335536 0.855688 0.008541 -1.007940
C17   C     C_R   0.933559 0.999514 0.633928 0.048540
C18   C     C_R   0.198808 0.500139 0.629659 0.173584
C19   C     C_R   0.826207 0.500855 0.276446 0.143765
C20   C     C_R   0.698809 0.000138 0.629656 0.173604
C21   C     C_R   0.326208 0.000856 0.276448 0.143755
C22   C     C_R   0.071871 0.552409 0.468267 0.095622
C23   C     C_R   0.977955 0.552943 0.378517 0.113969
C24   C     C_R   0.571871 0.052409 0.468267 0.095582
C25   C     C_R   0.648219 0.348000 0.090244 -0.153502
C26   C     C_R   0.477955 0.052943 0.378518 0.113959
C27   C     C_R   0.119815 0.502566 0.511896 -0.195199
C28   C     C_R   0.929163 0.503520 0.329153 -0.212198
C29   C     C_R   0.619816 0.002567 0.511893 -0.195085
C30   C     C_R   0.429164 0.003520 0.329152 -0.212124
C31   C     C_R   0.081250 0.455482 0.442590 0.399902
C32   C     C_R   0.984776 0.455924 0.349431 0.380210
C33   C     C_R   0.581256 0.955483 0.442582 0.399875
C34   C     C_R   0.484778 0.955925 0.349423 0.380125
C35   C     C_3   0.955853 0.600425 0.424045 -0.459874
C36   C     C_R   0.810174 0.874291 0.905933 -0.130819
C37   C     C_3   0.058670 0.599914 0.521705 -0.466961
C38   C     C_3   0.455853 0.100424 0.424048 -0.459874
C39   C     C_3   0.558670 0.099913 0.521708 -0.466961
C40   C     C_R   0.160656 0.690794 0.894962 -0.174447
C41   C     C_R   0.706090 0.769180 0.095512 -0.177013
C42   C     C_R   0.660656 0.190794 0.894962 -0.174445
C43   C     C_R   0.206091 0.269179 0.095512 -0.176998
C44   C     C_R   0.611383 0.235105 0.895511 -0.168702
C45   C     C_R   0.255319 0.313790 0.094687 -0.165201
C46   C     C_R   0.111382 0.735105 0.895511 -0.168702
C47   C     C_R   0.148218 0.848000 0.090244 -0.153500
C48   C     C_R   0.755319 0.813790 0.094687 -0.165206
C49   C     C_R   0.641991 0.259632 0.995830 0.147909
C50   C     C_R   0.239066 0.329828 0.995408 0.140668
C51   C     C_R   0.141989 0.759631 0.995830 0.147904
C52   C     C_R   0.739067 0.829828 0.995409 0.140673
C53   C     C_R   0.404595 0.630037 0.089263 -0.122132
C54   C     C_R   0.556947 0.651279 0.907811 -0.122000
C55   C     C_R   0.904595 0.130037 0.089263 -0.122124
C56   C     C_R   0.056947 0.151278 0.907811 -0.122005
C57   C     C_R   0.707731 0.232301 0.094486 -0.184895
C58   C     C_R   0.314090 0.641784 0.996415 0.040185
C59   C     C_R   0.158514 0.310189 0.895821 -0.167495
C60   C     C_R   0.207730 0.732301 0.094486 -0.184894
C61   C     C_R   0.658515 0.810188 0.895821 -0.167497
C62   C     C_R   0.256593 0.687683 0.093819 -0.166874
C63   C     C_R   0.608593 0.766054 0.896520 -0.169110
C64   C     C_R   0.756594 0.187684 0.093819 -0.166877
C65   C     C_R   0.108593 0.266054 0.896520 -0.169118
C66   C     C_R   0.240400 0.671206 0.994727 0.145121
C67   C     C_R   0.639703 0.741574 0.996813 0.140623
C68   C     C_R   0.740401 0.171206 0.994727 0.145121
C69   C     C_R   0.616679 0.684047 0.998628 0.048512
C70   C     C_R   0.139704 0.241574 0.996812 0.140628
C71   C     C_R   0.399704 0.548694 0.472121 -0.174441
C72   C     C_R   0.418893 0.548937 0.395252 -0.171518
C73   C     C_R   0.899702 0.048695 0.472120 -0.174459
C74   C     C_R   0.918890 0.048938 0.395251 -0.171519
C75   C     C_R   0.441539 0.499340 0.368104 0.157369
C76   C     C_R   0.405108 0.498961 0.522308 0.135715
C77   C     C_R   0.941533 0.999341 0.368099 0.157368
C78   C     C_R   0.905102 0.998963 0.522304 0.135744
C79   C     C_R   0.424618 0.449160 0.399461 -0.173781
C80   C     C_R   0.814090 0.141785 0.996415 0.040182
C81   C     C_R   0.406436 0.448987 0.476895 -0.200724
C82   C     C_R   0.924606 0.949161 0.399452 -0.173847
C83   C     C_R   0.906423 0.948989 0.476886 -0.200673
C84   C     C_R   0.506955 0.454083 0.275212 -0.131939
C85   C     C_R   0.450685 0.453815 0.697381 -0.124880
C86   C     C_R   0.006951 0.954083 0.275209 -0.131941
C87   C     C_R   0.950686 0.953815 0.697381 -0.124835
C88   C     C_R   0.247649 0.545479 0.694746 -0.176828
C89   C     C_R   0.767583 0.546293 0.245586 -0.156063
C90   C     C_R   0.747650 0.045478 0.694745 -0.176857
C91   C     C_R   0.116679 0.184046 0.998628 0.048514
C92   C     C_R   0.267583 0.046293 0.245587 -0.156078
C93   C     C_R   0.505862 0.545794 0.274566 -0.133487
C94   C     C_R   0.450968 0.545621 0.697214 -0.125135
C95   C     C_R   0.005859 0.045794 0.274563 -0.133489
C96   C     C_R   0.950966 0.045622 0.697213 -0.125156
C97   C     C_R   0.245018 0.454367 0.694657 -0.132494
C98   C     C_R   0.769757 0.454357 0.252987 -0.135012
C99   C     C_R   0.745019 0.954366 0.694656 -0.132460
C100  C     C_R   0.269757 0.954357 0.252989 -0.135012
C101  C     C_R   0.310657 0.625889 0.905664 -0.129505
C102  C     C_R   0.484704 0.499807 0.310233 0.042874
C103  C     C_R   0.646968 0.652695 0.090537 -0.149262
C104  C     C_R   0.810657 0.125889 0.905664 -0.129505
C105  C     C_R   0.146968 0.152695 0.090536 -0.149250
C106  C     C_R   0.404242 0.370238 0.089281 -0.121221
C107  C     C_R   0.557668 0.349028 0.907232 -0.130906
C108  C     C_R   0.904242 0.870237 0.089281 -0.121224
C109  C     C_R   0.057667 0.849028 0.907232 -0.130912
C110  C     C_R   0.313375 0.358687 0.996668 0.042588
C111  C     C_R   0.618296 0.316777 0.997943 0.053604
C112  C     C_R   0.813376 0.858686 0.996668 0.042588
H1    H     H_    0.251647 0.370206 0.820293 0.096577
H2    H     H_    0.098317 0.637242 0.526808 0.178731
H3    H     H_    0.407188 0.089451 0.446685 0.194314
H4    H     H_    0.598316 0.137241 0.526811 0.178735
H5    H     H_    0.141844 0.676286 0.816503 0.108739
H6    H     H_    0.727361 0.753520 0.174117 0.117444
H7    H     H_    0.641844 0.176286 0.816503 0.108738
H8    H     H_    0.227363 0.253519 0.174116 0.117440
H9    H     H_    0.556504 0.252953 0.817284 0.107788
H10   H     H_    0.312026 0.331528 0.172688 0.109862
H11   H     H_    0.056504 0.752953 0.817284 0.107791
H12   H     H_    0.686192 0.333836 0.173998 0.091575
H13   H     H_    0.812027 0.831528 0.172688 0.109851
H14   H     H_    0.728641 0.248039 0.173068 0.110578
H15   H     H_    0.139621 0.324437 0.817330 0.114452
H16   H     H_    0.228639 0.748038 0.173068 0.110581
H17   H     H_    0.639622 0.824437 0.817330 0.114450
H18   H     H_    0.312815 0.670124 0.171826 0.106632
H19   H     H_    0.553009 0.748114 0.818298 0.108025
H20   H     H_    0.812815 0.170124 0.171826 0.106630
H21   H     H_    0.053010 0.248114 0.818297 0.108026
H22   H     H_    0.391649 0.587832 0.500069 0.106995
H23   H     H_    0.751647 0.870205 0.820293 0.096572
H24   H     H_    0.422893 0.588176 0.364349 0.104718
H25   H     H_    0.891652 0.087834 0.500072 0.106998
H26   H     H_    0.922894 0.088177 0.364350 0.104717
H27   H     H_    0.433027 0.409915 0.372202 0.105403
H28   H     H_    0.404763 0.409690 0.509123 0.121563
H29   H     H_    0.933013 0.909916 0.372190 0.105428
H30   H     H_    0.904748 0.909692 0.509112 0.121657
H31   H     H_    0.434617 0.642874 0.171919 0.084834
H32   H     H_    0.510957 0.663724 0.822812 0.083480
H33   H     H_    0.934618 0.142875 0.171918 0.084830
H34   H     H_    0.186191 0.833836 0.173998 0.091576
H35   H     H_    0.010957 0.163724 0.822812 0.083482
H36   H     H_    0.514177 0.412400 0.302857 0.083918
H37   H     H_    0.433891 0.411332 0.671311 0.082140
H38   H     H_    0.014171 0.912400 0.302854 0.083920
H39   H     H_    0.933898 0.911332 0.671313 0.082090
H40   H     H_    0.242802 0.587048 0.666582 0.105147
H41   H     H_    0.785845 0.588780 0.246734 0.116173
H42   H     H_    0.742804 0.087048 0.666581 0.105153
H43   H     H_    0.285845 0.088780 0.246734 0.116172
H44   H     H_    0.511563 0.587555 0.301668 0.085072
H45   H     H_    0.936402 0.638204 0.373502 0.179390
H46   H     H_    0.435081 0.587988 0.670896 0.083539
H47   H     H_    0.011560 0.087555 0.301666 0.085068
H48   H     H_    0.935078 0.087988 0.670895 0.083543
H49   H     H_    0.234942 0.412049 0.668089 0.153283
H50   H     H_    0.791004 0.411762 0.266516 0.154209
H51   H     H_    0.734943 0.912049 0.668090 0.153290
H52   H     H_    0.291005 0.911763 0.266518 0.154214
H53   H     H_    0.252527 0.629873 0.819855 0.092657
H54   H     H_    0.684074 0.667210 0.174229 0.088767
H55   H     H_    0.752527 0.129873 0.819855 0.092658
H56   H     H_    0.067891 0.588735 0.599144 0.194072
H57   H     H_    0.184075 0.167210 0.174229 0.088755
H58   H     H_    0.434092 0.357580 0.171804 0.083483
H59   H     H_    0.511897 0.336359 0.822125 0.085930
H60   H     H_    0.934093 0.857579 0.171803 0.083485
H61   H     H_    0.011896 0.836359 0.822125 0.085933
H62   H     H_    0.222033 0.431620 0.434004 0.081637
H63   H     H_    0.110913 0.400814 0.322642 0.113202
H64   H     H_    0.283763 0.343770 0.522940 0.171957
H65   H     H_    0.168454 0.311204 0.437679 0.217046
H66   H     H_    0.166871 0.320267 0.273241 0.275086
H67   H     H_    0.436402 0.138204 0.373507 0.179389
H68   H     H_    0.274406 0.286364 0.381324 0.268338
H69   H     H_    0.278303 0.357644 0.350711 0.274030
H70   H     H_    0.961559 0.431073 0.173560 0.070586
H71   H     H_    0.842486 0.436312 0.137563 0.122443
H72   H     H_    0.952916 0.329973 0.171350 0.195205
H73   H     H_    0.839184 0.331955 0.149227 0.208610
H74   H     H_    0.767182 0.378199 0.968007 0.273440
H75   H     H_    0.820153 0.313059 0.975136 0.274799
H76   H     H_    0.881577 0.376345 0.989758 0.266691
H77   H     H_    0.721777 0.931668 0.433620 0.081555
H78   H     H_    0.567892 0.088732 0.599146 0.194071
H79   H     H_    0.610754 0.900622 0.322582 0.113491
H80   H     H_    0.784037 0.843984 0.523119 0.171920
H81   H     H_    0.668895 0.811206 0.438201 0.217018
H82   H     H_    0.667035 0.820070 0.273560 0.275045
H83   H     H_    0.774828 0.786423 0.381771 0.268371
H84   H     H_    0.778242 0.857674 0.350614 0.274050
H85   H     H_    0.461533 0.931087 0.173531 0.070575
H86   H     H_    0.342467 0.936323 0.137557 0.122499
H87   H     H_    0.452887 0.829987 0.171295 0.195158
H88   H     H_    0.339168 0.831964 0.149203 0.208628
H89   H     H_    0.907187 0.589454 0.446682 0.194316
H90   H     H_    0.267137 0.878222 0.967988 0.273439
H91   H     H_    0.320099 0.813083 0.975086 0.274790
H92   H     H_    0.381519 0.876371 0.989707 0.266687
N1    N     N_R   0.394180 0.396910 0.943210 -0.040078
N2    N     N_R   0.474350 0.471570 0.793850 -0.039876
N3    N     N_R   0.025650 0.971570 0.206150 -0.036609
N4    N     N_R   0.974350 0.971570 0.793850 -0.039881
N5    N     N_R   0.319480 0.528420 0.793810 -0.039913
N6    N     N_R   0.680520 0.528420 0.206190 -0.044685
N7    N     N_R   0.819480 0.028420 0.793810 -0.039912
N8    N     N_R   0.180520 0.028420 0.206190 -0.044683
N9    N     N_R   0.525640 0.528390 0.206120 -0.036525
N10   N     N_R   0.474360 0.528390 0.793880 -0.038813
N11   N     N_R   0.025640 0.028390 0.206120 -0.036526
N12   N     N_R   0.605820 0.396910 0.056790 -0.040384
N13   N     N_R   0.974360 0.028390 0.793880 -0.038814
N14   N     N_R   0.319490 0.471590 0.793840 -0.050275
N15   N     N_R   0.680510 0.471590 0.206160 -0.051294
N16   N     N_R   0.819490 0.971590 0.793840 -0.050281
N17   N     N_R   0.180510 0.971590 0.206160 -0.051294
N18   N     N_R   0.394130 0.603080 0.943110 -0.038533
N19   N     N_R   0.605870 0.603080 0.056890 -0.039331
N20   N     N_R   0.894130 0.103080 0.943110 -0.038532
N21   N     N_R   0.105870 0.103080 0.056890 -0.039332
N22   N     N_R   0.450990 0.396900 0.056840 -0.037620
N23   N     N_R   0.894180 0.896910 0.943210 -0.040077
N24   N     N_R   0.549010 0.396900 0.943160 -0.039879
N25   N     N_R   0.950990 0.896900 0.056840 -0.037619
N26   N     N_R   0.049010 0.896900 0.943160 -0.039882
N27   N     N_R   0.105820 0.896910 0.056790 -0.040385
N28   N     N_R   0.450950 0.603070 0.056740 -0.037818
N29   N     N_R   0.549050 0.603070 0.943260 -0.039047
N30   N     N_R   0.950950 0.103070 0.056740 -0.037817
N31   N     N_R   0.049050 0.103070 0.943260 -0.039047
N32   N     N_R   0.525650 0.471570 0.206150 -0.036609
Ni1   Ni    Ni4+2 0.434860 0.434850 0.869700 0.206303
Ni2   Ni    Ni4+2 0.565140 0.434850 0.130300 0.211158
Ni3   Ni    Ni4+2 0.934860 0.934850 0.869700 0.206301
Ni4   Ni    Ni4+2 0.065140 0.934850 0.130300 0.211157
Ni5   Ni    Ni4+2 0.565130 0.565140 0.130240 0.211758
Ni6   Ni    Ni4+2 0.434870 0.565140 0.869760 0.205404
Ni7   Ni    Ni4+2 0.065130 0.065140 0.130240 0.211754
Ni8   Ni    Ni4+2 0.934870 0.065140 0.869760 0.205406
O1    O     O_3   0.131092 0.406607 0.473749 -0.650753
O2    O     O_3   0.944380 0.406570 0.294886 -0.643773
O3    O     O_3   0.631108 0.906612 0.473752 -0.650764
O4    O     O_3   0.444378 0.906573 0.294871 -0.643805

loop_
_geom_bond_atom_site_label_1
_geom_bond_atom_site_label_2
_ccdc_geom_bond_type
C44   C49   A    
C101  N18   A    
C81   H28   S    
C79   H27   S    
C68   C80   S    
N22   Ni2   S    
C2    C94   A    
C73   H25   S    
C12   H84   S    
C73   C74   A    
C62   H18   S    
C54   H32   S    
C70   C91   S    
C87   H39   S    
C9    H76   S    
C71   H22   S    
N18   Ni6   S    
C7    C8    S    
C41   C67   A    
C107  H59   S    
C40   C46   A    
N7    N16   A    
C14   H86   S    
C7    O2    S    
N12   N24   A    
C105  H57   S    
C20   C29   S    
C13   C95   A    
C95   H47   S    
C50   C59   A    
C77   C82   A    
N15   Ni2   S    
C84   N32   A    
C24   C26   A    
N8    Ni7   S    
C52   C61   A    
C86   H38   S    
C38   C39   S    
C109  H61   S    
C42   H7    S    
C72   H24   S    
C55   H33   S    
C47   N27   A    
C52   C112  S    
C43   C70   A    
C59   H15   S    
C96   N13   A    
C29   C33   A    
C44   H9    S    
C50   C110  S    
C24   C39   S    
C49   C57   A    
C2    C85   A    
C60   C62   A    
C11   H80   S    
C61   C63   A    
C91   C105  A    
C24   C29   A    
N20   N30   A    
N11   Ni7   S    
N19   N29   A    
C103  N19   A    
C48   H13   S    
C78   C83   A    
C58   C66   S    
C56   C91   A    
C64   H20   S    
C8    C9    S    
C74   C77   A    
C13   C86   A    
C36   C112  A    
C75   C102  S    
C73   C78   A    
C106  N22   A    
N16   Ni3   S    
C18   C97   A    
C105  N21   A    
C41   H6    S    
C90   H42   S    
C16   H91   S    
C1    N1    A    
C61   H17   S    
N30   Ni7   S    
C49   C111  S    
C6    H68   S    
C8    H72   S    
C69   C103  A    
C40   H5    S    
C47   H34   S    
N18   N28   A    
C94   H46   S    
C40   C66   A    
C98   N15   A    
C6    H66   S    
C42   C68   A    
C88   H40   S    
N26   Ni3   S    
C5    C6    S    
C42   C44   A    
C72   C75   A    
C16   H90   S    
N4    Ni3   S    
C22   C23   A    
C17   C96   A    
C98   H50   S    
C19   C98   A    
C85   N2    A    
C37   H56   S    
C14   O4    S    
N8    N17   A    
C84   H36   S    
C87   N4    A    
C14   H85   S    
C13   C77   S    
C94   N10   A    
C10   H77   S    
C15   C16   S    
C30   C34   A    
C6    H69   S    
C93   N9    A    
N28   Ni5   S    
N21   N31   A    
C28   C32   A    
C88   N5    A    
C100  H52   S    
C9    H74   S    
C57   H14   S    
C79   C81   A    
C21   C100  A    
C62   C66   A    
N20   Ni8   S    
C37   H2    S    
N17   Ni4   S    
C22   C37   S    
C27   C31   A    
C108  N25   A    
C4    H63   S    
C18   C88   A    
N6    N15   A    
C108  C112  A    
C32   O2    S    
N27   Ni4   S    
C67   C69   S    
C76   C81   A    
C101  H53   S    
C35   H45   S    
C63   C67   A    
C19   C89   A    
C1    C110  A    
C83   H30   S    
C15   H87   S    
C109  N26   A    
C89   H41   S    
C31   C32   A    
C60   H16   S    
C53   C58   A    
N23   Ni3   S    
C107  N24   A    
N3    N11   A    
C33   C34   A    
N1    N22   A    
C56   N31   A    
C58   C101  A    
C23   C28   A    
C92   H43   S    
N25   Ni4   S    
N1    Ni1   S    
C19   C28   S    
C43   C45   A    
C5    H65   S    
C25   H12   S    
N3    Ni4   S    
C99   H51   S    
C15   H88   S    
C96   H48   S    
C80   C104  A    
C26   C30   A    
C36   N23   A    
C63   H19   S    
C22   C27   A    
C108  H60   S    
C34   O4    S    
C45   H10   S    
C5    H64   S    
C46   H11   S    
C92   N8    A    
C51   C60   A    
N5    N14   A    
C55   N30   A    
N9    N32   A    
C36   H23   S    
C64   C68   A    
C2    C76   S    
C35   C37   S    
C57   C64   A    
C106  C110  A    
N4    N13   A    
C39   H78   S    
C54   C69   A    
C3    C51   S    
C38   H67   S    
C7    H70   S    
N23   N25   A    
C14   C15   S    
C107  C111  A    
N7    Ni8   S    
C93   H44   S    
C35   H89   S    
C18   C27   S    
C11   H81   S    
N6    Ni5   S    
C4    C5    S    
C9    H75   S    
C84   C102  A    
C93   C102  A    
N5    Ni6   S    
C11   C12   S    
C89   N6    A    
N19   Ni5   S    
C38   H3    S    
C8    H73   S    
N21   Ni7   S    
C21   C30   S    
C43   H8    S    
C86   N3    A    
C97   H49   S    
C10   H79   S    
N14   Ni1   S    
C7    H71   S    
N10   Ni6   S    
C26   C38   S    
C56   H35   S    
N9    Ni5   S    
N13   Ni8   S    
N12   Ni2   S    
N24   Ni1   S    
C16   H92   S    
C82   C83   A    
C59   C65   A    
C104  H55   S    
C100  N17   A    
C55   C80   A    
C74   H26   S    
N2    N10   A    
C71   C76   A    
C20   C99   A    
C20   C90   A    
C45   C50   A    
C3    C109  A    
C95   N11   A    
C46   C51   A    
C3    C47   A    
C17   C78   S    
C12   H83   S    
C41   C48   A    
N32   Ni2   S    
C33   O3    S    
N2    Ni1   S    
C1    H1    S    
N26   N27   A    
C23   C35   S    
C85   H37   S    
N31   Ni8   S    
C17   C87   A    
C10   C11   S    
C25   C111  A    
C53   N28   A    
C25   N12   A    
N29   Ni6   S    
C71   C72   A    
C99   N16   A    
C103  H54   S    
C39   H4    S    
C106  H58   S    
C90   N7    A    
C97   N14   A    
C31   O1    S    
C4    H62   S    
C10   O3    S    
C54   N29   A    
C53   H31   S    
C48   C52   A    
C75   C79   A    
C82   H29   S    
C104  N20   A    
C65   H21   S    
C65   C70   A    
C12   H82   S    
C4    O1    S    
C21   C92   A    
