data_mof_unit_28178.cif
_audit_creation_date              2012-12-10T18:34:28-0500
_audit_creation_method            fapswitch 2.2
_symmetry_space_group_name_H-M    P1
_symmetry_Int_Tables_number       1
_space_group_crystal_system       triclinic
_cell_length_a                    15.002227
_cell_length_b                    15.375247
_cell_length_c                    15.740271
_cell_angle_alpha                 90.330912
_cell_angle_beta                  105.278153
_cell_angle_gamma                 81.563979
_cell_volume                      3462.42873202

loop_
_atom_site_label
_atom_site_type_symbol
_atom_type_description
_atom_site_fract_x
_atom_site_fract_y
_atom_site_fract_z
_atom_type_partial_charge
C1    C     C_R   0.441378 0.662092 0.485784 0.953827
C2    C     C_R   0.558807 0.337505 0.513633 0.940296
C3    C     C_R   0.300735 0.880692 0.504485 0.455263
C4    C     C_R   0.717456 0.124091 0.510073 0.417659
C5    C     C_R   0.329979 0.789858 0.507394 -0.260577
C6    C     C_R   0.685838 0.214249 0.510830 -0.275974
C7    C     C_R   0.452278 0.810726 0.438084 0.369516
C8    C     C_R   0.540047 0.182496 0.530534 0.373119
C9    C     C_R   0.438589 0.900382 0.455716 -0.060247
C10   C     C_R   0.558132 0.097491 0.499500 -0.083791
C11   C     C_R   0.351875 0.936824 0.471309 -0.144364
C12   C     C_R   0.650015 0.065173 0.492053 -0.130824
C13   C     C_R   0.509534 0.954240 0.464901 0.076428
C14   C     C_R   0.486705 0.044580 0.476302 0.060535
C15   C     C_R   0.391655 0.080926 0.457593 -0.158202
C16   C     C_R   0.602552 0.920724 0.467010 -0.146682
C17   C     C_R   0.323245 0.027845 0.454361 0.403810
C18   C     C_R   0.668551 0.976366 0.468062 0.386411
C19   C     C_R   0.839017 0.642764 0.628851 0.543093
C20   C     C_R   0.151060 0.382027 0.349893 0.505718
C21   C     C_R   0.751011 0.617625 0.606395 0.680445
C22   C     C_R   0.242763 0.397010 0.380357 0.682916
C23   C     C_R   0.501471 0.500624 0.662073 0.897180
C24   C     C_R   0.498525 0.499369 0.337962 0.908984
C25   C     C_R   0.795303 0.511128 0.510592 -0.130541
C26   C     C_R   0.207040 0.484159 0.494488 -0.134228
C27   C     C_R   0.885401 0.535692 0.527205 -0.077358
C28   C     C_R   0.111852 0.472726 0.466803 -0.076011
C29   C     C_R   0.909306 0.600491 0.591386 -0.242261
C30   C     C_R   0.083978 0.417291 0.394240 -0.218748
C31   C     C_R   0.951637 0.496821 0.482592 0.080608
C32   C     C_R   0.044425 0.515365 0.508494 0.082696
C33   C     C_R   0.066648 0.578025 0.573488 -0.231163
C34   C     C_R   0.926357 0.441966 0.410953 -0.250991
C35   C     C_R   0.001881 0.620213 0.615080 0.487531
C36   C     C_R   0.990199 0.400943 0.367986 0.480763
C37   C     C_3   0.422854 0.552821 0.008078 0.259998
C38   C     C_3   0.576529 0.448233 0.992032 0.257752
C39   C     C_3   0.501677 0.583298 0.975107 0.257592
C40   C     C_3   0.497658 0.417778 0.025001 0.259439
C41   C     C_1   0.504284 0.502361 0.751550 -0.027247
C42   C     C_1   0.495490 0.498094 0.248499 -0.007255
C43   C     C_3   0.423434 0.471885 0.949818 0.222611
C44   C     C_3   0.575929 0.529185 0.050280 0.222734
C45   C     C_3   0.502358 0.502384 0.917156 -0.347192
C46   C     C_3   0.497008 0.498709 0.082895 -0.350211
C47   C     C_1   0.504468 0.503094 0.826797 0.273675
C48   C     C_1   0.495068 0.497770 0.173234 0.275393
C49   C     C_R   0.404726 0.755193 0.473814 -0.219541
C50   C     C_R   0.595792 0.243772 0.518707 -0.205141
H1    H     H_    0.235463 0.522042 0.549878 0.185913
H2    H     H_    0.773464 0.458229 0.469030 0.174392
H3    H     H_    0.134338 0.598128 0.591739 0.198559
H4    H     H_    0.855157 0.432104 0.384358 0.208615
H5    H     H_    0.733919 0.260871 0.513150 0.190754
H6    H     H_    0.296320 0.746031 0.538079 0.218941
H7    H     H_    0.370740 0.150630 0.443403 0.193560
H8    H     H_    0.623909 0.851419 0.462502 0.201895
N1    N     N_R   0.731710 0.552730 0.549140 -0.186822
N2    N     N_R   0.268290 0.447270 0.450860 -0.178389
O1    O     O_R   0.383110 0.605620 0.475230 -0.625536
O2    O     O_R   0.616890 0.394380 0.524770 -0.635863
O3    O     O_R   0.531900 0.639510 0.506760 -0.534960
O4    O     O_R   0.468100 0.360490 0.493240 -0.529418
O5    O     O_R   0.425620 0.483070 0.607460 -0.606900
O6    O     O_R   0.574380 0.516930 0.392540 -0.591250
O7    O     O_R   0.574400 0.516960 0.638990 -0.558110
O8    O     O_R   0.425600 0.483040 0.361010 -0.551183
Zn1   Zn    Zn3+2 0.400660 0.477370 0.478940 1.081490
Zn2   Zn    Zn3+2 0.599340 0.522630 0.521060 1.082300
S1    S     S_3+6 0.504135 0.692163 0.938211 0.164774
O9    O     O_2   0.591529 0.693661 0.908997 -0.186019
O10   O     O_2   0.420053 0.719873 0.862153 -0.226515
O11   O     O_3   0.502736 0.761332 0.021080 -0.442174
H9    H     H_    0.503940 0.819931 0.995974 0.403227
S2    S     S_3+6 0.495555 0.309106 0.062758 0.132555
O12   O     O_2   0.583060 0.279612 0.134652 -0.219644
O13   O     O_2   0.411858 0.309023 0.098205 -0.243840
O14   O     O_3   0.489493 0.240484 0.978615 -0.436669
H10   H     H_    0.488012 0.182152 0.004134 0.404312
F1    F     F_    0.306612 0.362990 0.337468 -0.587152
F2    F     F_    0.684138 0.657971 0.642850 -0.576722
F3    F     F_    0.851835 0.709640 0.684953 -0.519067
F4    F     F_    0.129306 0.338075 0.274235 -0.531352
S3    S     S_3+6 0.321810 0.620999 0.023593 0.174420
O15   O     O_2   0.265447 0.565954 0.061073 -0.195367
O16   O     O_2   0.351629 0.691695 0.086439 -0.191018
O17   O     O_3   0.256884 0.667227 0.926358 -0.451696
H11   H     H_    0.200949 0.701228 0.939440 0.406471
S4    S     S_3+6 0.677150 0.379391 0.976443 0.147521
O18   O     O_2   0.646586 0.306783 0.916455 -0.181580
O19   O     O_2   0.731977 0.432994 0.935431 -0.246249
O20   O     O_3   0.744026 0.336086 0.074239 -0.450734
H12   H     H_    0.796757 0.297317 0.060301 0.411687
S5    S     S_3+6 0.675568 0.566843 0.121527 0.164458
O21   O     O_2   0.644147 0.646555 0.167845 -0.175617
O22   O     O_2   0.726971 0.495677 0.189222 -0.246311
O23   O     O_3   0.746729 0.593525 0.062456 -0.418042
H13   H     H_    0.796850 0.542292 0.069772 0.410106
S6    S     S_3+6 0.323130 0.435306 0.878578 0.159058
O24   O     O_2   0.271306 0.507556 0.812396 -0.191747
O25   O     O_2   0.353618 0.356505 0.830458 -0.234353
O26   O     O_3   0.251912 0.408951 0.937726 -0.417144
H14   H     H_    0.268007 0.344482 0.948707 0.406199
S7    S     S_3+6 0.205941 0.073084 0.402576 0.159293
O27   O     O_2   0.150033 0.001951 0.364411 -0.160070
O28   O     O_2   0.161758 0.123261 0.467024 -0.200098
O29   O     O_3   0.204425 0.142166 0.319641 -0.422313
H15   H     H_    0.223571 0.196258 0.348538 0.379138
S8    S     S_3+6 0.756074 0.936783 0.414258 0.142444
O30   O     O_2   0.773432 0.009960 0.360712 -0.174306
O31   O     O_2   0.845679 0.898602 0.479688 -0.187271
O32   O     O_3   0.719694 0.857608 0.344976 -0.466769
H16   H     H_    0.745501 0.801365 0.378929 0.382445
S9    S     S_3+6 0.472019 0.203828 0.608472 0.082282
O33   O     O_2   0.463230 0.118889 0.650221 -0.214148
O34   O     O_2   0.519961 0.260209 0.679329 -0.247091
O35   O     O_3   0.364548 0.257219 0.559472 -0.569002
H17   H     H_    0.335100 0.272006 0.608156 0.408710
S10   S     S_3+6 0.496672 0.773930 0.347284 0.063792
O36   O     O_2   0.591230 0.718806 0.379213 -0.306895
O37   O     O_2   0.430770 0.718941 0.290614 -0.257974
O38   O     O_3   0.504690 0.860463 0.286267 -0.483906
H18   H     H_    0.527510 0.834360 0.236792 0.433889
S11   S     S_3+6 0.222067 0.919360 0.567902 0.136923
O39   O     O_2   0.243348 0.005607 0.607514 -0.212453
O40   O     O_2   0.123044 0.929976 0.511515 -0.147071
O41   O     O_3   0.233655 0.845765 0.650117 -0.516891
H19   H     H_    0.191937 0.873561 0.685245 0.413354
S12   S     S_3+6 0.838544 0.091064 0.559523 0.155671
O42   O     O_2   0.853494 0.007156 0.613222 -0.147061
O43   O     O_2   0.892564 0.078513 0.491285 -0.166766
O44   O     O_3   0.880239 0.169054 0.627831 -0.480863
H20   H     H_    0.901000 0.209856 0.591083 0.365641
S13   S     S_3+6 0.043712 0.694084 0.698700 0.145838
O45   O     O_2   0.995555 0.786079 0.670177 -0.158497
O46   O     O_2   0.024014 0.668110 0.783131 -0.167647
O47   O     O_3   0.159709 0.691908 0.717226 -0.512684
H21   H     H_    0.175750 0.735869 0.762778 0.414143
S14   S     S_3+6 0.947432 0.327304 0.284452 0.148211
O48   O     O_2   0.946281 0.364680 0.196071 -0.168235
O49   O     O_2   0.009566 0.239701 0.301921 -0.151736
O50   O     O_3   0.838161 0.312038 0.282881 -0.524866
H22   H     H_    0.825992 0.260955 0.245235 0.421638

loop_
_geom_bond_atom_site_label_1
_geom_bond_atom_site_label_2
_ccdc_geom_bond_type
S13   O47   S    
O20   H12   S    
C27   C29   A    
C24   C42   S    
C5    H6    S    
S5    O21   D    
S14   O50   S    
C6    H5    S    
O41   H19   S    
O44   H20   S    
S5    O23   S    
S13   O45   D    
C20   C30   A    
S3    O15   D    
C40   C46   S    
S7    O28   D    
C2    O4    A    
C37   S3    S    
C19   C21   A    
S14   O49   D    
C21   N1    A    
C22   N2    A    
O5    Zn1   S    
O50   H22   S    
S9    O33   D    
O29   H15   S    
O2    Zn2   S    
C15   C17   A    
C23   O7    A    
C9    C13   A    
S8    O30   D    
C38   C45   S    
C2    C50   S    
C8    S9    S    
O35   H17   S    
C40   C43   S    
S10   O37   D    
O8    Zn1   S    
S9    O34   D    
S11   O41   S    
S2    O14   S    
C4    C12   A    
S10   O38   S    
C24   O6    A    
C39   C45   S    
O38   H18   S    
S3    O16   D    
S13   O46   D    
C13   C14   A    
C15   H7    S    
C5    C49   A    
C19   F3    S    
C1    O3    A    
C44   C46   S    
C45   C47   S    
C33   H3    S    
S7    O29   S    
C46   C48   S    
O11   H9    S    
C27   C31   A    
C22   F1    S    
C28   C32   A    
C43   S6    S    
C7    C49   A    
C4    C6    A    
C10   C14   A    
C35   S13   S    
S1    O10   D    
C16   H8    S    
S6    O26   S    
C6    C50   A    
C40   S2    S    
C37   C43   S    
S12   O43   D    
C38   C44   S    
C17   S7    S    
C9    C11   A    
S4    O19   D    
C31   C32   A    
O3    Zn2   S    
S9    O35   S    
S6    O25   D    
C41   C47   T    
C31   C34   A    
C42   C48   T    
O4    Zn1   S    
S2    O12   D    
C43   C45   S    
S8    O32   S    
C10   C12   A    
C16   C18   A    
C20   C22   A    
C34   H4    S    
C20   F4    S    
S11   O39   D    
S12   O44   S    
C19   C29   A    
C8    C50   A    
S10   O36   D    
S4    O20   S    
O32   H16   S    
S3    O17   S    
O1    Zn1   S    
C7    C9    A    
C38   S4    S    
C11   C17   A    
C7    S10   S    
C18   S8    S    
S2    O13   D    
C3    C5    A    
C1    O1    A    
S1    O11   S    
C4    S12   S    
S5    O22   D    
C39   C44   S    
C25   C27   A    
S7    O27   D    
C29   C35   A    
C26   C28   A    
C23   C41   S    
C30   C36   A    
C3    S11   S    
O7    Zn2   S    
C32   C33   A    
C23   O5    A    
C28   C30   A    
S12   O42   D    
C25   H2    S    
S1    O9    D    
C37   C39   S    
C44   S5    S    
C26   H1    S    
C38   C40   S    
C21   F2    S    
S4    O18   D    
O6    Zn2   S    
C26   N2    A    
N2    Zn1   S    
S14   O48   D    
S6    O24   D    
C33   C35   A    
C34   C36   A    
C36   S14   S    
S8    O31   D    
C3    C11   A    
O47   H21   S    
C24   O8    A    
N1    Zn2   S    
O14   H10   S    
O17   H11   S    
C8    C10   A    
O23   H13   S    
C13   C16   A    
C12   C18   A    
O26   H14   S    
S11   O40   D    
C39   S1    S    
C14   C15   A    
C25   N1    A    
C37   C46   S    
C1    C49   S    
C2    O2    A    
