data_mof_unit_5480.cif
_audit_creation_date              2012-12-10T20:27:57-0500
_audit_creation_method            fapswitch 2.2
_symmetry_space_group_name_H-M    P1
_symmetry_Int_Tables_number       1
_space_group_crystal_system       triclinic
_cell_length_a                    12.877818
_cell_length_b                    10.682875
_cell_length_c                    9.855175
_cell_angle_alpha                 89.834457
_cell_angle_beta                  97.125585
_cell_angle_gamma                 90.092031
_cell_volume                      1345.31933517

loop_
_atom_site_label
_atom_site_type_symbol
_atom_type_description
_atom_site_fract_x
_atom_site_fract_y
_atom_site_fract_z
_atom_type_partial_charge
C1    C     C_R   0.496981 0.259922 0.499763 0.878465
C2    C     C_R   0.458016 0.935652 0.373202 -0.222761
C3    C     C_R   0.481129 0.871418 0.497492 -0.100383
C4    C     C_R   0.298128 0.500463 0.473291 0.884964
C5    C     C_R   0.484965 0.935559 0.620649 0.070929
C6    C     C_3   0.562884 0.927197 0.745892 -0.569482
C7    C     C_3   0.562820 0.069555 0.747161 0.381436
C8    C     C_R   0.453346 0.404805 0.063992 0.198033
C9    C     C_R   0.554629 0.587320 0.080614 -0.136104
C10   C     C_R   0.554769 0.587204 0.936559 -0.157691
C11   C     C_R   0.453291 0.404867 0.921475 0.304889
C12   C     C_R   0.028785 0.519134 0.562380 0.190152
C13   C     C_3   0.340911 0.367926 0.897552 -0.477749
C14   C     C_3   0.340909 0.368282 0.051606 -0.534972
C15   C     C_R   0.497022 0.740047 0.499356 0.891206
C16   C     C_R   0.701837 0.499503 0.526768 0.878333
C17   C     C_R   0.813940 0.500703 0.542963 -0.050957
C18   C     C_R   0.185973 0.499052 0.457373 -0.048022
C19   C     C_R   0.021219 0.453101 0.323970 -0.223490
C20   C     C_R   0.129023 0.462108 0.333709 -0.203474
C21   C     C_R   0.135813 0.529543 0.570419 -0.282383
C22   C     C_3   0.594055 0.132821 0.971301 -0.331843
C23   C     C_R   0.971125 0.480576 0.438161 0.186851
C24   C     C_R   0.864081 0.470853 0.429761 -0.285397
C25   C     C_R   0.870828 0.536560 0.667153 -0.211790
C26   C     C_R   0.978676 0.545962 0.676805 -0.223160
C27   C     C_R   0.484673 0.063262 0.621393 0.119873
C28   C     C_R   0.480980 0.128481 0.498287 -0.174779
C29   C     C_R   0.457885 0.065130 0.373600 -0.209766
H1    H     H_    0.819811 0.441348 0.334274 0.158255
H2    H     H_    0.831971 0.559916 0.755132 0.157749
H3    H     H_    0.977357 0.423613 0.228361 0.137541
H4    H     H_    0.022578 0.574985 0.772567 0.138696
H5    H     H_    0.167667 0.437602 0.246160 0.153560
H6    H     H_    0.180006 0.560268 0.665372 0.152274
H7    H     H_    0.446768 0.114568 0.276754 0.168682
H8    H     H_    0.447050 0.886975 0.276176 0.173361
H9    H     H_    0.528626 0.883864 0.832988 0.226156
H10   H     H_    0.649853 0.208479 0.951916 0.160197
H11   H     H_    0.636707 0.043738 0.997599 0.161226
H12   H     H_    0.638847 0.886723 0.725197 0.158588
H13   H     H_    0.555645 0.160191 0.061418 0.184769
H14   H     H_    0.637742 0.114729 0.727383 0.062488
H15   H     H_    0.597033 0.659232 0.141651 0.150553
H16   H     H_    0.597518 0.658769 0.888853 0.147476
H17   H     H_    0.290419 0.441951 0.844846 0.202261
H18   H     H_    0.330047 0.273109 0.851808 0.234516
H19   H     H_    0.291045 0.443179 0.087015 0.212004
H20   H     H_    0.329688 0.273769 0.094990 0.206388
N1    N     N_R   0.499290 0.499140 0.142710 -0.109889
N2    N     N_R   0.499290 0.499180 0.857070 -0.117912
O1    O     O_R   0.500010 0.316790 0.614690 -0.599354
O2    O     O_R   0.500000 0.316760 0.385350 -0.623809
O3    O     O_R   0.346360 0.499990 0.595720 -0.626630
O4    O     O_R   0.346350 0.499960 0.366370 -0.624411
O5    O     O_R   0.500000 0.683240 0.614650 -0.615078
O6    O     O_R   0.499990 0.683210 0.385310 -0.628488
O7    O     O_R   0.653650 0.500040 0.633630 -0.628171
O8    O     O_R   0.653640 0.500010 0.404280 -0.623186
O9    O     O_3   0.516491 0.118530 0.858205 -0.582169
Zn1   Zn    Zn3+2 0.500010 0.500020 0.653130 0.953362
Zn2   Zn    Zn3+2 0.499990 0.499980 0.346870 0.938068

loop_
_geom_bond_atom_site_label_1
_geom_bond_atom_site_label_2
_ccdc_geom_bond_type
C25   H2    S    
C1    C28   S    
C19   C23   A    
C23   C24   A    
C6    H9    S    
C6    C7    S    
C21   H6    S    
O3    Zn1   S    
C7    H14   S    
C18   C21   A    
C15   O6    A    
C9    C10   A    
C26   H4    S    
C19   C20   A    
N2    Zn1   S    
C7    C27   S    
C3    C5    A    
C22   H11   S    
C15   O5    A    
O7    Zn1   S    
C2    C3    A    
C4    C18   S    
O6    Zn2   S    
C16   O7    A    
C13   C14   S    
C11   C13   S    
C2    H8    S    
C13   H17   S    
C10   H16   S    
C2    C29   A    
C19   H3    S    
C28   C29   A    
C18   C20   A    
O1    Zn1   S    
C8    C11   A    
C4    O4    A    
C22   O9    S    
C5    C6    S    
N1    Zn2   S    
C1    O1    A    
C24   H1    S    
C14   H20   S    
C11   N2    A    
C10   N2    A    
C20   H5    S    
C17   C24   A    
O4    Zn2   S    
C8    N1    A    
C7    O9    S    
C3    C15   S    
O2    Zn2   S    
C22   H13   S    
C27   C28   A    
C13   H18   S    
C14   H19   S    
C1    O2    A    
O5    Zn1   S    
C16   C17   S    
C9    H15   S    
C12   C23   A    
C8    C14   S    
C4    O3    A    
C25   C26   A    
C5    C27   A    
C22   H10   S    
C12   C21   A    
C16   O8    A    
C29   H7    S    
C9    N1    A    
C12   C26   A    
C17   C25   A    
O8    Zn2   S    
C6    H12   S    
