data_mof_unit_20566.cif
_audit_creation_date              2012-12-10T20:42:39-0500
_audit_creation_method            fapswitch 2.2
_symmetry_space_group_name_H-M    P1
_symmetry_Int_Tables_number       1
_space_group_crystal_system       triclinic
_cell_length_a                    8.917233
_cell_length_b                    10.727529
_cell_length_c                    9.980014
_cell_angle_alpha                 87.43441
_cell_angle_beta                  90.401418
_cell_angle_gamma                 92.174668
_cell_volume                      953.029596973

loop_
_atom_site_label
_atom_site_type_symbol
_atom_type_description
_atom_site_fract_x
_atom_site_fract_y
_atom_site_fract_z
_atom_type_partial_charge
C1    C     C_R   0.489957 0.260038 0.502785 0.844539
C2    C     C_R   0.416828 0.935471 0.399566 -0.252530
C3    C     C_R   0.516241 0.872535 0.486162 -0.061303
C4    C     C_R   0.608710 0.939265 0.573106 0.028389
C5    C     C_3   0.637093 0.913908 0.719510 -0.604774
C6    C     C_3   0.584748 0.043908 0.738712 0.351937
C7    C     C_R   0.401077 0.425066 0.073999 0.118951
C8    C     C_R   0.595628 0.575564 0.070492 -0.108889
C9    C     C_R   0.600629 0.573092 0.927998 0.195957
C10   C     C_R   0.395632 0.430152 0.931570 0.093765
C11   C     C_3   0.380493 0.292300 0.929200 -0.126808
C12   C     C_R   0.219049 0.499628 0.499747 0.916006
C13   C     C_3   0.400673 0.285697 0.081051 0.256218
C14   C     C_R   0.506243 0.739716 0.496650 0.856912
C15   C     C_R   0.780935 0.500200 0.500333 0.925765
C16   C     C_1   0.065440 0.499729 0.499754 -0.208001
C17   C     C_1   0.934530 0.499944 0.500588 -0.203361
C18   C     C_R   0.581880 0.063442 0.589451 0.006862
C19   C     C_R   0.480651 0.126578 0.508379 -0.070152
C20   C     C_R   0.399531 0.062889 0.410627 -0.220472
H1    H     H_    0.321970 0.111339 0.344740 0.143458
H2    H     H_    0.476139 0.256828 0.874364 0.210522
H3    H     H_    0.305670 0.243098 0.140998 0.071509
H4    H     H_    0.346567 0.885228 0.329474 0.158921
H5    H     H_    0.566511 0.839623 0.769473 0.233598
H6    H     H_    0.759074 0.905570 0.740236 0.163148
H7    H     H_    0.672261 0.105128 0.784792 0.079179
H8    H     H_    0.675042 0.634236 0.123923 0.142027
N1    N     N_R   0.499010 0.499140 0.142800 -0.098514
N2    N     N_R   0.499010 0.499180 0.857150 -0.130782
O1    O     O_R   0.500020 0.316790 0.614690 -0.627289
O2    O     O_R   0.500000 0.316760 0.385350 -0.563464
O3    O     O_R   0.285350 0.500020 0.614650 -0.610166
O4    O     O_R   0.285340 0.499980 0.385310 -0.624191
O5    O     O_R   0.500000 0.683240 0.614650 -0.645649
O6    O     O_R   0.499980 0.683210 0.385310 -0.626883
O7    O     O_R   0.714660 0.500020 0.614690 -0.626730
O8    O     O_R   0.714650 0.499980 0.385350 -0.600896
Zn1   Zn    Zn3+2 0.500010 0.500020 0.653130 0.925383
Zn2   Zn    Zn3+2 0.499990 0.499980 0.346870 0.971218
O9    O     O_3   0.544605 0.247023 0.123061 -0.576222
C21   C     C_3   0.558068 0.117515 0.110454 0.132465
H9    H     H_    0.578091 0.097634 0.005090 0.180181
H10   H     H_    0.456633 0.062529 0.145428 0.137929
C22   C     C_3   0.694955 0.074632 0.189261 -0.805902
H11   H     H_    0.701276 0.971550 0.186918 0.203834
H12   H     H_    0.798578 0.118696 0.144068 0.239302
H13   H     H_    0.688600 0.101485 0.294960 0.272734
O10   O     O_3   0.441927 0.052366 0.801864 -0.651013
C23   C     C_3   0.325446 0.963843 0.770299 0.143839
H14   H     H_    0.347342 0.904569 0.686117 0.166895
H15   H     H_    0.224563 0.015282 0.739069 0.135593
C24   C     C_3   0.285698 0.880976 0.894278 -0.901079
H16   H     H_    0.251636 0.938506 0.977734 0.239462
H17   H     H_    0.191229 0.815070 0.870385 0.221648
H18   H     H_    0.383086 0.826288 0.928286 0.250991
C25   C     C_3   0.730473 0.644860 0.862365 -0.409082
C26   C     C_3   0.873889 0.573230 0.878646 -0.853281
H19   H     H_    0.856334 0.478858 0.838908 0.287298
H20   H     H_    0.966205 0.623732 0.822205 0.244014
H21   H     H_    0.906898 0.563825 0.986066 0.255395
H22   H     H_    0.710680 0.666050 0.755620 0.267425
H23   H     H_    0.748009 0.735863 0.910249 0.171534
C27   C     C_3   0.225309 0.243559 0.879842 -0.364931
C28   C     C_3   0.092543 0.320148 0.918329 -0.927022
H24   H     H_    0.084951 0.326077 0.028799 0.257223
H25   H     H_    0.105206 0.415250 0.870816 0.284137
H26   H     H_    0.986833 0.275315 0.881247 0.252674
H27   H     H_    0.227795 0.240895 0.768702 0.239155
H28   H     H_    0.204595 0.147360 0.922036 0.221394

loop_
_geom_bond_atom_site_label_1
_geom_bond_atom_site_label_2
_ccdc_geom_bond_type
C7    C10   A    
O5    Zn1   S    
C15   O8    A    
C7    N1    A    
C27   H28   S    
C27   H27   S    
O9    C21   S    
C10   N2    A    
C11   H2    S    
C23   H15   S    
C19   C20   A    
C28   H25   S    
C6    H7    S    
C7    C13   S    
C28   H26   S    
C4    C18   A    
C27   C28   S    
C26   H21   S    
C13   O9    S    
C2    C3    A    
C12   O3    A    
C25   H22   S    
O7    Zn1   S    
C22   H11   S    
C12   O4    A    
O8    Zn2   S    
C11   C13   S    
C25   C26   S    
O3    Zn1   S    
C3    C14   S    
C21   H10   S    
C9    N2    A    
O4    Zn2   S    
C8    N1    A    
N1    Zn2   S    
O1    Zn1   S    
N2    Zn1   S    
C25   H23   S    
C9    C25   S    
O2    Zn2   S    
C6    O10   S    
C2    H4    S    
C5    C6    S    
C8    H8    S    
C6    C18   S    
C5    H5    S    
C1    C19   S    
C23   C24   S    
C16   C17   T    
C21   H9    S    
C24   H17   S    
C26   H20   S    
C5    H6    S    
C1    O1    A    
O6    Zn2   S    
C22   H12   S    
C20   H1    S    
C13   H3    S    
C15   C17   S    
C28   H24   S    
C10   C11   S    
C24   H18   S    
C14   O5    A    
O10   C23   S    
C18   C19   A    
C4    C5    S    
C14   O6    A    
C22   H13   S    
C23   H14   S    
C26   H19   S    
C24   H16   S    
C2    C20   A    
C1    O2    A    
C15   O7    A    
C3    C4    A    
C12   C16   S    
C8    C9    A    
C11   C27   S    
C21   C22   S    
