data_mof_unit_5499.cif
_audit_creation_date              2012-12-10T19:09:32-0500
_audit_creation_method            fapswitch 2.2
_symmetry_space_group_name_H-M    P1
_symmetry_Int_Tables_number       1
_space_group_crystal_system       triclinic
_cell_length_a                    15.206267
_cell_length_b                    15.600664
_cell_length_c                    9.982493
_cell_angle_alpha                 89.789263
_cell_angle_beta                  90.544332
_cell_angle_gamma                 89.83067
_cell_volume                      2367.99199817

loop_
_atom_site_label
_atom_site_type_symbol
_atom_type_description
_atom_site_fract_x
_atom_site_fract_y
_atom_site_fract_z
_atom_type_partial_charge
C1    C     C_R   0.119263 0.378461 0.501743 0.883686
C2    C     C_R   0.874301 0.616346 0.499195 0.828215
C3    C     C_R   0.376467 0.881054 0.499806 0.820955
C4    C     C_R   0.378405 0.120928 0.498645 0.841888
C5    C     C_3   0.852698 0.219451 0.519454 -0.171867
C6    C     C_3   0.762327 0.307578 0.361319 -0.148752
C7    C     C_3   0.773046 0.708067 0.350623 -0.126716
C8    C     C_3   0.844002 0.766652 0.559888 -0.135191
C9    C     C_3   0.280548 0.787907 0.647870 -0.121424
C10   C     C_3   0.346694 0.728326 0.439102 -0.139222
C11   C     C_3   0.350536 0.280482 0.475867 -0.153283
C12   C     C_R   0.121910 0.619100 0.500713 0.878010
C13   C     C_3   0.265030 0.192145 0.639068 -0.125580
C14   C     C_3   0.207615 0.719043 0.647976 -0.136433
C15   C     C_3   0.278483 0.653265 0.446236 -0.161364
C16   C     C_3   0.276448 0.350121 0.462685 -0.131133
C17   C     C_3   0.201864 0.270641 0.649406 -0.153093
C18   C     C_3   0.779907 0.148355 0.523324 -0.152565
C19   C     C_3   0.691413 0.235552 0.356737 -0.112859
C20   C     C_3   0.695792 0.773371 0.353494 -0.125790
C21   C     C_3   0.778909 0.843736 0.542720 -0.180103
C22   C     C_3   0.737380 0.324396 0.621123 0.247585
C23   C     C_R   0.620504 0.879379 0.500138 0.875213
C24   C     C_3   0.716608 0.655084 0.579926 0.221582
C25   C     C_3   0.218702 0.840360 0.418703 0.215299
C26   C     C_3   0.233153 0.174988 0.384053 0.197016
C27   C     C_3   0.808687 0.310715 0.504186 0.048577
C28   C     C_3   0.802299 0.682665 0.498293 0.059429
C29   C     C_3   0.305994 0.813007 0.499569 0.053704
C30   C     C_3   0.308236 0.189347 0.495786 0.076222
C31   C     C_3   0.189223 0.687505 0.502217 0.049150
C32   C     C_3   0.186579 0.310231 0.505961 0.053885
C33   C     C_3   0.687259 0.189426 0.496588 0.051999
C34   C     C_R   0.619836 0.121100 0.499170 0.890317
C35   C     C_3   0.686421 0.809436 0.499052 0.035026
C36   C     C_3   0.154210 0.763214 0.416693 -0.388353
C37   C     C_3   0.156536 0.236962 0.412399 -0.405261
C38   C     C_3   0.663265 0.256884 0.603310 -0.453509
C39   C     C_3   0.657187 0.735994 0.594715 -0.387033
C40   C     C_3   0.003441 0.409424 0.080272 0.680551
C41   C     C_3   0.025684 0.413628 0.922780 0.643790
C42   C     C_3   0.063289 0.564088 0.919866 0.552455
C43   C     C_3   0.073574 0.552525 0.081066 0.643723
C44   C     C_3   0.571155 0.943660 0.080935 0.614573
C45   C     C_3   0.915316 0.537854 0.083799 0.656339
C46   C     C_3   0.577185 0.952573 0.919962 0.588062
C47   C     C_3   0.501681 0.090519 0.918690 0.610182
C48   C     C_3   0.514161 0.089062 0.080929 0.623441
C49   C     C_3   0.909754 0.523750 0.921546 0.558134
C50   C     C_3   0.412984 0.967863 0.077844 0.594321
C51   C     C_3   0.417655 0.958807 0.915381 0.649455
C52   C     C_R   0.878277 0.379312 0.500877 0.870541
H1    H     H_    0.890364 0.208170 0.425640 0.129482
H2    H     H_    0.304533 0.605673 0.520333 0.125402
H3    H     H_    0.292837 0.401670 0.535910 0.118110
H4    H     H_    0.236691 0.320065 0.710217 0.147833
H5    H     H_    0.793142 0.104338 0.437997 0.133007
H6    H     H_    0.714099 0.187176 0.282643 0.184367
H7    H     H_    0.715739 0.826921 0.286288 0.187083
H8    H     H_    0.803602 0.883777 0.458355 0.137945
H9    H     H_    0.086916 0.781717 0.448188 0.136325
H10   H     H_    0.143533 0.740891 0.312592 0.205310
H11   H     H_    0.129186 0.262034 0.317089 0.221506
H12   H     H_    0.813458 0.286870 0.288712 0.177919
H13   H     H_    0.100239 0.202399 0.457327 0.151965
H14   H     H_    0.649145 0.225372 0.699461 0.223084
H15   H     H_    0.598381 0.285816 0.578763 0.146289
H16   H     H_    0.586479 0.719877 0.582477 0.142432
H17   H     H_    0.661430 0.759859 0.698862 0.194154
H18   H     H_    0.957616 0.158998 0.605820 0.157011
H19   H     H_    0.892241 0.201269 0.719693 0.197426
H20   H     H_    0.719631 0.386475 0.207614 0.214376
H21   H     H_    0.677573 0.415311 0.354945 0.159773
H22   H     H_    0.752063 0.661121 0.162243 0.187780
H23   H     H_    0.830117 0.742883 0.306856 0.168289
H24   H     H_    0.699648 0.603025 0.276156 0.165492
H25   H     H_    0.920726 0.801608 0.723564 0.172391
H26   H     H_    0.824752 0.754596 0.766885 0.231333
H27   H     H_    0.259876 0.837687 0.833922 0.188398
H28   H     H_    0.199391 0.888212 0.718904 0.166219
H29   H     H_    0.426307 0.688938 0.284431 0.160594
H30   H     H_    0.338154 0.744556 0.231063 0.229982
H31   H     H_    0.445622 0.345314 0.376995 0.149184
H32   H     H_    0.389232 0.281911 0.275090 0.231758
H33   H     H_    0.212973 0.108349 0.778674 0.211090
H34   H     H_    0.903310 0.782514 0.499615 0.110776
H35   H     H_    0.167605 0.097320 0.624653 0.192381
H36   H     H_    0.139348 0.760157 0.815802 0.209532
H37   H     H_    0.095414 0.797914 0.669479 0.172139
H38   H     H_    0.327595 0.580049 0.291624 0.165819
H39   H     H_    0.243801 0.645991 0.244959 0.196877
H40   H     H_    0.328035 0.426678 0.312536 0.171521
H41   H     H_    0.259901 0.349447 0.253920 0.235536
H42   H     H_    0.136702 0.232746 0.818884 0.202183
H43   H     H_    0.085938 0.202374 0.676437 0.183464
H44   H     H_    0.843598 0.066205 0.655331 0.181014
H45   H     H_    0.340116 0.757148 0.693575 0.167584
H46   H     H_    0.765719 0.127381 0.729296 0.225713
H47   H     H_    0.608895 0.284820 0.210346 0.195109
H48   H     H_    0.584277 0.316784 0.366633 0.167902
H49   H     H_    0.614514 0.705436 0.213281 0.170584
H50   H     H_    0.567835 0.716474 0.368991 0.185877
H51   H     H_    0.840026 0.921350 0.681317 0.181217
H52   H     H_    0.751320 0.870620 0.742432 0.212714
H53   H     H_    0.763968 0.255482 0.804671 0.160432
H54   H     H_    0.840205 0.326225 0.765624 0.316822
H55   H     H_    0.680161 0.431034 0.708596 0.193500
H56   H     H_    0.402867 0.709517 0.505849 0.103572
H57   H     H_    0.642025 0.413747 0.557099 0.160423
H58   H     H_    0.711913 0.542698 0.469528 0.197359
H59   H     H_    0.617847 0.602911 0.450866 0.167909
H60   H     H_    0.762367 0.561814 0.705656 0.252229
H61   H     H_    0.680992 0.618240 0.769799 0.154329
H62   H     H_    0.121594 0.904282 0.535420 0.167513
H63   H     H_    0.221083 0.954390 0.528506 0.202220
H64   H     H_    0.179151 0.871363 0.226409 0.162769
H65   H     H_    0.268393 0.920401 0.278419 0.236354
H66   H     H_    0.312481 0.151886 0.222567 0.315362
H67   H     H_    0.387441 0.294967 0.570258 0.117816
H68   H     H_    0.212933 0.183585 0.178227 0.181613
H69   H     H_    0.249510 0.047274 0.351654 0.202071
H70   H     H_    0.147307 0.080998 0.319681 0.182770
H71   H     H_    0.930903 0.304135 0.090754 0.333440
H72   H     H_    0.001524 0.292569 0.893323 0.321732
H73   H     H_    0.015268 0.650801 0.798149 0.429432
H74   H     H_    0.122111 0.668393 0.100073 0.304797
H75   H     H_    0.606911 0.824337 0.091209 0.340813
H76   H     H_    0.641653 0.846551 0.884902 0.316991
H77   H     H_    0.430599 0.196673 0.895991 0.302209
H78   H     H_    0.317934 0.204536 0.714212 0.194363
H79   H     H_    0.472630 0.205300 0.114902 0.316038
H80   H     H_    0.125942 0.370997 0.132096 0.398169
H81   H     H_    0.137298 0.408452 0.822422 0.413085
H82   H     H_    0.182877 0.603406 0.888844 0.313861
H83   H     H_    0.203485 0.548535 0.088257 0.321156
H84   H     H_    0.649432 0.991621 0.221930 0.387521
H85   H     H_    0.659784 0.998460 0.789583 0.403216
H86   H     H_    0.572976 0.194380 0.898288 0.296316
H87   H     H_    0.643724 0.106555 0.055658 0.376135
H88   H     H_    0.789103 0.519153 0.103814 0.296828
H89   H     H_    0.234490 0.663602 0.705348 0.158973
H90   H     H_    0.788913 0.479473 0.894747 0.309763
H91   H     H_    0.825771 0.618179 0.914347 0.302650
H92   H     H_    0.929314 0.665163 0.054414 0.376209
H93   H     H_    0.339972 0.865446 0.087049 0.294312
H94   H     H_    0.444635 0.833398 0.936866 0.366733
H95   H     H_    0.290317 0.974513 0.892027 0.300893
H96   H     H_    0.287295 0.998524 0.100013 0.287722
N1    N     N_3   0.998760 0.500000 0.138610 -0.157272
N2    N     N_3   0.385694 0.741074 0.306344 -0.347092
N3    N     N_3   0.416739 0.284785 0.370498 -0.423677
N4    N     N_3   0.226169 0.109091 0.676122 -0.399989
N5    N     N_3   0.126641 0.746080 0.715274 -0.421477
N6    N     N_3   0.267297 0.605866 0.320716 -0.404037
N7    N     N_3   0.270288 0.392817 0.331236 -0.395076
N8    N     N_3   0.120568 0.251758 0.721122 -0.393989
N9    N     N_3   0.781309 0.093559 0.643204 -0.438828
N10   N     N_3   0.604735 0.264877 0.310165 -0.374586
N11   N     N_3   0.610864 0.742301 0.299869 -0.387547
N12   N     N_3   0.998760 0.500000 0.861390 -0.168445
N13   N     N_3   0.776192 0.901287 0.658463 -0.440975
N14   N     N_3   0.774019 0.314529 0.758618 -0.427526
N15   N     N_3   0.700032 0.411401 0.613403 -0.460497
N16   N     N_3   0.668207 0.584606 0.515692 -0.503969
N17   N     N_3   0.738586 0.624374 0.713873 -0.431238
N18   N     N_3   0.176016 0.916721 0.476022 -0.493043
N19   N     N_3   0.238022 0.861214 0.279508 -0.459637
N20   N     N_3   0.263560 0.194145 0.247988 -0.474611
N21   N     N_3   0.200117 0.087127 0.386967 -0.491798
N22   N     N_3   0.498760 1.000000 0.138610 -0.161970
N23   N     N_3   0.498760 1.000000 0.861390 -0.156597
N24   N     N_3   0.919359 0.213099 0.626289 -0.437248
N25   N     N_3   0.733705 0.391855 0.309978 -0.384485
N26   N     N_3   0.757477 0.636229 0.259518 -0.363680
N27   N     N_3   0.875841 0.753587 0.698133 -0.372721
N28   N     N_3   0.260652 0.860532 0.735274 -0.366482
O1    O     O_R   0.092530 0.407440 0.616040 -0.615324
O2    O     O_R   0.907330 0.407420 0.383960 -0.541978
O3    O     O_R   0.907330 0.592580 0.383960 -0.519867
O4    O     O_R   0.907330 0.592580 0.616040 -0.557766
O5    O     O_R   0.407330 0.907420 0.616040 -0.515617
O6    O     O_R   0.407330 0.907420 0.383960 -0.527797
O7    O     O_R   0.407330 0.092580 0.383960 -0.561626
O8    O     O_R   0.407330 0.092580 0.616040 -0.535882
O9    O     O_3   0.921890 0.367126 0.095727 -0.691313
O10   O     O_3   0.982389 0.347932 0.853355 -0.701224
O11   O     O_3   0.034573 0.648291 0.892717 -0.809803
O12   O     O_R   0.092530 0.407440 0.383960 -0.550591
O13   O     O_3   0.074599 0.634080 0.141470 -0.708479
O14   O     O_3   0.554278 0.858107 0.115514 -0.702895
O15   O     O_3   0.582964 0.870601 0.861990 -0.755100
O16   O     O_3   0.422719 0.134001 0.884701 -0.689891
O17   O     O_3   0.453877 0.146103 0.137530 -0.675451
O18   O     O_3   0.064267 0.358014 0.152307 -0.770337
O19   O     O_3   0.117045 0.398202 0.913166 -0.805800
O20   O     O_3   0.145727 0.554889 0.858735 -0.745513
O21   O     O_3   0.153696 0.511841 0.115076 -0.748536
O22   O     O_3   0.655241 0.963430 0.134605 -0.767045
O23   O     O_R   0.092530 0.592560 0.383960 -0.533309
O24   O     O_3   0.655453 0.996382 0.888177 -0.756643
O25   O     O_3   0.570670 0.136109 0.858609 -0.768466
O26   O     O_3   0.597776 0.119921 0.121532 -0.793778
O27   O     O_3   0.843967 0.497411 0.146064 -0.640547
O28   O     O_3   0.850073 0.457563 0.890684 -0.708403
O29   O     O_3   0.877868 0.599307 0.862765 -0.759387
O30   O     O_3   0.909460 0.624797 0.123678 -0.736307
O31   O     O_3   0.392828 0.887892 0.134218 -0.709418
O32   O     O_3   0.414709 0.872352 0.872889 -0.747807
O33   O     O_3   0.344549 0.999250 0.854645 -0.639268
O34   O     O_R   0.092530 0.592560 0.616040 -0.597867
O35   O     O_3   0.345586 0.025517 0.112708 -0.747491
O36   O     O_R   0.592530 0.907440 0.616040 -0.582796
O37   O     O_R   0.592530 0.907440 0.383960 -0.602299
O38   O     O_R   0.592530 0.092560 0.383960 -0.586213
O39   O     O_R   0.592530 0.092560 0.616040 -0.582927
O40   O     O_R   0.907330 0.407420 0.616040 -0.557572
Zn1   Zn    Zn3+2 0.999890 0.500000 0.654960 1.058452
Zn2   Zn    Zn3+2 0.999890 0.500000 0.345040 1.128682
Zn3   Zn    Zn3+2 0.499890 0.000000 0.654960 1.094184
Zn4   Zn    Zn3+2 0.499890 0.000000 0.345040 1.082045

loop_
_geom_bond_atom_site_label_1
_geom_bond_atom_site_label_2
_ccdc_geom_bond_type
C42   O11   S    
H69   N21   S    
H77   O16   S    
C44   O22   S    
O7    Zn4   S    
C48   O17   S    
C39   H16   S    
C10   H56   S    
N12   Zn1   S    
C46   O15   S    
C11   H67   S    
C8    N27   S    
H79   O17   S    
C25   N19   S    
C43   O13   S    
O6    Zn4   S    
C6    C19   S    
C26   N20   S    
C45   O30   S    
O34   Zn1   S    
C14   N5    S    
C5    H1    S    
H22   N26   S    
C49   O28   S    
C34   O39   A    
C31   C36   S    
H61   N17   S    
C22   N14   S    
H86   O25   S    
C23   O36   A    
H73   O11   S    
H29   N2    S    
C22   C38   S    
C7    N26   S    
C48   O26   S    
C18   C33   S    
C52   O40   A    
C24   C39   S    
C46   N23   S    
C47   O25   S    
C9    N28   S    
H43   N8    S    
C6    H12   S    
C47   O16   S    
C3    C29   S    
H18   N24   S    
C15   N6    S    
C44   O14   S    
C5    C27   S    
C20   C35   S    
C46   O24   S    
C5    N24   S    
O8    Zn3   S    
C38   H14   S    
C26   N21   S    
C20   N11   S    
C37   H13   S    
O5    Zn3   S    
C13   H78   S    
H46   N9    S    
C49   N12   S    
H38   N6    S    
C14   C31   S    
H92   O30   S    
C43   N1    S    
H42   N8    S    
C9    C29   S    
C50   O31   S    
H82   O20   S    
H44   N9    S    
C14   H89   S    
H25   N27   S    
H80   O18   S    
C47   N23   S    
O4    Zn1   S    
C24   N16   S    
O23   Zn2   S    
C2    O4    A    
C36   H10   S    
C37   H11   S    
O37   Zn4   S    
C44   C46   S    
H62   N18   S    
N22   Zn4   S    
C19   H6    S    
C25   C29   S    
H51   N13   S    
H75   O14   S    
C21   N13   S    
C47   C48   S    
C13   C30   S    
H41   N7    S    
O40   Zn1   S    
C11   C30   S    
C21   H8    S    
H94   O32   S    
C34   O38   A    
H88   O27   S    
O1    Zn1   S    
H52   N13   S    
H58   N16   S    
C51   O32   S    
C40   O18   S    
C5    C18   S    
C19   C33   S    
C32   C37   S    
C1    C32   S    
C4    C30   S    
C7    C28   S    
H63   N18   S    
C52   O2    A    
H90   O28   S    
H71   O9    S    
H74   O13   S    
C35   C39   S    
C9    C14   S    
C15   H2    S    
O39   Zn3   S    
C41   N12   S    
C11   C16   S    
C51   O33   S    
C18   H5    S    
H37   N5    S    
C6    C27   S    
H85   O24   S    
C45   C49   S    
H81   O19   S    
H70   N21   S    
C16   N7    S    
C50   C51   S    
C39   H17   S    
C43   O21   S    
H20   N25   S    
C4    O8    A    
C20   H7    S    
C42   O20   S    
C3    O5    A    
C17   H4    S    
H28   N28   S    
H30   N2    S    
H39   N6    S    
C48   N22   S    
C11   N3    S    
C40   C41   S    
O36   Zn3   S    
C49   O29   S    
C50   O35   S    
C26   C30   S    
C23   C35   S    
H35   N4    S    
C50   N22   S    
O3    Zn2   S    
H57   N15   S    
H26   N27   S    
C8    C28   S    
H96   O35   S    
C42   C43   S    
H31   N3    S    
C36   H9    S    
C45   N1    S    
H93   O31   S    
C27   C52   S    
H68   N20   S    
C23   O37   A    
C1    O12   A    
C9    H45   S    
H64   N19   S    
H19   N24   S    
C19   N10   S    
H84   O22   S    
H27   N28   S    
O2    Zn2   S    
C42   N12   S    
H59   N16   S    
C24   C28   S    
C13   N4    S    
H55   N15   S    
H87   O26   S    
C8    C21   S    
H50   N11   S    
H83   O21   S    
C7    H23   S    
C26   C37   S    
C15   C31   S    
C40   O9    S    
C6    N25   S    
O12   Zn2   S    
C25   N18   S    
C16   C32   S    
C22   C27   S    
C33   C38   S    
C13   C17   S    
C10   C15   S    
H76   O15   S    
H36   N5    S    
H66   N20   S    
C51   N23   S    
C21   C35   S    
H33   N4    S    
C12   O34   A    
C12   C31   S    
C18   N9    S    
O38   Zn4   S    
C10   N2    S    
H72   O10   S    
C22   N15   S    
C10   C29   S    
H91   O29   S    
H65   N19   S    
H60   N17   S    
H24   N26   S    
C45   O27   S    
C12   O23   A    
C33   C34   S    
C40   N1    S    
C24   N17   S    
H40   N7    S    
C8    H34   S    
N1    Zn2   S    
H54   N14   S    
C4    O7    A    
H21   N25   S    
C3    O6    A    
C44   N22   S    
C16   H3    S    
C25   C36   S    
H32   N3    S    
H48   N10   S    
C38   H15   S    
H49   N11   S    
C41   O19   S    
C7    C20   S    
C2    O3    A    
H47   N10   S    
C41   O10   S    
C17   C32   S    
H53   N14   S    
C2    C28   S    
H95   O33   S    
C17   N8    S    
C1    O1    A    
N23   Zn3   S    
