data_mof_unit_38960.cif
_audit_creation_date              2012-12-10T21:13:57-0500
_audit_creation_method            fapswitch 2.2
_symmetry_space_group_name_H-M    P1
_symmetry_Int_Tables_number       1
_space_group_crystal_system       triclinic
_cell_length_a                    15.47306
_cell_length_b                    16.840421
_cell_length_c                    17.51364
_cell_angle_alpha                 88.02302
_cell_angle_beta                  91.027469
_cell_angle_gamma                 66.359819
_cell_volume                      4175.60741886

loop_
_atom_site_label
_atom_site_type_symbol
_atom_type_description
_atom_site_fract_x
_atom_site_fract_y
_atom_site_fract_z
_atom_type_partial_charge
C1    C     C_R   0.498230 0.499597 0.646535 0.970191
C2    C     C_R   0.500873 0.500353 0.352845 0.958909
C3    C     C_R   0.107244 0.402269 0.479125 0.548258
C4    C     C_R   0.890833 0.603448 0.502368 0.525947
C5    C     C_R   0.071192 0.338702 0.481269 0.544082
C6    C     C_R   0.927905 0.666309 0.501538 0.552616
C7    C     C_R   0.573777 0.431804 0.152110 0.591073
C8    C     C_R   0.452749 0.571285 0.846533 0.611191
C9    C     C_R   0.559608 0.423265 0.230156 -0.106334
C10   C     C_R   0.435217 0.566056 0.768963 -0.119201
C11   C     C_R   0.507495 0.499795 0.269423 -0.270444
C12   C     C_R   0.501616 0.497708 0.729297 -0.278082
C13   C     C_R   0.462844 0.579357 0.228170 0.551696
C14   C     C_R   0.580041 0.433014 0.767728 0.571982
C15   C     C_R   0.476299 0.587188 0.150313 -0.069513
C16   C     C_R   0.594944 0.435797 0.846939 -0.066634
C17   C     C_R   0.533319 0.512594 0.113102 -0.148153
C18   C     C_R   0.531172 0.507486 0.884550 -0.153031
C19   C     C_1   0.539764 0.514227 0.032601 0.085706
C20   C     C_1   0.538996 0.512549 0.964834 0.070364
C21   C     C_R   0.544631 0.146988 0.554598 -0.290235
C22   C     C_R   0.452320 0.854975 0.449087 -0.285764
C23   C     C_R   0.676530 0.446393 0.494897 0.928980
C24   C     C_R   0.323320 0.554038 0.504011 0.912357
C25   C     C_R   0.552580 0.227513 0.552745 0.074508
C26   C     C_R   0.445886 0.773854 0.449003 0.070612
C27   C     C_R   0.444516 0.276234 0.446128 0.736550
C28   C     C_R   0.557050 0.722553 0.553360 0.760267
C29   C     C_R   0.441365 0.192228 0.442318 -0.062451
C30   C     C_R   0.561331 0.806132 0.557651 -0.055883
C31   C     C_R   0.492850 0.126899 0.498710 0.014792
C32   C     C_R   0.506646 0.873336 0.503894 0.017452
C33   C     C_1   0.497190 0.037440 0.500404 -0.005927
C34   C     C_1   0.502774 0.962625 0.502920 -0.006023
C35   C     C_R   0.778313 0.413674 0.482076 -0.247215
C36   C     C_R   0.220822 0.588398 0.512709 -0.261055
C37   C     C_R   0.935983 0.299984 0.491544 -0.191721
C38   C     C_R   0.064558 0.703453 0.497993 -0.197747
C39   C     C_R   0.838517 0.325994 0.495208 0.546092
C40   C     C_R   0.162381 0.676493 0.498850 0.542926
C41   C     C_R   0.817488 0.472758 0.458089 0.133323
C42   C     C_R   0.179780 0.529844 0.532236 0.142800
C43   C     C_R   0.912737 0.451760 0.478198 0.023598
C44   C     C_R   0.085610 0.552096 0.507338 0.042674
C45   C     C_R   0.973943 0.362758 0.484952 -0.187780
C46   C     C_R   0.025427 0.641350 0.500830 -0.195496
C47   C     C_R   0.949404 0.515538 0.489762 -0.220407
C48   C     C_R   0.048545 0.489417 0.493065 -0.211636
H1    H     H_    0.581527 0.097946 0.598915 0.164188
H2    H     H_    0.413793 0.905337 0.406285 0.163137
H3    H     H_    0.981451 0.231533 0.497661 0.215340
H4    H     H_    0.019990 0.772135 0.492109 0.218973
N1    N     N_R   0.499980 0.292780 0.499970 -0.167166
N2    N     N_R   0.500020 0.707220 0.500030 -0.169085
O1    O     O_R   0.500000 0.433430 0.610870 -0.637767
O2    O     O_R   0.500000 0.566570 0.389130 -0.626137
O3    O     O_R   0.500010 0.566520 0.610900 -0.568461
O4    O     O_R   0.499990 0.433480 0.389100 -0.580194
O5    O     O_R   0.632240 0.395450 0.499980 -0.596927
O6    O     O_R   0.367760 0.604550 0.500020 -0.596475
O7    O     O_R   0.632250 0.528530 0.500000 -0.562102
O8    O     O_R   0.367750 0.471470 0.500000 -0.560596
Zn1   Zn    Zn3+2 0.500000 0.411140 0.499980 0.993441
Zn2   Zn    Zn3+2 0.500000 0.588860 0.500020 1.005994
F1    F     F_    0.130861 0.254224 0.475661 -0.659382
F2    F     F_    0.868671 0.751108 0.505974 -0.657615
C49   C     C_3   0.620023 0.238595 0.610754 -0.290111
C50   C     C_3   0.719580 0.165097 0.609778 -0.358583
C51   C     C_3   0.789344 0.181552 0.662942 -0.708629
H5    H     H_    0.788101 0.247259 0.651572 0.312704
H6    H     H_    0.771643 0.175103 0.723227 0.234234
H7    H     H_    0.861848 0.132671 0.654353 0.241177
H8    H     H_    0.718451 0.102098 0.629057 0.198044
H9    H     H_    0.745309 0.158209 0.550611 0.282689
H10   H     H_    0.627249 0.299879 0.599085 0.303301
H11   H     H_    0.591309 0.240148 0.668670 0.197848
C52   C     C_3   0.382721 0.761753 0.388167 -0.270648
C53   C     C_3   0.282772 0.834677 0.382458 -0.370544
C54   C     C_3   0.218692 0.812793 0.327313 -0.697200
H12   H     H_    0.245761 0.808004 0.268572 0.262606
H13   H     H_    0.215055 0.750310 0.345072 0.295859
H14   H     H_    0.146342 0.864799 0.326551 0.233005
H15   H     H_    0.251760 0.845692 0.439778 0.288332
H16   H     H_    0.284913 0.896431 0.360529 0.197676
H17   H     H_    0.416794 0.760010 0.332682 0.220504
H18   H     H_    0.375035 0.700518 0.399434 0.299639
F3    F     F_    0.392104 0.342272 0.396685 -0.652362
F4    F     F_    0.609749 0.655769 0.602015 -0.650545
C55   C     C_3   0.384800 0.168586 0.381569 -0.382173
C56   C     C_3   0.336925 0.235993 0.316088 -0.228853
C57   C     C_3   0.290034 0.200057 0.257026 -0.910566
H19   H     H_    0.343487 0.142111 0.231391 0.258966
H20   H     H_    0.235666 0.181965 0.284054 0.283408
H21   H     H_    0.255300 0.250260 0.210753 0.262301
H22   H     H_    0.281199 0.294585 0.338793 0.318186
H23   H     H_    0.390235 0.253968 0.286997 0.233471
H24   H     H_    0.433677 0.108396 0.355473 0.190332
H25   H     H_    0.329810 0.153089 0.410713 0.252017
C58   C     C_3   0.622339 0.827539 0.616101 -0.384113
C59   C     C_3   0.679890 0.755923 0.675759 -0.224860
C60   C     C_3   0.735486 0.788035 0.730503 -0.916945
H26   H     H_    0.785502 0.807923 0.698559 0.284323
H27   H     H_    0.686769 0.844021 0.761608 0.261595
H28   H     H_    0.776474 0.735074 0.772912 0.260230
H29   H     H_    0.631766 0.735493 0.709810 0.246289
H30   H     H_    0.731259 0.699464 0.646904 0.312190
H31   H     H_    0.672207 0.847796 0.584184 0.249612
H32   H     H_    0.575204 0.884337 0.647364 0.190870
C61   C     C_3   0.227462 0.459253 0.595544 -0.333383
C62   C     C_3   0.161016 0.461041 0.660379 -0.408379
C63   C     C_3   0.213142 0.394406 0.724656 -0.858794
H33   H     H_    0.240653 0.327910 0.702853 0.272995
H34   H     H_    0.272940 0.407208 0.748738 0.252830
H35   H     H_    0.163853 0.398081 0.771020 0.258727
H36   H     H_    0.130973 0.526755 0.683777 0.234132
H37   H     H_    0.101770 0.445843 0.638915 0.235652
H38   H     H_    0.258853 0.393572 0.573039 0.270622
H39   H     H_    0.287338 0.469861 0.622535 0.177965
C64   C     C_3   0.767143 0.544976 0.396821 -0.299456
C65   C     C_3   0.740380 0.509632 0.324707 -0.427716
C66   C     C_3   0.695333 0.581264 0.262652 -0.854176
H40   H     H_    0.629365 0.631976 0.283110 0.264797
H41   H     H_    0.744918 0.611285 0.246494 0.263750
H42   H     H_    0.677708 0.553350 0.211153 0.249856
H43   H     H_    0.804331 0.458072 0.302252 0.233783
H44   H     H_    0.689098 0.481346 0.338679 0.203390
H45   H     H_    0.703556 0.596923 0.418786 0.264910
H46   H     H_    0.814428 0.576518 0.378143 0.204761
F5    F     F_    0.199296 0.736646 0.491255 -0.690839
F6    F     F_    0.803404 0.265354 0.508049 -0.704068
F7    F     F_    0.197790 0.379195 0.458316 -0.649261
F8    F     F_    0.798264 0.629023 0.517942 -0.659233
F9    F     F_    0.625591 0.360711 0.112908 -0.691691
F10   F     F_    0.392752 0.638656 0.885756 -0.693037
C67   C     C_3   0.595737 0.331866 0.266745 -0.316814
C68   C     C_3   0.688684 0.307642 0.312611 -0.350498
C69   C     C_3   0.724208 0.214941 0.346610 -0.781187
H47   H     H_    0.673328 0.209004 0.388057 0.256805
H48   H     H_    0.733697 0.168483 0.300769 0.246509
H49   H     H_    0.793381 0.197856 0.376870 0.284408
H50   H     H_    0.742933 0.313574 0.274787 0.233350
H51   H     H_    0.678715 0.351766 0.359971 0.227678
H52   H     H_    0.541125 0.323163 0.301930 0.230001
H53   H     H_    0.607862 0.283607 0.222056 0.240435
C70   C     C_3   0.345204 0.633445 0.731038 -0.311418
C71   C     C_3   0.257980 0.620943 0.759347 -0.359313
C72   C     C_3   0.167330 0.687919 0.721423 -0.847705
H54   H     H_    0.159374 0.754572 0.734298 0.276828
H55   H     H_    0.168308 0.681378 0.658662 0.268291
H56   H     H_    0.105674 0.677457 0.743408 0.247647
H57   H     H_    0.264053 0.555021 0.746048 0.213755
H58   H     H_    0.253050 0.626921 0.822210 0.278196
H59   H     H_    0.339973 0.699397 0.743866 0.239538
H60   H     H_    0.344594 0.630257 0.667979 0.195364
F11   F     F_    0.400439 0.648643 0.262850 -0.720116
F12   F     F_    0.643391 0.371416 0.725874 -0.722761
C73   C     C_3   0.428389 0.675471 0.109009 -0.302295
C74   C     C_3   0.479733 0.733857 0.128312 -0.353905
C75   C     C_3   0.431564 0.823355 0.088236 -0.857180
H61   H     H_    0.431420 0.817661 0.025232 0.275606
H62   H     H_    0.357715 0.855795 0.106755 0.263823
H63   H     H_    0.470335 0.863996 0.103194 0.249637
H64   H     H_    0.480703 0.741814 0.191017 0.246119
H65   H     H_    0.553954 0.703349 0.110032 0.223958
H66   H     H_    0.426161 0.670251 0.046084 0.231265
H67   H     H_    0.353611 0.706219 0.125920 0.232789
C76   C     C_3   0.676670 0.366788 0.893978 -0.336845
C77   C     C_3   0.738408 0.284661 0.853810 -0.297352
C78   C     C_3   0.809973 0.218363 0.909879 -0.899325
H68   H     H_    0.856762 0.246313 0.936182 0.273524
H69   H     H_    0.773205 0.198130 0.955609 0.281039
H70   H     H_    0.854134 0.160118 0.879028 0.253107
H71   H     H_    0.692938 0.254539 0.828787 0.248615
H72   H     H_    0.778339 0.301312 0.808382 0.272653
H73   H     H_    0.722678 0.397699 0.916651 0.205965
H74   H     H_    0.646128 0.345546 0.943678 0.239021

loop_
_geom_bond_atom_site_label_1
_geom_bond_atom_site_label_2
_ccdc_geom_bond_type
C38   C40   A    
C40   F5    S    
C60   H26   S    
C27   C29   A    
N1    Zn1   S    
C78   H69   S    
C78   H68   S    
C36   C42   A    
C19   C20   T    
C25   C49   S    
C29   C55   S    
C70   C71   S    
C77   H72   S    
C61   H38   S    
C67   C68   S    
C4    F8    S    
C52   C53   S    
C23   O5    A    
C58   H32   S    
C21   C31   A    
C59   H29   S    
C24   C36   S    
C22   C32   A    
C3    F7    S    
C72   H55   S    
C42   C61   S    
C25   N1    A    
C7    F9    S    
C75   H61   S    
C37   H3    S    
C65   H44   S    
C38   H4    S    
C16   C76   S    
C50   H9    S    
C3    C48   A    
C7    C9    A    
C51   H6    S    
C62   C63   S    
C13   F11   S    
C66   H42   S    
C68   H51   S    
C53   H15   S    
C73   C74   S    
C72   H54   S    
C50   C51   S    
C7    C17   A    
O1    Zn1   S    
C28   F4    S    
O2    Zn2   S    
C69   H48   S    
C15   C73   S    
C74   H65   S    
C22   H2    S    
C70   H59   S    
C64   H46   S    
C67   H52   S    
C52   H17   S    
C60   H27   S    
C27   N1    A    
C29   C31   A    
C41   C43   A    
C1    C12   S    
C42   C44   A    
C2    C11   S    
C26   N2    A    
C21   H1    S    
C44   C46   A    
C61   H39   S    
C77   H71   S    
C69   H49   S    
C26   C52   S    
C38   C46   A    
C8    F10   S    
C49   C50   S    
C56   H22   S    
C72   H56   S    
C5    F1    S    
C73   H66   S    
C76   C77   S    
C54   H13   S    
C28   N2    A    
C65   H43   S    
C50   H8    S    
C5    C45   A    
C30   C58   S    
C8    C18   A    
C54   H12   S    
C55   H24   S    
C32   C34   S    
O7    Zn2   S    
C35   C39   A    
C68   H50   S    
C1    O3    A    
C57   H20   S    
C9    C11   A    
C47   C48   A    
C36   C40   A    
C24   O6    A    
O8    Zn1   S    
C31   C33   S    
C33   C34   T    
C75   H63   S    
C63   H34   S    
C16   C18   A    
C41   C64   S    
C27   F3    S    
C43   C45   A    
C66   H40   S    
C10   C12   A    
C74   H64   S    
C71   H58   S    
C70   H60   S    
C9    C67   S    
C4    C6    A    
C77   C78   S    
C12   C14   A    
C52   H18   S    
C60   H28   S    
C23   C35   S    
C13   C15   A    
C74   C75   S    
C78   H70   S    
C14   C16   A    
C49   H10   S    
C37   C45   A    
C62   H37   S    
C57   H19   S    
C51   H7    S    
C65   C66   S    
O3    Zn2   S    
C76   H73   S    
C71   C72   S    
C23   O7    A    
O4    Zn1   S    
C15   C17   A    
C21   C25   A    
C67   H53   S    
C24   O8    A    
C6    C46   A    
C63   H33   S    
C14   F12   S    
C53   C54   S    
O5    Zn1   S    
C68   C69   S    
C3    C5    A    
C73   H67   S    
C54   H14   S    
C64   C65   S    
C2    O4    A    
C56   H23   S    
C39   F6    S    
C58   H31   S    
C69   H47   S    
C59   H30   S    
C58   C59   S    
C55   H25   S    
O6    Zn2   S    
C28   C30   A    
C75   H62   S    
C1    O1    A    
C37   C39   A    
C2    O2    A    
C61   C62   S    
C57   H21   S    
C30   C32   A    
C11   C13   A    
C56   C57   S    
N2    Zn2   S    
C59   C60   S    
C17   C19   S    
C63   H35   S    
C18   C20   S    
C51   H5    S    
C35   C41   A    
C66   H41   S    
C10   C70   S    
C71   H57   S    
C53   H16   S    
C6    F2    S    
C8    C10   A    
C22   C26   A    
C49   H11   S    
C55   C56   S    
C43   C47   A    
C62   H36   S    
C44   C48   A    
C76   H74   S    
C4    C47   A    
C64   H45   S    
