data_mof_unit_64485.cif
_audit_creation_date              2012-12-11T16:16:29-0500
_audit_creation_method            fapswitch 2.2
_symmetry_space_group_name_H-M    P1
_symmetry_Int_Tables_number       1
_space_group_crystal_system       triclinic
_cell_length_a                    7.194182
_cell_length_b                    25.782558
_cell_length_c                    28.95399
_cell_angle_alpha                 89.999851
_cell_angle_beta                  90.001646
_cell_angle_gamma                 90.000545
_cell_volume                      5370.51388525

loop_
_atom_site_label
_atom_site_type_symbol
_atom_type_description
_atom_site_fract_x
_atom_site_fract_y
_atom_site_fract_z
_atom_type_partial_charge
O1    O     O_R   0.600980 0.796780 0.202430 -0.505704
O2    O     O_R   0.399020 0.203220 0.797570 -0.512634
O3    O     O_R   0.399020 0.203220 0.702430 -0.505704
O4    O     O_R   0.600980 0.796780 0.297570 -0.512632
O5    O     O_R   0.100980 0.703220 0.297570 -0.505709
O6    O     O_R   0.899020 0.296780 0.702430 -0.512625
O7    O     O_R   0.899020 0.296780 0.797570 -0.505710
O8    O     O_R   0.100980 0.703220 0.202430 -0.512640
O9    O     O_R   0.271240 0.802920 0.297240 -0.534625
O10   O     O_R   0.728760 0.197080 0.702760 -0.529925
O11   O     O_R   0.728760 0.197080 0.797240 -0.534634
O12   O     O_R   0.271240 0.802920 0.202760 -0.529934
O13   O     O_R   0.771240 0.697080 0.202760 -0.534597
O14   O     O_R   0.228760 0.302920 0.797240 -0.529937
O15   O     O_R   0.228760 0.302920 0.702760 -0.534592
O16   O     O_R   0.771240 0.697080 0.297240 -0.529922
C1    C     C_R   0.439493 0.815623 0.312626 0.807045
C2    C     C_R   0.560907 0.184320 0.687267 0.809494
C3    C     C_R   0.560509 0.184377 0.812627 0.807042
C4    C     C_R   0.439090 0.815680 0.187266 0.809485
C5    C     C_R   0.939489 0.684377 0.187373 0.807040
C6    C     C_R   0.060910 0.315680 0.812733 0.809439
C7    C     C_R   0.060509 0.315625 0.687374 0.807033
C8    C     C_R   0.939092 0.684319 0.312732 0.809454
O17   O     O_3   0.434470 0.717290 0.250000 -0.372820
O18   O     O_3   0.565530 0.282710 0.750000 -0.372817
O19   O     O_3   0.934470 0.782710 0.250000 -0.372835
O20   O     O_3   0.065530 0.217290 0.750000 -0.372833
V1    V     V_3+5 0.159620 0.756070 0.250000 1.698503
V2    V     V_3+5 0.840380 0.243930 0.750000 1.698518
V3    V     V_3+5 0.659620 0.743930 0.250000 1.698530
V4    V     V_3+5 0.340380 0.256070 0.750000 1.698530
C9    C     C_R   0.097289 0.646846 0.382703 0.613247
C10   C     C_R   0.908114 0.351041 0.615826 0.610571
C11   C     C_R   0.902730 0.353145 0.882707 0.613272
C12   C     C_R   0.091869 0.648960 0.115826 0.610572
C13   C     C_R   0.597283 0.853147 0.117294 0.613255
C14   C     C_R   0.408140 0.148963 0.884178 0.610629
C15   C     C_R   0.402705 0.146849 0.617295 0.613237
C16   C     C_R   0.591871 0.851038 0.384178 0.610625
C17   C     C_R   0.113025 0.610695 0.418654 0.559632
C18   C     C_R   0.895693 0.386580 0.579326 0.564746
C19   C     C_R   0.886998 0.389293 0.918661 0.559636
C20   C     C_R   0.104294 0.613418 0.079329 0.564746
C21   C     C_R   0.613025 0.889296 0.081342 0.559631
C22   C     C_R   0.395730 0.113422 0.920676 0.564755
C23   C     C_R   0.386963 0.110699 0.581343 0.559630
C24   C     C_R   0.604281 0.886579 0.420677 0.564750
C25   C     C_R   0.977592 0.571926 0.425121 -0.336915
C26   C     C_R   0.027705 0.426558 0.574228 -0.335018
C27   C     C_R   0.022424 0.428065 0.925128 -0.336913
C28   C     C_R   0.972302 0.573434 0.074236 -0.335017
C29   C     C_R   0.477594 0.928065 0.074871 -0.336920
C30   C     C_R   0.527729 0.073440 0.925768 -0.335014
C31   C     C_R   0.522398 0.071932 0.574874 -0.336915
C32   C     C_R   0.472281 0.926561 0.425768 -0.335011
C33   C     C_R   0.826045 0.570298 0.394356 0.611719
C34   C     C_R   0.171896 0.430171 0.606981 0.610022
C35   C     C_R   0.173961 0.429697 0.894362 0.611715
C36   C     C_R   0.828121 0.569820 0.106989 0.610015
C37   C     C_R   0.326041 0.929693 0.105632 0.611709
C38   C     C_R   0.671901 0.069826 0.893012 0.609989
C39   C     C_R   0.673953 0.070305 0.605637 0.611709
C40   C     C_R   0.328110 0.930175 0.393010 0.609992
C41   C     C_R   0.807675 0.606651 0.358301 -0.214582
C42   C     C_R   0.185176 0.394710 0.643827 -0.209129
C43   C     C_R   0.192327 0.393346 0.858305 -0.214569
C44   C     C_R   0.814834 0.605287 0.143830 -0.209133
C45   C     C_R   0.307667 0.893342 0.141689 -0.214584
C46   C     C_R   0.685162 0.105289 0.856168 -0.209104
C47   C     C_R   0.692328 0.106657 0.641692 -0.214594
C48   C     C_R   0.314846 0.894712 0.356166 -0.209111
C49   C     C_R   0.946448 0.645486 0.351490 -0.406715
C50   C     C_R   0.052187 0.354322 0.648761 -0.415528
C51   C     C_R   0.053559 0.354509 0.851493 -0.406716
C52   C     C_R   0.947808 0.645679 0.148761 -0.415527
C53   C     C_R   0.446442 0.854509 0.148505 -0.406722
C54   C     C_R   0.552188 0.145680 0.851240 -0.415530
C55   C     C_R   0.553550 0.145489 0.648507 -0.406719
C56   C     C_R   0.447820 0.854321 0.351239 -0.415528
N1    N     N_R   0.840415 0.506368 0.478099 -0.142279
N2    N     N_R   0.166389 0.491903 0.521223 -0.144629
N3    N     N_R   0.159575 0.493641 0.978095 -0.142276
N4    N     N_R   0.833645 0.508066 0.021245 -0.144629
N5    N     N_R   0.340451 0.993635 0.021900 -0.142280
N6    N     N_R   0.666390 0.008078 0.978764 -0.144640
N7    N     N_R   0.659549 0.006363 0.521904 -0.142280
N8    N     N_R   0.333613 0.991920 0.478762 -0.144641
N9    N     N_R   0.851836 0.472462 0.512747 -0.152945
N10   N     N_R   0.154936 0.525807 0.486529 -0.149612
N11   N     N_R   0.148152 0.527547 0.012743 -0.152939
N12   N     N_R   0.845101 0.474161 0.986552 -0.149608
N13   N     N_R   0.351877 0.027542 0.987253 -0.152953
N14   N     N_R   0.654931 0.974173 0.013456 -0.149616
N15   N     N_R   0.648127 0.972457 0.487257 -0.152953
N16   N     N_R   0.345068 0.025824 0.513455 -0.149615
C57   C     C_R   0.015123 0.464399 0.535173 0.622331
C58   C     C_R   0.991540 0.533867 0.464082 0.621835
C59   C     C_R   0.984887 0.535590 0.035183 0.622315
C60   C     C_R   0.008474 0.466122 0.964091 0.621819
C61   C     C_R   0.515146 0.035595 0.964820 0.622342
C62   C     C_R   0.491552 0.966124 0.035910 0.621843
C63   C     C_R   0.484860 0.964404 0.464821 0.622342
C64   C     C_R   0.508445 0.033873 0.535913 0.621842
F1    F     F_    0.228096 0.684670 0.379653 -0.573284
F2    F     F_    0.780494 0.312297 0.618060 -0.578927
F3    F     F_    0.771930 0.315319 0.879655 -0.573285
F4    F     F_    0.219468 0.687711 0.118055 -0.578918
F5    F     F_    0.728084 0.815322 0.120347 -0.573272
F6    F     F_    0.280535 0.187712 0.881949 -0.578921
F7    F     F_    0.271899 0.184673 0.620347 -0.573280
F8    F     F_    0.719478 0.812290 0.381950 -0.578922
F9    F     F_    0.259921 0.614783 0.447867 -0.549505
F10   F     F_    0.755706 0.380807 0.548300 -0.550310
F11   F     F_    0.740111 0.385200 0.947873 -0.549503
F12   F     F_    0.244268 0.619194 0.048301 -0.550307
F13   F     F_    0.759926 0.885207 0.052133 -0.549503
F14   F     F_    0.255763 0.119197 0.951706 -0.550301
F15   F     F_    0.240059 0.114786 0.552133 -0.549506
F16   F     F_    0.744250 0.880804 0.451708 -0.550304
F17   F     F_    0.693251 0.533146 0.399265 -0.574504
F18   F     F_    0.299253 0.468996 0.603904 -0.580483
F19   F     F_    0.306751 0.466850 0.899272 -0.574514
F20   F     F_    0.700778 0.530991 0.103917 -0.580487
F21   F     F_    0.193243 0.966843 0.100718 -0.574503
F22   F     F_    0.799246 0.030998 0.896083 -0.580518
F23   F     F_    0.806754 0.033156 0.600724 -0.574499
F24   F     F_    0.200765 0.969003 0.396079 -0.580516
C65   C     C_2   0.641028 0.601348 0.328735 0.943021
O21   O     O_2   0.520965 0.634864 0.329020 -0.510623
O22   O     O_R   0.613180 0.555475 0.304021 -0.597807
H1    H     H_    0.489576 0.555048 0.287192 0.320300
C66   C     C_2   0.335109 0.403062 0.677711 0.938232
O23   O     O_2   0.320532 0.437897 0.706061 -0.526998
O24   O     O_R   0.496237 0.372878 0.675812 -0.608772
H2    H     H_    0.590169 0.382959 0.700328 0.283586
C67   C     C_2   0.358960 0.398653 0.828738 0.943007
O25   O     O_2   0.479051 0.365145 0.829030 -0.510626
O26   O     O_R   0.386760 0.444519 0.804014 -0.597833
H3    H     H_    0.510362 0.444950 0.787186 0.320303
C68   C     C_2   0.664894 0.596944 0.177710 0.938211
O27   O     O_2   0.679466 0.562118 0.206069 -0.527021
O28   O     O_R   0.503765 0.627131 0.175794 -0.608764
H4    H     H_    0.409821 0.617059 0.200307 0.283592
C69   C     C_2   0.141014 0.898645 0.171250 0.943115
O29   O     O_2   0.020944 0.865131 0.170958 -0.510616
O30   O     O_R   0.113166 0.944514 0.195965 -0.597794
H5    H     H_    0.989557 0.944940 0.212790 0.320280
C70   C     C_2   0.835052 0.096940 0.822275 0.938262
O31   O     O_2   0.820321 0.062157 0.793880 -0.527122
O32   O     O_R   0.996287 0.127082 0.824211 -0.608770
H6    H     H_    0.090171 0.117017 0.799682 0.283590
C71   C     C_2   0.858988 0.101355 0.671254 0.943117
O33   O     O_2   0.979041 0.134875 0.670968 -0.510620
O34   O     O_R   0.886861 0.055481 0.695963 -0.597775
H7    H     H_    0.010470 0.055057 0.712790 0.320277
C72   C     C_2   0.164951 0.903061 0.322271 0.938252
O35   O     O_2   0.179663 0.937852 0.293883 -0.527097
O36   O     O_R   0.003730 0.872912 0.324201 -0.608776
H8    H     H_    0.909841 0.882979 0.299672 0.283589

loop_
_geom_bond_atom_site_label_1
_geom_bond_atom_site_label_2
_ccdc_geom_bond_type
O17   V3    S    
N8    N16   A    
O18   V4    S    
C72   O35   D    
O12   V1    S    
C46   C54   A    
C45   C69   S    
C30   C61   S    
C45   C53   A    
O30   H5    S    
C10   C18   A    
C47   C55   A    
C69   O29   D    
C25   C33   A    
O24   H2    S    
C24   F16   S    
O16   V3    S    
C65   O22   S    
C67   O26   S    
C5    C52   S    
O11   C3    A    
C4    C53   S    
O8    V1    S    
C23   C31   A    
C68   O28   S    
C8    C49   S    
O19   V1    S    
N1    C58   A    
C21   F13   S    
O28   H4    S    
C47   C71   S    
O1    V3    S    
C41   C49   A    
C22   F14   S    
O3    C2    A    
O2    V4    S    
C36   F20   S    
C16   C24   A    
N6    N14   A    
C19   F11   S    
C25   C58   S    
N5    N13   A    
C34   C42   A    
O11   V2    S    
C2    C55   S    
C40   F24   S    
C31   C39   A    
O32   H6    S    
C16   C56   A    
C14   F6    S    
C11   C19   A    
C13   F5    S    
O9    V1    S    
N1    N9    A    
C20   C28   A    
O15   C7    A    
C21   C29   A    
O16   C8    A    
O7    V2    S    
C38   C46   A    
O12   C4    A    
C46   C70   S    
C29   C37   A    
C6    C51   S    
C17   C25   A    
C69   O30   S    
N15   C63   A    
O5    V1    S    
C35   F19   S    
C34   F18   S    
C18   F10   S    
C26   C34   A    
O15   V4    S    
C9    F1    S    
C16   F8    S    
N13   C61   A    
C38   F22   S    
C14   C54   A    
C13   C53   A    
C31   C64   S    
C1    C56   S    
C48   C72   S    
N9    C57   A    
C10   F2    S    
C72   O36   S    
C3    C54   S    
C42   C66   S    
O10   V2    S    
C35   C43   A    
O36   H8    S    
C29   C62   S    
C11   C51   A    
C22   C30   A    
C32   C40   A    
O8    C5    A    
O13   C5    A    
C44   C68   S    
O9    C1    A    
C36   C44   A    
C71   O34   S    
C18   C26   A    
O4    C1    A    
C9    C49   A    
O6    V2    S    
C10   C50   A    
N3    C60   A    
N16   C64   A    
C66   O23   D    
N2    C57   A    
C12   C20   A    
C43   C51   A    
C7    C50   S    
C13   C21   A    
O22   H1    S    
N8    C63   A    
N12   C60   A    
C15   C23   A    
C65   O21   D    
C37   C45   A    
C27   C60   S    
C24   C32   A    
N7    N15   A    
O1    C4    A    
C26   C57   S    
O2    C3    A    
N4    C59   A    
O13   V3    S    
C32   C63   S    
C39   C47   A    
C41   C65   S    
O26   H3    S    
C44   C52   A    
O7    C6    A    
N3    N11   A    
C67   O25   D    
C28   C59   S    
N2    N10   A    
C9    C17   A    
O14   C6    A    
C70   O32   S    
C17   F9    S    
O20   V2    S    
C48   C56   A    
C70   O31   D    
C15   F7    S    
C19   C27   A    
O5    C8    A    
O10   C2    A    
O6    C7    A    
C23   F15   S    
C40   C48   A    
O3    V4    S    
C43   C67   S    
C14   C22   A    
O4    V3    S    
C11   F3    S    
C33   F17   S    
N7    C64   A    
C12   C52   A    
C27   C35   A    
C12   F4    S    
C20   F12   S    
C28   C36   A    
O34   H7    S    
C66   O24   S    
C30   C38   A    
C37   F21   S    
N4    N12   A    
N11   C59   A    
C71   O33   D    
C68   O27   D    
N6    C61   A    
O14   V4    S    
N10   C58   A    
C39   F23   S    
N5    C62   A    
N14   C62   A    
C15   C55   A    
C33   C41   A    
C42   C50   A    
