data_mof_unit_59348.cif
_audit_creation_date              2012-12-10T17:57:26-0500
_audit_creation_method            fapswitch 2.2
_symmetry_space_group_name_H-M    P1
_symmetry_Int_Tables_number       1
_space_group_crystal_system       triclinic
_cell_length_a                    9.560867
_cell_length_b                    10.802274
_cell_length_c                    13.445544
_cell_angle_alpha                 91.572443
_cell_angle_beta                  72.695117
_cell_angle_gamma                 90.629585
_cell_volume                      1325.2823573

loop_
_atom_site_label
_atom_site_type_symbol
_atom_type_description
_atom_site_fract_x
_atom_site_fract_y
_atom_site_fract_z
_atom_type_partial_charge
C1    C     C_R   0.500653 0.737746 0.499268 0.828577
C2    C     C_R   0.434394 0.482497 0.978939 0.087236
C3    C     C_R   0.471460 0.453893 0.870644 0.098711
C4    C     C_R   0.542547 0.467314 0.030954 0.076948
C5    C     C_R   0.679986 0.413658 0.976773 0.170467
C6    C     C_R   0.706957 0.372411 0.873902 -0.217387
C7    C     C_R   0.603410 0.390031 0.822182 -0.171577
C8    C     C_R   0.518818 0.504804 0.135207 -0.242506
C9    C     C_R   0.758950 0.432354 0.131894 -0.203775
C10   C     C_R   0.374273 0.488567 0.814350 -0.100464
C11   C     C_R   0.631874 0.935994 0.456746 -0.104273
C12   C     C_R   0.421642 0.493384 0.699793 0.820499
C13   C     C_R   0.631659 0.064192 0.457655 -0.172308
C14   C     C_R   0.499466 0.128358 0.497743 -0.026729
C15   C     C_R   0.367451 0.063936 0.536367 -0.178118
C16   C     C_R   0.368083 0.935790 0.536963 -0.166070
C17   C     C_R   0.500594 0.871625 0.498086 -0.023521
C18   C     C_R   0.905356 0.584902 0.561312 0.511671
C19   C     C_R   0.053329 0.582125 0.560258 -0.062114
C20   C     C_R   0.097974 0.416497 0.439808 -0.041871
C21   C     C_R   0.949324 0.416163 0.440112 -0.118376
C22   C     C_R   0.499718 0.262247 0.499218 0.768974
C23   C     C_R   0.578391 0.498199 0.300141 0.783310
C24   C     C_R   0.787832 0.398807 0.027037 -0.192949
C25   C     C_R   0.622650 0.482552 0.186758 -0.043494
C26   C     C_R   0.233049 0.530479 0.868615 -0.178329
C27   C     C_R   0.190565 0.544713 0.976201 -0.148716
C28   C     C_R   0.290158 0.523703 0.030965 -0.183614
Cu1   Cu    Cu3+1 0.359340 0.499980 0.500000 0.948856
Cu2   Cu    Cu3+1 0.640660 0.500020 0.500000 1.001969
H1    H     H_    0.840692 0.414672 0.170823 0.149865
H2    H     H_    0.734196 0.113006 0.425741 0.144129
H3    H     H_    0.264531 0.112545 0.567652 0.156278
H4    H     H_    0.265452 0.887051 0.568773 0.166367
H5    H     H_    0.095659 0.648599 0.605681 0.185862
H6    H     H_    0.173004 0.349638 0.391176 0.141005
H7    H     H_    0.912937 0.349261 0.391712 0.141009
H8    H     H_    0.808602 0.325951 0.833131 0.145447
H9    H     H_    0.892976 0.358092 0.985961 0.139674
H10   H     H_    0.419359 0.550708 0.179046 0.150201
H11   H     H_    0.155810 0.555102 0.827651 0.172993
H12   H     H_    0.249297 0.537865 0.114177 0.128367
H13   H     H_    0.080836 0.576022 0.017276 0.154165
H14   H     H_    0.627337 0.349540 0.744664 0.165674
H15   H     H_    0.733922 0.887291 0.422501 0.174589
N1    N     N_R   0.147940 0.499970 0.499970 -0.198215
N2    N     N_R   0.852060 0.500060 0.499990 -0.224827
O1    O     O_R   0.381250 0.680340 0.500010 -0.599536
O2    O     O_R   0.618820 0.680370 0.500010 -0.512498
O3    O     O_R   0.323240 0.499950 0.650980 -0.590537
O4    O     O_R   0.560810 0.499980 0.650980 -0.534883
O5    O     O_R   0.381180 0.319630 0.499990 -0.586923
O6    O     O_R   0.618750 0.319660 0.499990 -0.598209
O7    O     O_R   0.439190 0.500020 0.349020 -0.582710
O8    O     O_R   0.676760 0.500050 0.349020 -0.592235
S1    S     S_3+6 0.812094 0.715889 0.635427 -0.004777
O9    O     O_2   0.843311 0.824989 0.565265 -0.344470
O10   O     O_2   0.650120 0.704678 0.683848 -0.260359
O11   O     O_3   0.884488 0.746382 0.733381 -0.583360
H16   H     H_    0.850367 0.830831 0.759340 0.376890

loop_
_geom_bond_atom_site_label_1
_geom_bond_atom_site_label_2
_ccdc_geom_bond_type
C12   O3    A    
Cu2   O4    S    
C6    H8    S    
C9    C24   A    
C23   O8    A    
C6    C7    A    
Cu2   O8    S    
C13   H2    S    
C1    C17   S    
S1    O11   S    
C18   S1    S    
Cu1   N1    S    
C4    C8    A    
C18   N2    A    
C14   C22   S    
C2    C3    A    
C19   N1    A    
C9    C25   A    
O11   H16   S    
C1    O1    A    
C3    C10   A    
C19   H5    S    
C13   C14   A    
S1    O9    D    
C8    C25   A    
C11   C13   A    
C10   C26   A    
C26   C27   A    
Cu1   Cu2   S    
C5    C24   A    
C10   C12   S    
C2    C4    A    
C28   H12   S    
Cu2   O2    S    
S1    O10   D    
C22   O6    A    
C3    C7    A    
Cu1   O3    S    
C23   C25   S    
C5    C6    A    
Cu2   O6    S    
C11   H15   S    
Cu1   O7    S    
C9    H1    S    
Cu1   O1    S    
C15   C16   A    
C20   H6    S    
C27   H13   S    
Cu2   N2    S    
C4    C5    A    
C12   O4    A    
C21   H7    S    
C20   C21   A    
C23   O7    A    
C22   O5    A    
C18   C19   A    
C27   C28   A    
C14   C15   A    
C11   C17   A    
C2    C28   A    
C8    H10   S    
C16   H4    S    
C7    H14   S    
C1    O2    A    
C24   H9    S    
C15   H3    S    
C20   N1    A    
C26   H11   S    
C16   C17   A    
C21   N2    A    
Cu1   O5    S    
