data_mof_unit_25104.cif
_audit_creation_date              2012-12-10T17:35:38-0500
_audit_creation_method            fapswitch 2.2
_symmetry_space_group_name_H-M    P1
_symmetry_Int_Tables_number       1
_space_group_crystal_system       triclinic
_cell_length_a                    10.708319
_cell_length_b                    12.349858
_cell_length_c                    13.293658
_cell_angle_alpha                 117.072929
_cell_angle_beta                  77.076978
_cell_angle_gamma                 101.243713
_cell_volume                      1516.93201332

loop_
_atom_site_label
_atom_site_type_symbol
_atom_type_description
_atom_site_fract_x
_atom_site_fract_y
_atom_site_fract_z
_atom_type_partial_charge
C1    C     C_R   0.515146 0.854818 0.286635 0.765219
C2    C     C_3   0.122132 0.997644 0.497904 0.159123
C3    C     C_3   0.067361 0.108374 0.604449 -0.395353
C4    C     C_3   0.044066 0.878740 0.501093 -0.363156
C5    C     C_R   0.614807 0.288915 0.987083 -0.198913
C6    C     C_R   0.498724 0.228281 0.830755 -0.042903
C7    C     C_R   0.437026 0.810802 0.109706 -0.198892
C8    C     C_R   0.399439 0.727872 0.005410 -0.152289
C9    C     C_R   0.424010 0.606269 0.957948 -0.180394
C10   C     C_R   0.493400 0.566287 0.011753 0.076788
C11   C     C_R   0.541824 0.654602 0.112629 0.089357
C12   C     C_R   0.739958 0.998538 0.498348 0.739285
C13   C     C_R   0.516661 0.442095 0.969500 0.075442
C14   C     C_R   0.593690 0.410918 0.024716 0.164352
C15   C     C_R   0.653574 0.502247 0.113924 -0.223177
C16   C     C_R   0.628687 0.622650 0.157030 -0.206985
C17   C     C_R   0.468784 0.347929 0.872696 -0.245040
C18   C     C_R   0.567135 0.197731 0.890480 -0.205129
C19   C     C_R   0.504633 0.774194 0.165871 -0.091074
C20   C     C_R   0.718144 0.354858 0.343613 -0.318221
C21   C     C_R   0.317122 0.756875 0.637074 -0.016324
C22   C     C_R   0.264424 0.653555 0.654357 -0.340609
C23   C     C_R   0.485286 0.145214 0.712715 0.793117
C24   C     C_R   0.324273 0.545728 0.594751 0.497342
C25   C     C_R   0.447960 0.546212 0.527364 -0.118536
C26   C     C_R   0.493442 0.652916 0.507642 0.234146
C27   C     C_R   0.525735 0.445175 0.474177 -0.024788
C28   C     C_R   0.641762 0.452071 0.399693 0.186735
C29   C     C_R   0.681518 0.555979 0.381213 -0.297208
C30   C     C_R   0.606484 0.651688 0.430649 -0.159050
C31   C     C_R   0.498139 0.339306 0.494518 0.038802
C32   C     C_R   0.681663 0.251323 0.363117 0.068364
C33   C     C_R   0.260341 0.999169 0.498838 0.753932
C34   C     C_3   0.959931 0.002011 0.387131 -0.392215
C35   C     C_3   0.104052 0.003333 0.387873 -0.376987
C36   C     C_3   0.924124 0.109940 0.602730 -0.367853
C37   C     C_3   0.900923 0.879113 0.501871 -0.374326
C38   C     C_3   0.878111 0.997297 0.497536 0.163674
Cu1   Cu    Cu3+1 0.529690 0.098270 0.475420 0.929758
Cu2   Cu    Cu3+1 0.470310 0.901730 0.524580 0.920638
H1    H     H_    0.945806 0.085424 0.380632 0.166960
H2    H     H_    0.054790 0.871027 0.578947 0.167985
H3    H     H_    0.864988 0.109498 0.682927 0.153524
H4    H     H_    0.076623 0.102530 0.683553 0.150661
H5    H     H_    0.592289 0.105524 0.857525 0.148304
H6    H     H_    0.721393 0.479868 0.148882 0.139897
H7    H     H_    0.672774 0.264899 0.029658 0.133535
H8    H     H_    0.413257 0.365222 0.824216 0.136190
H9    H     H_    0.408087 0.902375 0.149054 0.148095
H10   H     H_    0.388431 0.546704 0.878774 0.138824
H11   H     H_    0.346311 0.756836 0.963141 0.143227
H12   H     H_    0.928873 0.921335 0.310514 0.146798
H13   H     H_    0.680660 0.691794 0.223325 0.120699
H14   H     H_    0.740244 0.175915 0.320698 0.120443
H15   H     H_    0.771674 0.563316 0.326990 0.133323
H16   H     H_    0.805703 0.359186 0.285346 0.129731
H17   H     H_    0.419932 0.330064 0.557603 0.190875
H18   H     H_    0.266326 0.837563 0.679436 0.149283
H19   H     H_    0.172242 0.654559 0.708600 0.163786
H20   H     H_    0.638827 0.722452 0.404073 0.194877
H21   H     H_    0.143329 0.923989 0.310917 0.152010
H22   H     H_    0.158021 0.087793 0.382852 0.171365
H23   H     H_    0.911556 0.195856 0.599943 0.174546
H24   H     H_    0.123281 0.195282 0.607491 0.190806
H25   H     H_    0.844136 0.872702 0.580472 0.180603
H26   H     H_    0.868883 0.797103 0.426773 0.153193
H27   H     H_    0.080924 0.797062 0.425337 0.168484
N1    N     N_R   0.574690 0.246280 0.438200 -0.193779
N2    N     N_R   0.426100 0.754320 0.561190 -0.197405
O1    O     O_R   0.537340 0.972510 0.318130 -0.580385
O2    O     O_R   0.487200 0.806530 0.359650 -0.579972
O3    O     O_R   0.707380 0.082980 0.479220 -0.585929
O4    O     O_R   0.657240 0.917000 0.520740 -0.608821
O5    O     O_R   0.512800 0.193470 0.640350 -0.577060
O6    O     O_R   0.462660 0.027490 0.681870 -0.583746
O7    O     O_R   0.342760 0.083000 0.479260 -0.586615
O8    O     O_R   0.292620 0.917020 0.520780 -0.592180
O9    O     O_3   0.254175 0.440024 0.596305 -0.609394
C39   C     C_3   0.184128 0.385828 0.503613 -0.363996
H28   H     H_    0.249945 0.352658 0.420456 0.168987
H29   H     H_    0.121180 0.449664 0.506839 0.172169
H30   H     H_    0.119922 0.305869 0.508264 0.183450

loop_
_geom_bond_atom_site_label_1
_geom_bond_atom_site_label_2
_ccdc_geom_bond_type
C2    C35   S    
Cu2   O2    S    
Cu1   N1    S    
C17   H8    S    
C20   H16   S    
C7    C8    A    
C3    H24   S    
C5    H7    S    
C11   C19   A    
C1    O2    A    
C21   C22   A    
C28   C29   A    
C37   C38   S    
C15   C16   A    
Cu2   O4    S    
C34   C35   S    
Cu1   O5    S    
C16   H13   S    
C37   H25   S    
C8    C9    A    
C30   H20   S    
Cu1   O3    S    
C36   H23   S    
C9    C10   A    
C32   N1    A    
C12   O3    A    
C13   C14   A    
C34   H1    S    
C32   H14   S    
C31   N1    A    
C6    C18   A    
C3    H4    S    
C1    C19   S    
Cu2   N2    S    
C27   C31   A    
C24   C25   A    
C7    H9    S    
Cu1   Cu2   S    
C39   H29   S    
O9    C39   S    
C5    C18   A    
C29   H15   S    
C25   C26   A    
C21   N2    A    
C2    C4    S    
C29   C30   A    
C4    H27   S    
C11   C16   A    
C33   O7    A    
C14   C15   A    
C37   H26   S    
C35   H21   S    
Cu1   O7    S    
C8    H11   S    
C5    C14   A    
C2    C33   S    
C24   O9    S    
C26   C30   A    
C7    C19   A    
C22   C24   A    
C23   O5    A    
C18   H5    S    
C22   H19   S    
C20   C32   A    
C6    C17   A    
C34   C38   S    
C9    H10   S    
C23   O6    A    
C10   C13   A    
C39   H30   S    
C25   C27   A    
C20   C28   A    
C34   H12   S    
C1    O1    A    
Cu2   O6    S    
C13   C17   A    
C31   H17   S    
C36   C38   S    
C2    C3    S    
C21   H18   S    
C33   O8    A    
C4    H2    S    
C3    C36   S    
C6    C23   S    
Cu1   O1    S    
C35   H22   S    
C12   C38   S    
C10   C11   A    
C39   H28   S    
C4    C37   S    
C27   C28   A    
C26   N2    A    
Cu2   O8    S    
C36   H3    S    
C15   H6    S    
C12   O4    A    
