data_mof_unit_16417.cif
_audit_creation_date              2012-12-10T16:50:19-0500
_audit_creation_method            fapswitch 2.2
_symmetry_space_group_name_H-M    P1
_symmetry_Int_Tables_number       1
_space_group_crystal_system       triclinic
_cell_length_a                    23.465085
_cell_length_b                    8.67591
_cell_length_c                    7.463491
_cell_angle_alpha                 103.739315
_cell_angle_beta                  94.571363
_cell_angle_gamma                 92.358447
_cell_volume                      1468.41841809

loop_
_atom_site_label
_atom_site_type_symbol
_atom_type_description
_atom_site_fract_x
_atom_site_fract_y
_atom_site_fract_z
_atom_type_partial_charge
C1    C     C_R   0.498259 0.199396 0.452596 0.888264
C2    C     C_R   0.501741 0.800604 0.547404 0.888289
C3    C     C_R   0.234269 0.504250 0.346322 -0.113302
C4    C     C_R   0.765718 0.495357 0.653595 -0.113249
C5    C     C_R   0.293597 0.506715 0.345068 -0.209670
C6    C     C_R   0.706393 0.493048 0.654879 -0.209659
C7    C     C_R   0.328338 0.498134 0.504471 -0.036138
C8    C     C_R   0.671660 0.501714 0.495497 -0.036140
C9    C     C_R   0.302651 0.486818 0.664989 -0.217341
C10   C     C_R   0.697352 0.512946 0.334959 -0.217347
C11   C     C_R   0.243201 0.483138 0.665407 -0.105950
C12   C     C_R   0.756800 0.516473 0.334512 -0.105993
C13   C     C_R   0.208867 0.491673 0.506059 0.348309
C14   C     C_R   0.791126 0.507871 0.493849 0.348305
C15   C     C_2   0.497446 0.030947 0.426417 -0.364217
C16   C     C_2   0.502554 0.969052 0.573583 -0.364229
C17   C     C_R   0.390951 0.499539 0.501717 0.796119
C18   C     C_R   0.609048 0.500432 0.498277 0.796119
C19   C     C_R   0.885701 0.635150 0.597931 0.493823
C20   C     C_R   0.114293 0.364353 0.402006 0.493827
C21   C     C_R   0.875656 0.378744 0.389485 0.510876
C22   C     C_R   0.124336 0.620760 0.610450 0.510877
C23   C     C_R   0.935125 0.368810 0.401998 -0.017690
C24   C     C_R   0.064868 0.630687 0.597944 -0.017681
C25   C     C_R   0.970106 0.503681 0.495791 -0.032503
C26   C     C_R   0.029888 0.495815 0.504153 -0.032502
C27   C     C_R   0.945195 0.645748 0.581459 -0.065589
C28   C     C_R   0.054800 0.353749 0.418484 -0.065597
C29   C     C_R   0.959518 0.224162 0.333431 -0.200035
C30   C     C_R   0.040476 0.775334 0.666514 -0.200033
C31   C     C_R   0.019130 0.210805 0.348352 0.004322
C32   C     C_R   0.980864 0.788692 0.651596 0.004317
Cu1   Cu    Cu3+1 0.506340 0.517380 0.684380 0.953866
Cu2   Cu    Cu3+1 0.493660 0.482620 0.315620 0.953865
H1    H     H_    0.931143 0.119381 0.279232 0.181600
H2    H     H_    0.068850 0.880116 0.720711 0.181606
H3    H     H_    0.207988 0.512610 0.223359 0.138281
H4    H     H_    0.791993 0.486949 0.776550 0.138278
H5    H     H_    0.312209 0.516294 0.219639 0.158540
H6    H     H_    0.687776 0.483518 0.780319 0.158535
H7    H     H_    0.328381 0.479645 0.789505 0.154764
H8    H     H_    0.671627 0.520171 0.210453 0.154773
H9    H     H_    0.223733 0.473811 0.789509 0.139232
H10   H     H_    0.776273 0.525756 0.210402 0.139238
H11   H     H_    0.492661 0.957687 0.285330 0.179763
H12   H     H_    0.507339 0.042313 0.714670 0.179762
H13   H     H_    0.454649 0.378576 0.948238 0.223495
H14   H     H_    0.545351 0.621424 0.051762 0.223501
N1    N     N_R   0.852133 0.508311 0.492001 -0.464302
N2    N     N_R   0.147860 0.491199 0.507926 -0.464303
N3    N     N_2   0.484110 0.456420 0.038520 -0.217344
N4    N     N_2   0.515890 0.543580 0.961480 -0.217343
O1    O     O_R   0.504120 0.286130 0.619770 -0.582140
O2    O     O_R   0.495880 0.713870 0.380230 -0.582131
O3    O     O_R   0.493410 0.256770 0.308360 -0.581621
O4    O     O_R   0.506590 0.743230 0.691640 -0.581613
O5    O     O_R   0.423230 0.514630 0.655730 -0.589396
O6    O     O_R   0.576770 0.485370 0.344270 -0.589400
O7    O     O_R   0.412530 0.485280 0.344320 -0.584123
O8    O     O_R   0.587470 0.514720 0.655680 -0.584122
O9    O     O_2   0.861840 0.746504 0.723058 -0.542075
O10   O     O_2   0.138156 0.252999 0.276881 -0.542074
O11   O     O_2   0.841497 0.257192 0.282175 -0.552767
O12   O     O_2   0.158494 0.742317 0.717757 -0.552772
C33   C     C_R   0.041678 0.046552 0.305597 0.138124
C34   C     C_R   0.091718 0.013218 0.403769 -0.052725
C35   C     C_R   0.116701 0.868171 0.347540 -0.096619
C36   C     C_R   0.088775 0.746726 0.207441 -0.101311
C37   C     C_R   0.035845 0.770578 0.123304 -0.111261
C38   C     C_R   0.012473 0.918845 0.171178 -0.195730
H15   H     H_    0.112837 0.101099 0.520501 0.132673
H16   H     H_    0.157397 0.849154 0.415064 0.167675
H17   H     H_    0.107541 0.633174 0.166964 0.128190
H18   H     H_    0.013341 0.674989 0.018016 0.141177
H19   H     H_    0.972190 0.932516 0.098064 0.154724
C39   C     C_R   0.958317 0.952945 0.694360 0.138134
C40   C     C_R   0.987522 0.080646 0.828787 -0.195726
C41   C     C_R   0.964153 0.228917 0.876661 -0.111260
C42   C     C_R   0.911225 0.252778 0.792517 -0.101306
C43   C     C_R   0.883299 0.131339 0.652413 -0.096632
C44   C     C_R   0.908279 0.986288 0.596183 -0.052720
H20   H     H_    0.027803 0.066967 0.901905 0.154728
H21   H     H_    0.986657 0.324501 0.981955 0.141180
H22   H     H_    0.892461 0.366334 0.832993 0.128194
H23   H     H_    0.842605 0.150364 0.584884 0.167667
H24   H     H_    0.887161 0.898411 0.479447 0.132671

loop_
_geom_bond_atom_site_label_1
_geom_bond_atom_site_label_2
_ccdc_geom_bond_type
C10   H8    S    
C21   N1    A    
C40   C41   A    
Cu1   N4    S    
Cu2   N3    S    
C23   C29   A    
C24   C26   A    
C42   H22   S    
C14   N1    S    
C33   C38   A    
C7    C9    A    
C35   H16   S    
C1    O1    A    
C20   N2    A    
C41   H21   S    
C18   O6    A    
C36   C37   A    
C7    C17   S    
C11   H9    S    
C1    C15   S    
C19   C27   A    
C44   H24   S    
C3    C13   A    
C22   N2    A    
Cu1   O4    S    
C34   C35   A    
Cu2   O3    S    
C20   O10   S    
C25   C26   A    
Cu1   O1    S    
C35   C36   A    
C39   C40   A    
C4    C6    A    
C2    O2    A    
C16   H12   S    
C5    C7    A    
C41   C42   A    
H13   N3    S    
C20   C28   A    
C36   H17   S    
C8    C18   S    
N3    N4    D    
C43   H23   S    
C19   N1    A    
C34   H15   S    
Cu1   Cu2   S    
C37   H18   S    
C9    C11   A    
C10   C12   A    
C17   O7    A    
C18   O8    A    
C4    H4    S    
Cu2   O2    S    
Cu1   O8    S    
C21   C23   A    
Cu2   O7    S    
C22   C24   A    
C15   H11   S    
C2    C16   S    
C31   C33   S    
Cu1   O5    S    
C27   C32   A    
C26   C28   A    
C28   C31   A    
C12   C14   A    
C43   C44   A    
C3    C5    A    
C39   C44   A    
C32   C39   S    
C6    C8    A    
C25   C27   A    
C29   H1    S    
C9    H7    S    
C30   H2    S    
C5    H5    S    
C1    O3    A    
C29   C31   A    
C2    O4    A    
C30   C32   A    
C11   C13   A    
C40   H20   S    
C19   O9    S    
C13   N2    S    
C6    H6    S    
C23   C25   A    
C4    C14   A    
C37   C38   A    
C24   C30   A    
C21   O11   S    
C22   O12   S    
C42   C43   A    
H14   N4    S    
C3    H3    S    
C8    C10   A    
C33   C34   A    
C38   H19   S    
Cu2   O6    S    
C12   H10   S    
C15   C16   D    
C17   O5    A    
