data_mof_unit_24433.cif
_audit_creation_date              2012-12-10T17:11:26-0500
_audit_creation_method            fapswitch 2.2
_symmetry_space_group_name_H-M    P1
_symmetry_Int_Tables_number       1
_space_group_crystal_system       triclinic
_cell_length_a                    15.071814
_cell_length_b                    12.992527
_cell_length_c                    11.825595
_cell_angle_alpha                 101.027975
_cell_angle_beta                  93.293919
_cell_angle_gamma                 92.96196
_cell_volume                      2264.53767911

loop_
_atom_site_label
_atom_site_type_symbol
_atom_type_description
_atom_site_fract_x
_atom_site_fract_y
_atom_site_fract_z
_atom_type_partial_charge
C1    C     C_R   0.506546 0.299349 0.477071 0.792460
C2    C     C_R   0.493697 0.700599 0.522875 0.802385
C3    C     C_R   0.035583 0.335157 0.363702 -0.113523
C4    C     C_R   0.964465 0.664819 0.635584 -0.119362
C5    C     C_R   0.482950 0.815388 0.538651 -0.100197
C6    C     C_R   0.519560 0.184723 0.461181 -0.097024
C7    C     C_R   0.499647 0.008522 0.342963 0.014820
C8    C     C_R   0.510716 0.990367 0.657407 0.009998
C9    C     C_R   0.513233 0.118143 0.350675 0.079469
C10   C     C_R   0.491007 0.881654 0.648877 0.094132
C11   C     C_R   0.540630 0.140622 0.558792 0.074735
C12   C     C_R   0.465180 0.860219 0.441086 0.055200
C13   C     C_R   0.516291 0.032980 0.555058 0.000873
C14   C     C_R   0.492306 0.967045 0.445490 -0.005031
C15   C     C_R   0.394936 0.435157 0.027421 0.138854
C16   C     C_R   0.604556 0.572910 0.972910 0.059231
C17   C     C_R   0.412760 0.423225 0.143081 0.131285
C18   C     C_R   0.583859 0.583058 0.856986 0.168058
C19   C     C_R   0.543651 0.536965 0.157397 0.119860
C20   C     C_R   0.460635 0.459274 0.844008 0.120966
C21   C     C_R   0.539098 0.527564 0.033665 -0.099779
C22   C     C_R   0.464004 0.474091 0.967885 -0.014324
C23   C     C_R   0.329282 0.499024 0.500884 0.775764
C24   C     C_R   0.670722 0.500895 0.499076 0.798490
C25   C     C_R   0.819540 0.594300 0.541951 -0.110398
C26   C     C_R   0.180476 0.405644 0.457445 -0.113442
C27   C     C_R   0.767339 0.501350 0.495355 -0.108877
C28   C     C_R   0.232668 0.498533 0.504341 -0.141797
C29   C     C_R   0.806768 0.410432 0.439652 0.139204
C30   C     C_R   0.193175 0.589619 0.559357 0.127627
C31   C     C_R   0.899995 0.415007 0.427386 0.099891
C32   C     C_R   0.099985 0.585025 0.571687 0.095470
C33   C     C_R   0.953021 0.500604 0.495993 -0.030884
C34   C     C_R   0.046963 0.499335 0.503289 -0.032963
C35   C     C_R   0.912359 0.588275 0.556470 0.061243
C36   C     C_R   0.087650 0.411661 0.442884 0.067877
C37   C     C_R   0.943145 0.337444 0.351699 0.136811
C38   C     C_R   0.056917 0.662645 0.647337 0.142091
Cu1   Cu    Cu3+1 0.506660 0.507730 0.615930 0.903249
Cu2   Cu    Cu3+1 0.493340 0.492270 0.384070 0.933298
H1    H     H_    0.067385 0.276172 0.305004 0.198162
H2    H     H_    0.932707 0.723762 0.694386 0.192721
N1    N     N_R   0.516670 0.519360 0.790130 -0.275828
N2    N     N_R   0.483330 0.480640 0.209870 -0.269375
O1    O     O_R   0.504720 0.354460 0.582000 -0.585270
O2    O     O_R   0.495280 0.645540 0.418000 -0.585357
O3    O     O_R   0.493480 0.341410 0.386200 -0.615680
O4    O     O_R   0.506520 0.658590 0.613800 -0.610162
O5    O     O_R   0.375880 0.506510 0.597910 -0.603062
O6    O     O_R   0.624120 0.493490 0.402090 -0.515454
O7    O     O_R   0.364640 0.493450 0.402110 -0.612869
O8    O     O_R   0.635360 0.506550 0.597890 -0.629440
C39   C     C_2   0.776726 0.697149 0.565250 0.416644
H3    H     H_    0.705174 0.699615 0.567005 0.049308
O9    O     O_2   0.819947 0.780670 0.573533 -0.522485
C40   C     C_2   0.223338 0.302895 0.433215 0.382291
H4    H     H_    0.294768 0.300522 0.429551 0.048185
O10   O     O_2   0.180354 0.219368 0.426061 -0.521481
C41   C     C_3   0.298936 0.427442 0.978081 -0.720516
H5    H     H_    0.254677 0.457796 0.047167 0.223461
H6    H     H_    0.290239 0.476974 0.911902 0.187754
H7    H     H_    0.276129 0.345092 0.939341 0.297274
C42   C     C_3   0.700684 0.593444 0.020591 -0.698453
H8    H     H_    0.746992 0.588910 0.950303 0.222953
H9    H     H_    0.711289 0.672628 0.076443 0.264577
H10   H     H_    0.720076 0.531026 0.067645 0.245217
C43   C     C_3   0.750900 0.307434 0.405925 -0.827643
H11   H     H_    0.729425 0.292066 0.312839 0.239631
H12   H     H_    0.788219 0.242160 0.429044 0.241280
H13   H     H_    0.690043 0.307225 0.453416 0.203174
C44   C     C_3   0.248864 0.692821 0.591796 -0.818348
H14   H     H_    0.271178 0.708584 0.684631 0.232215
H15   H     H_    0.309090 0.692983 0.542966 0.208093
H16   H     H_    0.211011 0.757855 0.569082 0.243259
C45   C     C_3   0.896123 0.265736 0.247218 -0.811453
H17   H     H_    0.864880 0.194466 0.270949 0.245589
H18   H     H_    0.846506 0.308825 0.204832 0.242114
H19   H     H_    0.943308 0.238298 0.180698 0.234264
C46   C     C_3   0.104138 0.734514 0.751551 -0.820454
H20   H     H_    0.154255 0.691724 0.793491 0.235164
H21   H     H_    0.134883 0.805954 0.727611 0.249012
H22   H     H_    0.057160 0.761574 0.818470 0.234079
C47   C     C_3   0.399365 0.801132 0.345334 -0.771946
H23   H     H_    0.353296 0.746309 0.378366 0.227168
H24   H     H_    0.356237 0.856211 0.310604 0.251173
H25   H     H_    0.433932 0.754797 0.274420 0.219234
C48   C     C_3   0.604978 0.202959 0.654173 -0.770389
H26   H     H_    0.648579 0.260049 0.620907 0.224903
H27   H     H_    0.568929 0.247484 0.724839 0.251866
H28   H     H_    0.650970 0.150562 0.688638 0.244528
C49   C     C_3   0.465479 0.840951 0.755736 -0.691791
H29   H     H_    0.424939 0.897344 0.809908 0.234819
H30   H     H_    0.421470 0.768207 0.734996 0.216378
H31   H     H_    0.525995 0.828796 0.807833 0.281832
C50   C     C_3   0.531808 0.161386 0.242948 -0.681963
H32   H     H_    0.567279 0.106039 0.180596 0.246346
H33   H     H_    0.468530 0.178816 0.200061 0.259770
H34   H     H_    0.578456 0.232012 0.262587 0.217256
C51   C     C_2   0.501000 0.936981 0.228732 0.376734
H35   H     H_    0.541922 0.870097 0.219681 0.064064
O11   O     O_2   0.454750 0.950714 0.145318 -0.510050
C52   C     C_2   0.517444 0.058903 0.773858 0.366176
H36   H     H_    0.478990 0.127222 0.790179 0.153108
O12   O     O_2   0.566455 0.039307 0.851828 -0.502640
C53   C     C_2   0.404827 0.369067 0.774569 0.380006
H37   H     H_    0.370080 0.372563 0.693892 0.127614
O13   O     O_2   0.397731 0.286031 0.807916 -0.587621
C54   C     C_2   0.602882 0.620896 0.230345 0.471643
H38   H     H_    0.580546 0.699652 0.251331 0.031913
O14   O     O_2   0.678115 0.604610 0.263308 -0.556105
C55   C     C_2   0.634892 0.665870 0.811985 0.343673
H39   H     H_    0.639160 0.664054 0.722180 0.129566
O15   O     O_2   0.671611 0.742166 0.877751 -0.547493
C56   C     C_2   0.356016 0.345166 0.188506 0.368999
H40   H     H_    0.364083 0.335484 0.275693 0.127469
O16   O     O_2   0.301450 0.284237 0.125877 -0.545076

loop_
_geom_bond_atom_site_label_1
_geom_bond_atom_site_label_2
_ccdc_geom_bond_type
C24   O8    A    
Cu2   O3    S    
C48   H26   S    
C42   H9    S    
C8    C13   A    
C27   C29   A    
C50   H32   S    
C24   C27   S    
C6    C9    A    
C56   H40   S    
C50   H34   S    
C15   C22   A    
C39   H3    S    
C2    O2    A    
Cu2   O2    S    
C53   O13   D    
C16   C21   A    
C7    C51   S    
C19   C21   A    
C25   C39   S    
C23   O5    A    
C38   C46   S    
C54   H38   S    
C7    C9    A    
C44   H16   S    
C29   C43   S    
C7    C14   A    
C47   H23   S    
C11   C48   S    
C31   C33   A    
C16   C42   S    
C32   C38   A    
C9    C50   S    
Cu1   O1    S    
C19   C54   S    
Cu1   O8    S    
C37   C45   S    
C42   H10   S    
C41   H5    S    
C21   C22   A    
C5    C10   A    
C17   C56   S    
C30   C44   S    
C39   O9    D    
C24   O6    A    
C41   H6    S    
C43   H11   S    
C18   C55   S    
C5    C12   A    
Cu1   Cu2   S    
C46   H21   S    
C1    O3    A    
Cu1   N1    S    
C2    O4    A    
C31   C37   A    
C12   C47   S    
C43   H12   S    
C32   C34   A    
C45   H17   S    
C49   H30   S    
C23   O7    A    
C51   H35   S    
C33   C34   A    
C55   O15   D    
C16   C18   A    
C23   C28   S    
C52   O12   D    
C45   H18   S    
C25   C35   A    
C26   C36   A    
C47   H24   S    
C20   C22   A    
C10   C49   S    
C6    C11   A    
C13   C14   A    
C46   H20   S    
C2    C5    S    
C40   H4    S    
C49   H29   S    
C20   N1    A    
C19   N2    A    
C44   H15   S    
C20   C53   S    
C15   C17   A    
C3    H1    S    
C41   H7    S    
C55   H39   S    
Cu1   O5    S    
C15   C41   S    
C12   C14   A    
C26   C40   S    
C46   H22   S    
C56   O16   D    
C50   H33   S    
C25   C27   A    
Cu2   O7    S    
C53   H37   S    
C26   C28   A    
C43   H13   S    
C48   H27   S    
C17   N2    A    
C44   H14   S    
C29   C31   A    
C18   N1    A    
C49   H31   S    
C30   C32   A    
C11   C13   A    
C1    O1    A    
C54   O14   D    
C4    H2    S    
C3    C36   A    
Cu2   O6    S    
C28   C30   A    
C33   C35   A    
C40   O10   D    
C34   C36   A    
C52   H36   S    
C45   H19   S    
C4    C35   A    
C42   H8    S    
Cu2   N2    S    
C47   H25   S    
C3    C37   A    
C8    C10   A    
C48   H28   S    
C1    C6    S    
C4    C38   A    
C8    C52   S    
C51   O11   D    
Cu1   O4    S    
