data_mof_unit_67607.cif
_audit_creation_date              2013-03-05T16:07:31-0500
_audit_creation_method            fapswitch 2.2
_symmetry_space_group_name_H-M    P1
_symmetry_Int_Tables_number       1
_space_group_crystal_system       triclinic
_cell_length_a                    11.011145
_cell_length_b                    10.99958
_cell_length_c                    9.756395
_cell_angle_alpha                 91.199657
_cell_angle_beta                  90.719971
_cell_angle_gamma                 91.454592
_cell_volume                      1180.93363773

loop_
_atom_site_label
_atom_site_type_symbol
_atom_site_description
_atom_site_fract_x
_atom_site_fract_y
_atom_site_fract_z
_atom_type_partial_charge
O1    O     O_R   0.499990 0.319660 0.618740 -0.566817
O2    O     O_R   0.500010 0.680340 0.381260 -0.558083
O3    O     O_R   0.499990 0.319630 0.381170 -0.552045
O4    O     O_R   0.500010 0.680370 0.618830 -0.557018
C1    C     C_R   0.503095 0.262711 0.499330 0.866438
C2    C     C_R   0.500248 0.737275 0.501945 0.868020
O5    O     O_R   0.319650 0.500020 0.618780 -0.541166
O6    O     O_R   0.680350 0.499980 0.381220 -0.551584
O7    O     O_R   0.319640 0.500000 0.381210 -0.582974
O8    O     O_R   0.680360 0.500000 0.618790 -0.590673
C3    C     C_R   0.262750 0.498063 0.498628 0.842060
C4    C     C_R   0.737334 0.500577 0.501197 0.814171
Cu1   Cu    Cu3+1 0.500000 0.500020 0.640660 1.003750
Cu2   Cu    Cu3+1 0.500000 0.499980 0.359340 1.011447
H1    H     H_    0.181933 0.264820 0.914162 0.202514
H2    H     H_    0.815077 0.663367 0.104246 0.181572
C5    C     C_R   0.148877 0.417834 0.047838 0.141901
C6    C     C_R   0.847600 0.532563 0.949585 0.155631
C7    C     C_R   0.116880 0.456818 0.179053 0.177011
C8    C     C_R   0.884583 0.510498 0.815943 0.180895
C9    C     C_R   0.106350 0.370716 0.284106 -0.043732
C10   C     C_R   0.898034 0.609615 0.725591 -0.031492
C11   C     C_R   0.131567 0.247205 0.257070 0.143393
C12   C     C_R   0.876271 0.729672 0.773753 0.155700
C13   C     C_R   0.151225 0.208405 0.120666 0.164428
C14   C     C_R   0.852007 0.749769 0.913177 0.167941
C15   C     C_R   0.161001 0.294152 0.017597 -0.266695
C16   C     C_R   0.837893 0.650818 0.998932 -0.275257
C17   C     C_R   0.931494 0.408112 0.429192 0.199743
C18   C     C_R   0.068519 0.589619 0.569859 0.199083
C19   C     C_R   0.871927 0.499430 0.502871 -0.156955
C20   C     C_R   0.128242 0.498771 0.496344 -0.144716
C21   C     C_R   0.941813 0.582282 0.586283 -0.017635
C22   C     C_R   0.058624 0.413472 0.416349 0.004076
C23   C     C_R   0.540124 0.060141 0.383145 0.183215
C24   C     C_R   0.474734 0.939871 0.624424 0.177928
C25   C     C_R   0.549806 0.933411 0.390381 0.173699
C26   C     C_R   0.489063 0.066816 0.625334 0.173441
C27   C     C_R   0.506619 0.871848 0.506064 -0.141227
C28   C     C_R   0.509533 0.128197 0.501227 -0.147502
C29   C     C_R   0.443248 0.409544 0.070828 0.014170
C30   C     C_R   0.560558 0.587479 0.929319 -0.009758
H3    H     H_    0.393523 0.339464 0.122752 0.118967
H4    H     H_    0.614193 0.654334 0.877281 0.118748
C31   C     C_R   0.444574 0.408466 0.923743 0.015750
C32   C     C_R   0.557166 0.590199 0.076276 0.016984
H5    H     H_    0.396611 0.335884 0.867994 0.140764
H6    H     H_    0.603868 0.663340 0.132002 0.143341
N1    N     N_R   0.500030 0.500030 0.852070 -0.149859
N2    N     N_R   0.499970 0.499970 0.147930 -0.150868
I1    I     I_    0.186561 0.545685 0.897020 -0.276710
I2    I     I_    0.795261 0.390089 0.077853 -0.305056
I3    I     I_    0.086369 0.647956 0.216588 -0.252742
I4    I     I_    0.929176 0.326120 0.761455 -0.278901
I5    I     I_    0.152564 0.124424 0.422019 -0.244218
I6    I     I_    0.872155 0.881823 0.642633 -0.287052
I7    I     I_    0.166543 0.022709 0.060700 -0.244955
I8    I     I_    0.831685 0.927100 0.999082 -0.335720
I9    I     I_    0.837125 0.238130 0.390088 -0.255463
I10   I     I_    0.166564 0.754992 0.617784 -0.200997
N3    N     N_2   0.563374 0.118828 0.257517 -0.380999
H7    H     H_    0.644787 0.097873 0.212973 0.296999
C33   C     C_3   0.461900 0.107532 0.163086 -0.653931
H8    H     H_    0.440101 0.010633 0.137771 0.232952
H9    H     H_    0.483416 0.154828 0.067462 0.209108
H10   H     H_    0.381317 0.148634 0.210242 0.250173
N4    N     N_2   0.422402 0.882284 0.739898 -0.370340
H11   H     H_    0.341294 0.919252 0.768908 0.290901
C34   C     C_3   0.502154 0.866977 0.856485 -0.618368
H12   H     H_    0.509583 0.950211 0.921200 0.205607
H13   H     H_    0.594335 0.842910 0.822456 0.236443
H14   H     H_    0.461660 0.796772 0.922612 0.243268
N5    N     N_2   0.613876 0.868681 0.287492 -0.440871
H15   H     H_    0.607104 0.899021 0.188819 0.262354
C35   C     C_3   0.736482 0.843706 0.329994 -0.557375
H16   H     H_    0.785581 0.799965 0.247199 0.232540
H17   H     H_    0.735369 0.779164 0.415505 0.221615
H18   H     H_    0.786622 0.929757 0.357971 0.276845
N6    N     N_2   0.492293 0.132185 0.752873 -0.434169
H19   H     H_    0.428573 0.108106 0.824311 0.246387
C36   C     C_3   0.614315 0.157048 0.805995 -0.529718
H20   H     H_    0.611304 0.215069 0.899952 0.226225
H21   H     H_    0.669935 0.206031 0.729540 0.266956
H22   H     H_    0.660056 0.071340 0.829340 0.248487

loop_
_geom_bond_atom_site_label_1
_geom_bond_atom_site_label_2
_geom_bond_distance
_ccdc_geom_bond_type
H2    C16   1.067806 S    
C26   C28   1.416389 A    
C33   H9    1.103075 S    
N5    C35   1.442065 S    
N5    H15   1.027920 S    
O7    Cu2   2.000070 S    
C5    I1    2.094603 S    
C36   H20   1.107267 S    
C24   N4    1.424849 S    
C6    I2    2.099668 S    
O5    C3    1.321735 A    
C13   I7    2.124333 S    
O1    C1    1.312382 A    
C7    C9    1.413852 A    
C12   C14   1.403617 A    
C26   N6    1.423633 S    
C34   H13   1.108601 S    
C30   C32   1.434428 A    
O4    Cu1   1.999600 S    
N3    C33   1.440481 S    
C17   I9    2.140736 S    
C18   I10   2.131904 S    
C19   C21   1.415121 A    
N3    H7    1.030397 S    
C7    I3    2.161920 S    
C33   H10   1.106943 S    
Cu1   Cu2   2.744661 S    
C29   H3    1.073561 S    
O2    C2    1.321954 A    
C30   H4    1.071658 S    
C36   H21   1.110552 S    
C31   H5    1.079509 S    
C32   H6    1.077473 S    
N4    H11   1.031042 S    
C5    C15   1.396111 A    
C6    C16   1.384664 A    
C8    I4    2.156106 S    
N6    C36   1.451409 S    
C9    C22   1.471796 S    
C17   C22   1.406865 A    
C33   H8    1.108662 S    
N4    C34   1.443533 S    
C20   C22   1.412393 A    
C34   H14   1.105436 S    
C35   H16   1.088210 S    
O7    C3    1.312852 A    
H1    C15   1.082403 S    
C31   N1    1.373037 A    
O6    C4    1.320956 A    
C23   N3    1.420263 S    
C14   I8    2.125005 S    
O3    Cu2   1.999600 S    
O8    C4    1.314559 A    
Cu1   N1    2.062593 S    
O4    C2    1.312300 A    
C8    C10   1.422312 A    
C3    C20   1.481191 S    
C9    C11   1.413642 A    
C4    C19   1.482289 S    
C10   C12   1.419524 A    
C1    C28   1.483581 S    
C13   C15   1.396294 A    
C29   N2    1.367695 A    
C36   H22   1.106592 S    
C10   C21   1.475385 S    
C25   N5    1.423265 S    
O6    Cu2   1.994631 S    
C18   C21   1.406825 A    
C23   C25   1.403925 A    
C24   C27   1.415606 A    
O3    C1    1.323803 A    
O8    Cu1   2.000069 S    
C11   I5    2.136547 S    
C12   I6    2.128732 S    
C32   N2    1.370682 A    
C14   C16   1.393424 A    
C24   C26   1.401070 A    
C23   C28   1.409787 A    
C17   C19   1.403900 A    
C18   C20   1.400247 A    
Cu2   N2    2.062593 S    
C5    C7    1.393878 A    
C6    C8    1.389211 A    
C11   C13   1.410033 A    
C34   H12   1.101937 S    
O2    Cu2   1.990918 S    
C35   H18   1.110886 S    
C30   N1    1.364536 A    
N6    H19   1.028975 S    
O5    Cu1   1.994632 S    
O1    Cu1   1.990918 S    
C25   C27   1.409852 A    
C35   H17   1.106709 S    
C29   C31   1.435089 A    
C2    C27   1.479814 S    
