data_mof_unit_48680.cif
_audit_creation_date              2012-12-11T15:43:03-0500
_audit_creation_method            fapswitch 2.2
_symmetry_space_group_name_H-M    P1
_symmetry_Int_Tables_number       1
_space_group_crystal_system       triclinic
_cell_length_a                    19.085611
_cell_length_b                    11.06295
_cell_length_c                    18.777372
_cell_angle_alpha                 90.017828
_cell_angle_beta                  89.615867
_cell_angle_gamma                 90.019547
_cell_volume                      3964.62414052

loop_
_atom_site_label
_atom_site_type_symbol
_atom_type_description
_atom_site_fract_x
_atom_site_fract_y
_atom_site_fract_z
_atom_type_partial_charge
C1    C     C_R   0.711848 0.330974 0.138472 0.539849
C2    C     C_R   0.943297 0.963137 0.054170 -0.120993
C3    C     C_R   0.748151 0.419123 0.575778 0.003384
C4    C     C_R   0.729053 0.377598 0.352770 0.551395
C5    C     C_R   0.271261 0.376380 0.646697 0.547844
C6    C     C_R   0.229056 0.877605 0.352766 0.551290
C7    C     C_R   0.771268 0.876360 0.646689 0.547836
C8    C     C_R   0.530616 0.156492 0.352320 0.552752
C9    C     C_R   0.462960 0.156587 0.643816 0.548464
C10   C     C_R   0.030617 0.656495 0.352322 0.552810
C11   C     C_R   0.962977 0.656588 0.643823 0.548458
C12   C     C_R   0.742056 0.970762 0.353885 0.550497
C13   C     C_R   0.455267 0.484720 0.982182 -0.133621
C14   C     C_R   0.258643 0.971460 0.645712 0.542025
C15   C     C_R   0.242053 0.470770 0.353889 0.550378
C16   C     C_R   0.758640 0.471451 0.645715 0.542029
C17   C     C_R   0.505758 0.173620 0.920870 0.006622
C18   C     C_R   0.510739 0.149942 0.069683 0.047675
C19   C     C_R   0.005753 0.673619 0.920874 0.006619
C20   C     C_R   0.010735 0.649933 0.069686 0.047587
C21   C     C_R   0.489034 0.273819 0.965189 -0.020608
C22   C     C_R   0.485582 0.257519 0.039605 0.003135
C23   C     C_R   0.989018 0.773810 0.965196 -0.020656
C24   C     C_R   0.443355 0.463180 0.054160 -0.121034
C25   C     C_R   0.985564 0.757501 0.039611 0.002837
C26   C     C_R   0.531156 0.051105 0.023802 -0.034968
C27   C     C_R   0.537154 0.071361 0.949999 -0.067811
C28   C     C_R   0.031156 0.551100 0.023803 -0.034935
C29   C     C_R   0.037153 0.571362 0.950001 -0.067801
C30   C     C_2   0.543382 0.924545 0.049089 0.247114
C31   C     C_2   0.574848 0.986762 0.900837 0.231546
C32   C     C_2   0.043383 0.424536 0.049086 0.247174
C33   C     C_2   0.074850 0.486771 0.900836 0.231548
C34   C     C_2   0.754761 0.677491 0.104924 0.256206
C35   C     C_R   0.748192 0.916548 0.923638 0.031343
C36   C     C_2   0.421922 0.811706 0.927938 0.176003
C37   C     C_2   0.254786 0.177653 0.104967 0.256327
C38   C     C_2   0.921922 0.311690 0.927937 0.176053
C39   C     C_R   0.221491 0.846349 0.061502 -0.002622
C40   C     C_R   0.248195 0.416539 0.923642 0.031277
C41   C     C_R   0.721496 0.346359 0.061505 -0.003002
C42   C     C_R   0.708377 0.841967 0.968490 0.036461
C43   C     C_R   0.286519 0.833979 0.028608 0.011213
C44   C     C_R   0.208373 0.341963 0.968491 0.036384
C45   C     C_R   0.270182 0.375051 0.854337 0.588723
C46   C     C_R   0.786528 0.334027 0.028612 0.011151
C47   C     C_R   0.705950 0.860726 0.040750 -0.059942
C48   C     C_R   0.296508 0.853654 0.956980 -0.016626
C49   C     C_R   0.205929 0.360730 0.040752 -0.060106
C50   C     C_R   0.796515 0.353684 0.956985 -0.016611
C51   C     C_R   0.776919 0.036776 0.026095 -0.166773
C52   C     C_R   0.173490 0.888184 0.943445 -0.110418
C53   C     C_R   0.276945 0.536734 0.026104 -0.166551
C54   C     C_R   0.673495 0.388186 0.943447 -0.110435
C55   C     C_R   0.778315 0.020559 0.952680 -0.150893
C56   C     C_R   0.211848 0.830975 0.138472 0.539996
C57   C     C_R   0.163577 0.865336 0.016745 -0.170747
C58   C     C_R   0.278334 0.520531 0.952689 -0.150821
C59   C     C_R   0.663583 0.365334 0.016746 -0.170840
C60   C     C_3   0.703267 0.707887 0.979255 0.459820
C61   C     C_3   0.359256 0.870853 0.046703 0.443336
C62   C     C_3   0.203275 0.207877 0.979258 0.460279
C63   C     C_3   0.859272 0.370876 0.046702 0.443242
C64   C     C_3   0.697234 0.730826 0.059962 -0.097116
C65   C     C_3   0.370995 0.893649 0.966248 -0.029865
C66   C     C_3   0.197240 0.230824 0.059964 -0.096838
C67   C     C_R   0.770181 0.875053 0.854336 0.588888
C68   C     C_3   0.871007 0.393657 0.966245 -0.029875
C69   C     C_R   0.744542 0.951997 0.071023 0.057516
C70   C     C_R   0.241778 0.894538 0.914552 0.066793
C71   C     C_R   0.244548 0.451971 0.071028 0.057383
C72   C     C_R   0.741783 0.394549 0.914554 0.066769
C73   C     C_R   0.534934 0.152094 0.144554 0.543125
C74   C     C_R   0.469234 0.157134 0.852371 0.576637
C75   C     C_R   0.034934 0.652092 0.144554 0.543215
C76   C     C_R   0.969234 0.657134 0.852372 0.576644
C77   C     C_R   0.476374 0.162845 0.567749 0.001821
C78   C     C_R   0.477632 0.391329 0.937886 -0.081153
C79   C     C_R   0.491787 0.161645 0.419308 0.004871
C80   C     C_R   0.976405 0.662849 0.567756 0.001829
C81   C     C_R   0.991787 0.661676 0.419309 0.004862
C82   C     C_R   0.471829 0.055549 0.529399 0.029739
C83   C     C_R   0.478955 0.054173 0.456772 0.019338
C84   C     C_R   0.971775 0.555578 0.529388 0.029800
C85   C     C_R   0.978875 0.554214 0.456757 0.019367
C86   C     C_R   0.480620 0.271389 0.455005 -0.127456
C87   C     C_R   0.474426 0.272314 0.529587 -0.136219
C88   C     C_R   0.980719 0.771431 0.455031 -0.127564
C89   C     C_R   0.457799 0.350654 0.082645 -0.037139
C90   C     C_R   0.974544 0.772340 0.529613 -0.136186
C91   C     C_3   0.511236 0.940801 0.539559 -0.267910
C92   C     C_3   0.519380 0.938119 0.459635 -0.264462
C93   C     C_3   0.011098 0.440733 0.539516 -0.267875
C94   C     C_3   0.019187 0.438038 0.459586 -0.264439
C95   C     C_R   0.759508 0.903810 0.572290 -0.009537
C96   C     C_R   0.240890 0.906921 0.426779 -0.010488
C97   C     C_R   0.259486 0.403882 0.572308 -0.009513
C98   C     C_R   0.740880 0.406890 0.426789 -0.010460
C99   C     C_R   0.816525 0.948851 0.533900 0.108006
C100  C     C_R   0.977603 0.891319 0.937897 -0.081129
C101  C     C_R   0.181184 0.929123 0.468139 0.098764
C102  C     C_R   0.316505 0.448909 0.533916 0.107919
C103  C     C_R   0.681170 0.429042 0.468155 0.098812
C104  C     C_R   0.815473 0.955239 0.460850 -0.011259
C105  C     C_R   0.183899 0.932902 0.541314 -0.022746
C106  C     C_R   0.315456 0.455283 0.460865 -0.011345
C107  C     C_R   0.683886 0.432815 0.541329 -0.022762
C108  C     C_R   0.703063 0.856059 0.460168 -0.178335
C109  C     C_R   0.307174 0.883817 0.535196 -0.170263
C110  C     C_R   0.203030 0.356155 0.460190 -0.178308
C111  C     C_R   0.957762 0.850616 0.082653 -0.037313
C112  C     C_R   0.807163 0.383784 0.535205 -0.170250
C113  C     C_R   0.703687 0.852225 0.534668 -0.180725
C114  C     C_R   0.303768 0.879049 0.460943 -0.185282
C115  C     C_R   0.203650 0.352340 0.534690 -0.180715
C116  C     C_R   0.803758 0.379023 0.460951 -0.185258
C117  C     C_3   0.851192 0.068963 0.541700 0.090325
C118  C     C_3   0.133322 0.035622 0.464441 0.104961
C119  C     C_3   0.351169 0.569026 0.541707 0.090317
C120  C     C_3   0.633254 0.535466 0.464463 0.105029
C121  C     C_R   0.740245 0.975727 0.145895 0.576848
C122  C     C_R   0.955215 0.984691 0.982194 -0.133607
C123  C     C_R   0.256890 0.964117 0.849911 0.599161
C124  C     C_R   0.240250 0.475707 0.145900 0.576074
C125  C     C_R   0.756891 0.464119 0.849911 0.599214
C126  C     C_3   0.852348 0.075034 0.461350 -0.234205
C127  C     C_3   0.132022 0.034534 0.544660 -0.186501
C128  C     C_3   0.352327 0.575079 0.461357 -0.234191
C129  C     C_3   0.631955 0.534363 0.544685 -0.186526
C130  C     C_R   0.756092 0.917840 0.423125 0.005855
C131  C     C_R   0.248159 0.919160 0.575767 0.003377
C132  C     C_R   0.256075 0.417883 0.423140 0.005819
Cr1   Cr    Cr6+3 0.772010 0.169670 0.250090 1.041053
Cr2   Cr    Cr6+3 0.383290 0.010760 0.749160 1.087698
Cr3   Cr    Cr6+3 0.116710 0.510760 0.250840 1.050818
Cr4   Cr    Cr6+3 0.883290 0.510760 0.749160 1.087703
Cr5   Cr    Cr6+3 0.227990 0.169670 0.749910 1.077026
Cr6   Cr    Cr6+3 0.272010 0.669670 0.250090 1.040962
Cr7   Cr    Cr6+3 0.727990 0.669670 0.749910 1.077089
Cr8   Cr    Cr6+3 0.615000 0.323260 0.249260 1.009013
Cr9   Cr    Cr6+3 0.385000 0.323260 0.750740 1.062195
Cr10  Cr    Cr6+3 0.115000 0.823260 0.249260 1.008959
Cr11  Cr    Cr6+3 0.885000 0.823260 0.750740 1.062232
Cr12  Cr    Cr6+3 0.616710 0.010760 0.250840 1.050923
H1    H     H_    0.481504 0.355282 0.425967 0.196840
H2    H     H_    0.491240 0.861780 0.434005 0.136858
H3    H     H_    0.061266 0.454767 0.568078 0.146506
H4    H     H_    0.990954 0.361783 0.433975 0.136826
H5    H     H_    0.658525 0.820323 0.432007 0.119807
H6    H     H_    0.357245 0.869292 0.560201 0.139090
H7    H     H_    0.158493 0.320420 0.432031 0.119800
H8    H     H_    0.857230 0.369262 0.560211 0.139070
H9    H     H_    0.659787 0.813245 0.562893 0.126004
H10   H     H_    0.350111 0.855292 0.430423 0.129587
H11   H     H_    0.159743 0.313393 0.562919 0.125970
H12   H     H_    0.470695 0.357429 0.557269 0.213246
H13   H     H_    0.850102 0.355280 0.430430 0.129564
H14   H     H_    0.817387 0.137173 0.568738 0.124929
H15   H     H_    0.158803 0.116409 0.440532 0.101369
H16   H     H_    0.317360 0.637237 0.568739 0.124959
H17   H     H_    0.658690 0.616302 0.440561 0.101341
H18   H     H_    0.819041 0.148625 0.440810 0.139968
H19   H     H_    0.153347 0.118582 0.567177 0.128222
H20   H     H_    0.319018 0.648658 0.440809 0.140017
H21   H     H_    0.653229 0.618445 0.567210 0.128186
H22   H     H_    0.905689 0.069641 0.437323 0.172461
H23   H     H_    0.981680 0.855339 0.426011 0.196973
H24   H     H_    0.081157 0.005343 0.568277 0.183275
H25   H     H_    0.405670 0.569686 0.437332 0.172389
H26   H     H_    0.581107 0.505078 0.568299 0.183313
H27   H     H_    0.489312 0.414514 0.883219 0.156251
H28   H     H_    0.446904 0.337334 0.138715 0.162477
H29   H     H_    0.989287 0.914517 0.883234 0.156259
H30   H     H_    0.946871 0.837284 0.138723 0.162678
H31   H     H_    0.946615 0.073286 0.960134 0.134200
H32   H     H_    0.924111 0.033206 0.089097 0.151602
H33   H     H_    0.446684 0.573317 0.960119 0.134208
H34   H     H_    0.970899 0.857457 0.557309 0.213188
H35   H     H_    0.424191 0.533263 0.089089 0.151548
H36   H     H_    0.803680 0.112242 0.048519 0.145089
H37   H     H_    0.128793 0.913142 0.911489 0.143111
H38   H     H_    0.303723 0.612181 0.048529 0.145118
H39   H     H_    0.628798 0.413135 0.911490 0.143108
H40   H     H_    0.808158 0.082860 0.919924 0.172172
H41   H     H_    0.111489 0.870919 0.039228 0.137075
H42   H     H_    0.308185 0.582825 0.919937 0.172151
H43   H     H_    0.611494 0.370905 0.039228 0.137088
H44   H     H_    0.644357 0.713385 0.082928 0.090531
H45   H     H_    0.977993 0.366285 0.560567 0.131562
H46   H     H_    0.379085 0.990621 0.953092 0.159438
H47   H     H_    0.144364 0.213335 0.082923 0.090275
H48   H     H_    0.879105 0.490624 0.953083 0.159328
H49   H     H_    0.575802 0.863574 0.019488 0.071203
H50   H     H_    0.574499 0.890035 0.908336 0.126215
H51   H     H_    0.075789 0.363558 0.019474 0.071208
H52   H     H_    0.074496 0.390042 0.908326 0.126197
H53   H     H_    0.937674 0.142317 0.570990 0.318597
H54   H     H_    0.067423 0.041289 0.387044 0.332527
H55   H     H_    0.437646 0.642398 0.570999 0.318587
H56   H     H_    0.074123 0.450998 0.442632 0.169324
H57   H     H_    0.567322 0.541150 0.387096 0.332473
H58   H     H_    0.305859 0.193233 0.969485 0.327563
H59   H     H_    0.902715 0.210884 0.043838 0.278394
H60   H     H_    0.805857 0.693132 0.969659 0.327309
H61   H     H_    0.402734 0.710892 0.043831 0.278386
H62   H     H_    0.620895 0.603857 0.981291 0.307479
H63   H     H_    0.356258 0.956230 0.136981 0.373713
H64   H     H_    0.120901 0.103848 0.981300 0.307502
H65   H     H_    0.856311 0.456264 0.136975 0.373766
H66   H     H_    0.745038 0.593709 0.132898 0.156180
H67   H     H_    0.478161 0.866290 0.560587 0.131597
H68   H     H_    0.472845 0.794049 0.950460 0.104841
H69   H     H_    0.244890 0.094493 0.133535 0.155561
H70   H     H_    0.972845 0.294018 0.950457 0.104851
H71   H     H_    0.574314 0.951267 0.442713 0.169320
H72   H     H_    0.561375 0.954948 0.568156 0.146550
O1    O     O_R   0.787520 0.042810 0.170440 -0.518470
O2    O     O_R   0.454050 0.051210 0.669140 -0.507162
O3    O     O_R   0.045950 0.551210 0.330860 -0.519711
O4    O     O_R   0.954050 0.551210 0.669140 -0.507168
O5    O     O_R   0.681390 0.959480 0.325510 -0.509329
O6    O     O_R   0.318610 0.959480 0.674490 -0.508586
O7    O     O_R   0.181390 0.459480 0.325510 -0.509364
O8    O     O_R   0.818610 0.459480 0.674490 -0.508592
O9    O     O_3   0.667900 0.167900 0.250060 -0.286336
O10   O     O_3   0.332100 0.167900 0.749940 -0.281953
O11   O     O_3   0.167900 0.667900 0.250060 -0.286250
O12   O     O_R   0.212480 0.042810 0.829560 -0.455664
O13   O     O_3   0.832100 0.667900 0.749940 -0.281928
O14   O     O_R   0.765640 0.292100 0.175020 -0.480429
O15   O     O_R   0.234360 0.292100 0.824980 -0.443698
O16   O     O_R   0.265640 0.792100 0.175020 -0.480467
O17   O     O_R   0.734360 0.792100 0.824980 -0.443607
O18   O     O_R   0.670190 0.408840 0.168540 -0.536803
O19   O     O_R   0.329810 0.408840 0.831460 -0.520506
O20   O     O_R   0.170190 0.908840 0.168540 -0.536822
O21   O     O_R   0.829810 0.908840 0.831460 -0.520526
O22   O     O_R   0.556620 0.251410 0.175160 -0.545590
O23   O     O_R   0.287520 0.542810 0.170440 -0.518502
O24   O     O_R   0.443380 0.251410 0.824840 -0.524608
O25   O     O_R   0.056620 0.751410 0.175160 -0.545548
O26   O     O_R   0.943380 0.751410 0.824840 -0.524592
O27   O     O_R   0.545960 0.049620 0.170320 -0.440518
O28   O     O_R   0.454040 0.049620 0.829680 -0.475467
O29   O     O_R   0.045960 0.549620 0.170320 -0.440475
O30   O     O_R   0.954040 0.549620 0.829680 -0.475492
O31   O     O_R   0.681390 0.958010 0.176690 -0.504017
O32   O     O_R   0.318610 0.958010 0.823310 -0.472471
O33   O     O_R   0.181390 0.458010 0.176690 -0.504135
O34   O     O_R   0.712480 0.542810 0.829560 -0.455617
O35   O     O_R   0.818610 0.458010 0.823310 -0.472465
O36   O     O_R   0.787510 0.044390 0.330970 -0.522528
O37   O     O_R   0.212490 0.044390 0.669030 -0.535485
O38   O     O_R   0.287510 0.544390 0.330970 -0.522553
O39   O     O_R   0.712490 0.544390 0.669030 -0.535490
O40   O     O_R   0.765630 0.293570 0.323840 -0.503854
O41   O     O_R   0.234370 0.293570 0.676160 -0.512965
O42   O     O_R   0.265630 0.793570 0.323840 -0.503842
O43   O     O_R   0.734370 0.793570 0.676160 -0.512973
O44   O     O_R   0.670190 0.410420 0.329080 -0.505878
O45   O     O_R   0.556610 0.252880 0.323980 -0.489001
O46   O     O_R   0.329810 0.410420 0.670920 -0.472146
O47   O     O_R   0.170190 0.910420 0.329080 -0.506006
O48   O     O_R   0.829810 0.910420 0.670920 -0.472140
O49   O     O_2   0.512064 0.881080 0.099558 -0.411483
O50   O     O_2   0.606807 0.026353 0.849301 -0.497375
O51   O     O_2   0.012078 0.381071 0.099564 -0.411463
O52   O     O_2   0.106817 0.526373 0.849308 -0.497373
O53   O     O_3   0.918323 0.059094 0.570590 -0.694935
O54   O     O_3   0.068002 0.007180 0.435881 -0.715095
O55   O     O_3   0.418299 0.559172 0.570601 -0.694961
O56   O     O_R   0.443390 0.252880 0.676020 -0.499837
O57   O     O_3   0.567952 0.506911 0.435900 -0.714995
O58   O     O_3   0.263756 0.144496 0.957817 -0.659695
O59   O     O_3   0.896720 0.276301 0.078853 -0.641881
O60   O     O_3   0.763753 0.644530 0.957800 -0.660033
O61   O     O_3   0.396711 0.776290 0.078855 -0.641971
O62   O     O_3   0.642130 0.662638 0.947719 -0.669793
O63   O     O_3   0.362387 0.978312 0.086147 -0.634278
O64   O     O_3   0.142137 0.162621 0.947724 -0.669881
O65   O     O_3   0.862427 0.478341 0.086139 -0.635015
O66   O     O_2   0.812093 0.725611 0.110011 -0.508879
O67   O     O_R   0.056610 0.752880 0.323980 -0.489057
O68   O     O_2   0.407119 0.765973 0.870786 -0.500137
O69   O     O_2   0.312326 0.225222 0.109433 -0.508594
O70   O     O_2   0.907112 0.265953 0.870788 -0.500167
O71   O     O_R   0.943390 0.752880 0.676020 -0.499809
O72   O     O_R   0.545950 0.051210 0.330860 -0.519735

loop_
_geom_bond_atom_site_label_1
_geom_bond_atom_site_label_2
_ccdc_geom_bond_type
C9    O2    A    
C58   H42   S    
C7    O43   A    
C107  C129  S    
Cr10  O11   S    
C105  C131  A    
C106  C132  A    
C12   C130  S    
Cr1   O9    S    
Cr5   O12   S    
C95   C99   A    
C29   C33   S    
C35   C42   A    
C50   C72   A    
C15   C132  S    
C48   C65   S    
C97   C115  A    
C117  C126  S    
C57   H41   S    
C74   O28   A    
C119  C128  S    
C4    O44   A    
C21   C22   A    
C31   O50   D    
C96   C114  A    
C38   H70   S    
Cr2   O32   S    
C2    C111  A    
C40   C58   A    
C27   C31   S    
C28   C32   S    
C37   O69   D    
C47   C64   S    
C124  O23   A    
C105  C127  S    
C20   C28   A    
C17   C21   A    
C82   C91   S    
C108  C113  A    
C19   C23   A    
C75   O25   A    
C39   C56   S    
C3    C112  A    
Cr11  O26   S    
C9    C77   S    
Cr1   O36   S    
C41   C59   A    
C36   H68   S    
C63   O59   S    
C9    O56   A    
C34   O66   D    
C16   O8    A    
Cr10  O47   S    
H53   O53   S    
C53   C71   A    
C86   H1    S    
C119  O55   S    
C43   C61   S    
H55   O55   S    
C28   C29   A    
Cr8   O44   S    
C48   C70   A    
C117  O53   S    
C53   C58   A    
Cr5   O41   S    
Cr3   O7    S    
Cr4   O13   S    
C72   C125  S    
C60   C64   S    
C3    C107  A    
Cr6   O16   S    
C11   O71   A    
C77   C82   A    
C22   C89   A    
C51   C55   A    
C84   C93   S    
C74   O24   A    
Cr1   O1    S    
C81   C88   A    
C8    O72   A    
C61   C65   S    
C49   C71   A    
H61   O61   S    
C54   H39   S    
C103  C107  A    
Cr11  O48   S    
C51   C69   A    
C114  H10   S    
C102  C119  S    
H57   O57   S    
H59   O59   S    
Cr6   O42   S    
Cr11  O21   S    
C124  O33   A    
Cr3   O11   S    
C101  C118  S    
C16   O39   A    
C30   H49   S    
C128  H20   S    
H65   O65   S    
C92   H71   S    
C62   O58   S    
Cr9   O56   S    
Cr1   O14   S    
C47   C69   A    
C34   H66   S    
C33   H52   S    
Cr2   O6    S    
Cr7   O17   S    
C55   H40   S    
C59   H43   S    
C108  C130  A    
C23   C100  A    
C128  H25   S    
C66   H47   S    
C34   C64   S    
C10   O3    A    
C54   C59   A    
C94   H4    S    
C49   C66   S    
C62   C66   S    
C33   O52   D    
C92   H2    S    
C120  C129  S    
C17   C27   A    
C129  H26   S    
C125  O35   A    
C91   H67   S    
C52   C57   A    
C91   C92   S    
C20   C75   S    
C99   C117  S    
Cr4   O8    S    
C35   C67   S    
Cr9   O19   S    
C5    O41   A    
Cr4   O30   S    
Cr6   O23   S    
Cr7   O13   S    
C30   O49   D    
Cr2   O28   S    
Cr12  O5    S    
C64   H44   S    
C109  C114  A    
C5    C97   S    
C26   C30   S    
C18   C73   S    
Cr12  O9    S    
C118  C127  S    
C4    O40   A    
C112  C116  A    
C38   O70   D    
Cr9   O10   S    
C63   C68   S    
C60   O60   S    
C117  H14   S    
C18   C22   A    
C61   O61   S    
C93   H45   S    
C46   C63   S    
C109  H6    S    
C73   O22   A    
C53   H38   S    
Cr6   O11   S    
H54   O54   S    
C25   C111  A    
C40   C44   A    
H60   O60   S    
Cr12  O31   S    
C87   H12   S    
C56   O20   A    
C60   O62   S    
C8    O45   A    
C81   C85   A    
C3    C16   S    
C118  O54   S    
C90   H34   S    
Cr11  O71   S    
Cr12  O72   S    
C111  H30   S    
Cr3   O29   S    
C103  C120  S    
C18   C26   A    
C80   C84   A    
C26   C27   A    
C19   C76   S    
C123  O32   A    
C20   C25   A    
C98   C103  A    
C106  C128  S    
H62   O62   S    
C32   O51   D    
C13   C78   A    
C1    O14   A    
H58   O58   S    
C127  H24   S    
Cr7   O43   S    
C21   C78   A    
C109  C131  A    
C8    C79   S    
C112  H8    S    
C110  C132  A    
C97   C102  A    
C99   C104  A    
C104  C130  A    
C96   C101  A    
Cr8   O18   S    
C61   O63   S    
C118  H15   S    
C121  O1    A    
Cr3   O33   S    
C32   H51   S    
C37   H69   S    
C14   C131  S    
C2    C122  A    
C40   C45   S    
C84   C85   A    
C110  H7    S    
C113  H9    S    
C36   C65   S    
C123  O12   A    
Cr2   O2    S    
C67   O21   A    
C10   O67   A    
Cr7   O39   S    
C91   H72   S    
Cr10  O67   S    
C1    O18   A    
C88   H23   S    
C52   H37   S    
C88   C90   A    
Cr9   O24   S    
C5    O46   A    
Cr7   O34   S    
C19   C29   A    
C127  H19   S    
C86   C87   A    
C45   O19   A    
C126  H22   S    
Cr4   O4    S    
C10   C81   S    
C12   O36   A    
C129  H21   S    
C6    O42   A    
C79   C83   A    
C13   H33   S    
C78   H27   S    
C94   H56   S    
C15   O7    A    
C11   C80   S    
C121  O31   A    
C65   H46   S    
C82   C83   A    
Cr6   O38   S    
C50   C68   S    
C110  C115  A    
C79   C86   A    
C44   C49   A    
C93   C94   S    
C4    C98   S    
Cr9   O46   S    
C76   O26   A    
Cr5   O15   S    
C24   C89   A    
C120  O57   S    
C83   C92   S    
Cr8   O9    S    
Cr2   O10   S    
C125  O34   A    
C68   H48   S    
C122  H31   S    
C39   C57   A    
Cr12  O27   S    
C56   O16   A    
C2    H32   S    
C70   C123  S    
C119  H16   S    
C41   C46   A    
Cr4   O35   S    
C102  C106  A    
C6    O47   A    
C43   C48   A    
C75   O29   A    
Cr10  O20   S    
C62   O64   S    
Cr1   O40   S    
C101  C105  A    
C35   C55   A    
C71   C124  S    
C36   O68   D    
C42   C60   S    
C39   C43   A    
C44   C62   S    
Cr11  O13   S    
C13   C24   A    
Cr5   O10   S    
C85   C94   S    
C98   C116  A    
C73   O27   A    
C69   C121  S    
Cr3   O3    S    
C37   C66   S    
C24   H35   S    
Cr8   O22   S    
C54   C72   A    
C7    O48   A    
C77   C87   A    
C120  H17   S    
C6    C96   S    
Cr8   O45   S    
C17   C74   S    
C51   H36   S    
C63   O65   S    
H63   O63   S    
C1    C41   S    
H64   O64   S    
C67   O17   A    
C115  H11   S    
C14   O6    A    
C76   O30   A    
C89   H28   S    
C38   C68   S    
C31   H50   S    
Cr10  O25   S    
C7    C95   S    
C46   C50   A    
C116  H13   S    
C14   O37   A    
C95   C113  A    
C93   H3    S    
C100  C122  A    
C42   C47   A    
C23   C25   A    
C80   C90   A    
C12   O5    A    
C52   C70   A    
C108  H5    S    
C104  C126  S    
C100  H29   S    
C45   O15   A    
C126  H18   S    
C11   O4    A    
Cr5   O37   S    
C15   O38   A    
