data_mof_unit_27367.cif
_audit_creation_date              2012-12-10T17:12:36-0500
_audit_creation_method            fapswitch 2.2
_symmetry_space_group_name_H-M    P1
_symmetry_Int_Tables_number       1
_space_group_crystal_system       triclinic
_cell_length_a                    23.41235
_cell_length_b                    10.686862
_cell_length_c                    10.009414
_cell_angle_alpha                 91.342143
_cell_angle_beta                  89.367537
_cell_angle_gamma                 89.979612
_cell_volume                      2503.56087283

loop_
_atom_site_label
_atom_site_type_symbol
_atom_type_description
_atom_site_fract_x
_atom_site_fract_y
_atom_site_fract_z
_atom_type_partial_charge
C1    C     C_R   0.500241 0.262303 0.497982 0.913921
C2    C     C_R   0.119452 0.617319 0.538141 0.572800
C3    C     C_R   0.239253 0.562656 0.400557 0.544218
C4    C     C_R   0.389420 0.497240 0.500660 0.919834
C5    C     C_R   0.298645 0.558768 0.401796 -0.359307
C6    C     C_R   0.327198 0.494746 0.501789 -0.300378
C7    C     C_R   0.295736 0.433350 0.602743 0.332353
C8    C     C_R   0.236361 0.446074 0.607215 0.494692
C9    C     C_R   0.208385 0.508173 0.504653 0.003652
C10   C     C_R   0.761766 0.453142 0.600428 -0.102700
C11   C     C_R   0.702581 0.449231 0.599703 -0.260114
C12   C     C_R   0.968950 0.294988 0.424497 -0.250575
C13   C     C_R   0.672522 0.508863 0.498927 -0.149651
C14   C     C_R   0.702109 0.577276 0.401197 0.493540
C15   C     C_R   0.761611 0.578822 0.401505 -0.206037
C16   C     C_R   0.505104 0.737306 0.501533 0.826647
C17   C     C_R   0.791173 0.516890 0.500772 0.246870
C18   C     C_2   0.519990 0.930110 0.390529 -0.355069
C19   C     C_2   0.521728 0.867380 0.504582 0.235015
C20   C     C_2   0.525353 0.065270 0.391929 0.518781
C21   C     C_2   0.498941 0.129579 0.491411 -0.272754
C22   C     C_2   0.540923 0.546645 0.925704 0.398364
C23   C     C_R   0.028617 0.290842 0.427319 0.533963
C24   C     C_2   0.545534 0.512206 0.072030 0.397010
C25   C     C_R   0.610529 0.501996 0.499408 0.905076
C26   C     C_R   0.880490 0.623119 0.535061 0.511101
C27   C     C_R   0.879786 0.408559 0.461745 0.546682
C28   C     C_R   0.939404 0.404584 0.461470 -0.095305
C29   C     C_R   0.969785 0.513079 0.499183 -0.016083
C30   C     C_R   0.940158 0.623826 0.535844 0.005209
C31   C     C_3   0.664876 0.764762 0.347199 -0.247486
C32   C     C_3   0.593308 0.727712 0.935136 -0.278947
C33   C     C_3   0.629989 0.405915 0.065135 -0.178284
C34   C     C_R   0.059589 0.400213 0.462943 -0.159010
C35   C     C_3   0.052551 0.094715 0.489671 -0.186457
C36   C     C_3   0.210844 0.552084 0.184659 -0.290105
C37   C     C_3   0.200446 0.467243 0.817441 -0.252608
C38   C     C_R   0.029827 0.511147 0.499813 -0.084891
C39   C     C_R   0.059924 0.620574 0.537374 0.001177
C40   C     C_R   0.030017 0.730262 0.573664 -0.169292
C41   C     C_R   0.970644 0.731930 0.572768 -0.158865
C42   C     C_R   0.119519 0.402766 0.464171 0.600840
H1    H     H_    0.945959 0.211589 0.393107 0.207031
H2    H     H_    0.322403 0.606799 0.324884 0.203477
H3    H     H_    0.784932 0.405647 0.677405 0.154076
H4    H     H_    0.706318 0.814905 0.357140 0.173791
H5    H     H_    0.640511 0.770125 0.443343 0.154693
H6    H     H_    0.639355 0.813615 0.271580 0.177805
H7    H     H_    0.544016 0.863735 0.692719 0.356063
H8    H     H_    0.570862 0.060383 0.228900 0.318949
H9    H     H_    0.618645 0.711995 0.026296 0.219455
H10   H     H_    0.552651 0.777359 0.961015 0.131623
H11   H     H_    0.618775 0.790316 0.870756 0.191748
H12   H     H_    0.680295 0.397963 0.676495 0.181368
H13   H     H_    0.605318 0.316775 0.061095 0.144385
H14   H     H_    0.643948 0.432564 0.963228 0.166521
H15   H     H_    0.669075 0.388679 0.123623 0.195235
H16   H     H_    0.069949 0.133747 0.585042 0.171363
H17   H     H_    0.078677 0.011623 0.460680 0.214644
H18   H     H_    0.007857 0.062250 0.504683 0.125754
H19   H     H_    0.190256 0.459726 0.201279 0.183178
H20   H     H_    0.254811 0.538948 0.143377 0.160870
H21   H     H_    0.185537 0.600689 0.108488 0.191934
H22   H     H_    0.356245 0.321940 0.657099 0.337488
H23   H     H_    0.784863 0.628162 0.324826 0.162852
H24   H     H_    0.178124 0.555759 0.793459 0.161000
H25   H     H_    0.243141 0.487989 0.860476 0.183404
H26   H     H_    0.174714 0.420164 0.895225 0.187932
H27   H     H_    0.510488 0.884378 0.295222 0.142949
H28   H     H_    0.474548 0.083863 0.569298 0.148796
H29   H     H_    0.472118 0.441887 0.897359 0.109864
H30   H     H_    0.461873 0.518553 0.104180 0.098936
H31   H     H_    0.052363 0.815060 0.603085 0.175788
H32   H     H_    0.948779 0.817996 0.601242 0.186919
N1    N     N_R   0.851907 0.516407 0.498865 -0.345935
N2    N     N_R   0.147583 0.509651 0.502309 -0.320383
N3    N     N_2   0.500610 0.501330 0.852150 -0.228708
N4    N     N_2   0.500630 0.501360 0.147810 -0.227611
O1    O     O_R   0.499990 0.319060 0.613040 -0.629434
O2    O     O_R   0.583840 0.500020 0.613040 -0.579711
O3    O     O_R   0.583850 0.500060 0.386900 -0.510346
O4    O     O_2   0.851135 0.727528 0.571032 -0.556037
O5    O     O_3   0.673278 0.639770 0.303207 -0.571890
O6    O     O_3   0.542817 0.924640 0.619869 -0.779756
O7    O     O_3   0.554562 0.125148 0.290891 -0.752985
O8    O     O_3   0.583782 0.614413 0.863730 -0.561555
O9    O     O_3   0.598740 0.503115 0.129536 -0.525050
O10   O     O_3   0.056338 0.181965 0.386330 -0.557141
O11   O     O_3   0.210970 0.626674 0.302718 -0.563827
O12   O     O_2   0.849726 0.305822 0.425059 -0.551032
O13   O     O_3   0.320831 0.358579 0.696261 -0.714919
O14   O     O_3   0.204846 0.386463 0.704435 -0.549245
O15   O     O_2   0.149939 0.300083 0.427492 -0.488533
O16   O     O_2   0.149215 0.720450 0.574856 -0.549951
O17   O     O_R   0.500010 0.319100 0.386900 -0.551946
O18   O     O_R   0.416150 0.499940 0.613100 -0.602311
O19   O     O_R   0.416160 0.499980 0.386960 -0.619986
O20   O     O_R   0.499990 0.680900 0.613100 -0.595867
O21   O     O_R   0.500010 0.680940 0.386960 -0.629479
Zn1   Zn    Zn3+2 0.499990 0.499970 0.650990 0.996926
Zn2   Zn    Zn3+2 0.500010 0.500030 0.349010 1.018998

loop_
_geom_bond_atom_site_label_1
_geom_bond_atom_site_label_2
_ccdc_geom_bond_type
C36   O11   S    
C33   H13   S    
C1    C21   S    
C25   O2    A    
C34   C42   A    
C7    C8    A    
O3    Zn2   S    
C12   C23   A    
C12   C28   A    
C35   H16   S    
H7    O6    S    
C28   C29   A    
C12   H1    S    
C38   C39   A    
C27   N1    A    
C10   C17   A    
C42   O15   S    
C37   H26   S    
C37   H25   S    
C19   O6    S    
C31   O5    S    
C40   H31   S    
C27   O12   S    
C35   H17   S    
C18   C19   D    
C32   H10   S    
H30   N4    S    
H8    O7    S    
C41   H32   S    
C4    O18   A    
C2    C39   A    
C8    C9    A    
C31   H4    S    
C29   C38   A    
C30   C41   A    
C8    O14   S    
C9    N2    S    
C36   H21   S    
C33   H14   S    
C32   O8    S    
C26   O4    S    
C31   H5    S    
C13   C14   A    
O2    Zn1   S    
N4    Zn2   S    
C25   O3    A    
C13   C25   S    
C14   O5    S    
C36   H20   S    
O1    Zn1   S    
C2    O16   S    
C4    C6    S    
C39   C40   A    
C35   H18   S    
C32   H9    S    
C29   C30   A    
C3    C9    A    
C35   O10   S    
C1    O17   A    
C23   C34   A    
C7    O13   S    
C20   O7    S    
C10   H3    S    
C26   N1    A    
C11   H12   S    
C24   N4    D    
C40   C41   A    
O21   Zn2   S    
C5    H2    S    
C26   C30   A    
O20   Zn1   S    
C23   O10   S    
C1    O1    A    
C22   C24   S    
C36   H19   S    
C32   H11   S    
H29   N3    S    
C2    N2    A    
C15   C17   A    
C33   H15   S    
C37   O14   S    
C34   C38   A    
C22   N3    D    
C3    C5    A    
C16   O21   A    
C6    C7    A    
N3    Zn1   S    
C42   N2    A    
C3    O11   S    
C21   H28   S    
C31   H6    S    
C33   O9    S    
C11   C13   A    
C16   O20   A    
C5    C6    A    
C18   H27   S    
C16   C19   S    
O18   Zn1   S    
C18   C20   S    
C22   O8    S    
C37   H24   S    
C24   O9    S    
C10   C11   A    
C20   C21   D    
C27   C28   A    
C17   N1    S    
C14   C15   A    
H22   O13   S    
C4    O19   A    
O19   Zn2   S    
O17   Zn2   S    
C15   H23   S    
