data_mof_unit_10834.cif
_audit_creation_date              2012-10-26T21:02:38-0400
_audit_creation_method            fapswitch 2.2
_symmetry_space_group_name_H-M    P1
_symmetry_Int_Tables_number       1
_space_group_crystal_system       triclinic
_cell_length_a                    12.316613
_cell_length_b                    13.176118
_cell_length_c                    15.064491
_cell_angle_alpha                 77.472395
_cell_angle_beta                  101.347586
_cell_angle_gamma                 116.578588
_cell_volume                      2120.36603839

loop_
_atom_site_label
_atom_site_type_symbol
_atom_type_description
_atom_site_fract_x
_atom_site_fract_y
_atom_site_fract_z
_atom_type_partial_charge
C1    C     C_R   0.854843 0.286246 0.509047 0.557191
C2    C     C_R   0.092588 0.485364 0.832211 -0.131488
C3    C     C_R   0.998708 0.498861 0.768169 -0.009048
C4    C     C_R   0.999424 0.499555 0.671225 0.551705
C5    C     C_R   0.904463 0.511517 0.797036 -0.138080
C6    C     C_R   0.276879 0.020742 0.375025 -0.126671
C7    C     C_R   0.227811 0.834656 0.467190 -0.000489
C8    C     C_R   0.814134 0.083827 0.573106 0.370271
C9    C     C_R   0.734296 0.969160 0.591142 -0.094328
C10   C     C_R   0.611615 0.931942 0.557371 -0.186770
C11   C     C_R   0.566156 0.008882 0.501209 0.016704
C12   C     C_R   0.904372 0.511416 0.075513 0.011653
C13   C     C_R   0.650526 0.122878 0.473579 -0.029942
C14   C     C_R   0.439861 0.975888 0.470543 0.043546
C15   C     C_R   0.401310 0.052680 0.406035 0.053218
C16   C     C_R   0.145040 0.713468 0.486382 0.547433
C17   C     C_R   0.487512 0.159231 0.371427 -0.130833
C18   C     C_R   0.610345 0.193214 0.403535 -0.116073
C19   C     C_R   0.350297 0.868843 0.502632 -0.130113
C20   C     C_R   0.190433 0.911691 0.404932 -0.128385
C21   C     C_R   0.773115 0.162681 0.515966 -0.000191
C22   C     C_R   0.347817 0.329457 0.646852 -0.142457
C23   C     C_R   0.187469 0.472162 0.081480 -0.133542
C24   C     C_R   0.758950 0.645065 0.375580 0.048717
C25   C     C_R   0.662097 0.676515 0.348623 -0.159971
C26   C     C_R   0.558889 0.621844 0.395373 -0.137900
C27   C     C_R   0.551271 0.534471 0.470257 -0.004923
C28   C     C_R   0.000225 0.499936 0.328810 0.540848
C29   C     C_R   0.653152 0.505308 0.495496 0.181105
C30   C     C_R   0.447103 0.475238 0.521091 -0.013162
C31   C     C_R   0.447495 0.388743 0.595699 0.033231
C32   C     C_R   0.547380 0.361831 0.619152 -0.175667
C33   C     C_R   0.647694 0.418767 0.570353 -0.100814
C34   C     C_R   0.187156 0.472033 0.988928 -0.132187
C35   C     C_R   0.341743 0.497581 0.501663 0.036123
C36   C     C_R   0.247562 0.355732 0.624341 0.065745
C37   C     C_R   0.905583 0.511891 0.168039 -0.140664
C38   C     C_R   0.999962 0.499195 0.231976 -0.011919
C39   C     C_R   0.093717 0.485759 0.203142 -0.136430
C40   C     C_R   0.093891 0.485229 0.110791 0.011883
C41   C     C_R   0.998922 0.498169 0.046682 0.062338
C42   C     C_R   0.093278 0.484995 0.924794 0.012301
C43   C     C_R   0.998612 0.498055 0.953625 0.062154
C44   C     C_R   0.903759 0.511181 0.889481 0.013126
C45   C     C_R   0.809992 0.523919 0.918830 -0.131100
C46   C     C_R   0.810311 0.524057 0.011398 -0.133183
Cu1   Cu    Cu3+1 0.098270 0.475420 0.521130 0.969245
Cu2   Cu    Cu3+1 0.901730 0.524580 0.478870 0.916350
F1    F     F_    0.930911 0.117590 0.614018 -0.636001
H1    H     H_    0.832743 0.521955 0.190106 0.124512
H2    H     H_    0.347551 0.263245 0.703991 0.104152
H3    H     H_    0.166853 0.476126 0.252367 0.125935
H4    H     H_    0.333411 0.561637 0.446159 0.117246
H5    H     H_    0.838673 0.688057 0.338924 0.124316
H6    H     H_    0.486761 0.649713 0.371564 0.099695
H7    H     H_    0.667050 0.743561 0.291275 0.105313
H8    H     H_    0.719203 0.391806 0.594300 0.184481
H9    H     H_    0.260847 0.462168 0.130088 0.107193
H10   H     H_    0.260316 0.461941 0.967482 0.107343
H11   H     H_    0.165613 0.475580 0.810161 0.127447
H12   H     H_    0.459937 0.216721 0.319161 0.105256
H13   H     H_    0.831538 0.521484 0.747757 0.128058
H14   H     H_    0.736621 0.533916 0.870213 0.110524
H15   H     H_    0.737165 0.534170 0.032845 0.106497
H16   H     H_    0.095629 0.886080 0.376590 0.125535
H17   H     H_    0.246963 0.078888 0.325573 0.110624
H18   H     H_    0.373139 0.809021 0.554709 0.120313
H19   H     H_    0.555623 0.841730 0.574864 0.112407
H20   H     H_    0.766990 0.908920 0.634208 0.146030
H21   H     H_    0.673224 0.274180 0.370613 0.150302
H22   H     H_    0.170368 0.310371 0.663592 0.169805
H23   H     H_    0.548290 0.295846 0.676251 0.114231
N1    N     N_R   0.246280 0.438190 0.553160 -0.239728
N2    N     N_R   0.754320 0.561190 0.447410 -0.236003
O1    O     O_R   0.972510 0.318130 0.526570 -0.423355
O2    O     O_R   0.806530 0.359650 0.490890 -0.544798
O3    O     O_R   0.082980 0.479210 0.647590 -0.506351
O4    O     O_R   0.917000 0.520730 0.611900 -0.522919
O5    O     O_R   0.193470 0.640350 0.509110 -0.514293
O6    O     O_R   0.027490 0.681870 0.473430 -0.500355
O7    O     O_R   0.083000 0.479270 0.388100 -0.510725
O8    O     O_R   0.917020 0.520790 0.352410 -0.521243

loop_
_geom_bond_atom_site_label_1
_geom_bond_atom_site_label_2
_ccdc_geom_bond_type
C18   H21   S    
C23   H9    S    
C1    C21   S    
C35   H4    S    
Cu2   O2    S    
C34   C42   A    
C25   H7    S    
Cu1   O5    S    
C26   H6    S    
C32   H23   S    
C45   C46   A    
C26   C27   A    
C37   C38   A    
C13   C18   A    
C9    H20   S    
C30   C31   A    
C11   C14   A    
C2    H11   S    
C27   C29   A    
C24   H5    S    
C23   C40   A    
C29   C33   A    
Cu2   O4    S    
C12   C37   A    
C17   H12   S    
C6    C15   A    
Cu1   Cu2   S    
C8    C9    A    
C19   H18   S    
C9    C10   A    
C36   H22   S    
C39   H3    S    
C27   C30   A    
C41   C43   A    
C8    C21   A    
C22   C31   A    
C28   O8    A    
C1    O1    A    
Cu2   N2    S    
C20   H16   S    
C24   C25   A    
Cu1   N1    S    
C12   C46   A    
C10   C11   A    
C39   C40   A    
C29   N2    A    
C25   C26   A    
C45   H14   S    
C46   H15   S    
C16   O6    A    
C43   C44   A    
C4    O4    A    
C12   C41   A    
C31   C32   A    
C28   C38   S    
C23   C34   A    
C17   C18   A    
C13   C21   A    
C30   C35   A    
C7    C16   S    
C5    C44   A    
C7    C19   A    
C34   H10   S    
C42   C43   A    
Cu1   O3    S    
C3    C4    S    
C22   C36   A    
C44   C45   A    
C15   C17   A    
C35   N1    A    
C33   H8    S    
C28   O7    A    
C1    O2    A    
C14   C19   A    
C3    C5    A    
C10   H19   S    
C6    C20   A    
C16   O5    A    
C32   C33   A    
Cu2   O6    S    
C2    C3    A    
Cu1   O1    S    
C4    O3    A    
C37   H1    S    
C11   C13   A    
C24   N2    A    
C38   C39   A    
C2    C42   A    
Cu2   O8    S    
C5    H13   S    
Cu1   O7    S    
C36   N1    A    
C6    H17   S    
C7    C20   A    
C14   C15   A    
C40   C41   A    
C8    F1    S    
C22   H2    S    
