data_mof_unit_61233.cif
_audit_creation_date              2012-12-10T20:04:08-0500
_audit_creation_method            fapswitch 2.2
_symmetry_space_group_name_H-M    P1
_symmetry_Int_Tables_number       1
_space_group_crystal_system       triclinic
_cell_length_a                    22.503132
_cell_length_b                    25.901644
_cell_length_c                    22.501293
_cell_angle_alpha                 90.000032
_cell_angle_beta                  89.999705
_cell_angle_gamma                 89.907992
_cell_volume                      13115.2693018

loop_
_atom_site_label
_atom_site_type_symbol
_atom_type_description
_atom_site_fract_x
_atom_site_fract_y
_atom_site_fract_z
_atom_type_partial_charge
C1    C     C_R   0.499435 0.890090 0.749549 0.931126
C2    C     C_R   0.999433 0.890090 0.750453 0.931215
C3    C     C_1   0.723358 0.249983 0.749979 -0.109244
C4    C     C_1   0.223358 0.749983 0.250020 -0.109215
C5    C     C_1   0.223358 0.749983 0.749980 -0.109168
C6    C     C_1   0.223358 0.249983 0.750020 -0.109247
C7    C     C_1   0.223358 0.249983 0.249979 -0.109244
C8    C     C_1   0.776655 0.750018 0.749980 -0.122828
C9    C     C_1   0.776655 0.750018 0.250020 -0.122821
C10   C     C_1   0.776655 0.250018 0.249980 -0.122818
C11   C     C_1   0.776655 0.250018 0.750019 -0.122809
C12   C     C_1   0.276655 0.750018 0.249980 -0.122824
C13   C     C_R   0.999509 0.109914 0.750612 0.933257
C14   C     C_1   0.276655 0.750018 0.750020 -0.122814
C15   C     C_1   0.276655 0.250018 0.749981 -0.122817
C16   C     C_1   0.276655 0.250018 0.250020 -0.122804
C17   C     C_R   0.419820 0.554291 0.833948 0.365575
C18   C     C_R   0.419526 0.554299 0.166344 0.365552
C19   C     C_R   0.417895 0.445885 0.167984 0.365325
C20   C     C_R   0.418189 0.445877 0.832305 0.365387
C21   C     C_R   0.419835 0.054292 0.333962 0.365574
C22   C     C_R   0.419868 0.054290 0.666006 0.365579
C23   C     C_R   0.418236 0.945876 0.667650 0.365418
C24   C     C_R   0.999508 0.109914 0.249387 0.933300
C25   C     C_R   0.418203 0.945877 0.332319 0.365411
C26   C     C_R   0.919700 0.554295 0.333828 0.365547
C27   C     C_R   0.919465 0.554300 0.666395 0.365547
C28   C     C_R   0.917835 0.445886 0.668035 0.365298
C29   C     C_R   0.918067 0.445880 0.332184 0.365346
C30   C     C_R   0.919805 0.054293 0.833931 0.365565
C31   C     C_R   0.919846 0.054291 0.166029 0.365569
C32   C     C_R   0.918214 0.945877 0.167672 0.365407
C33   C     C_R   0.918168 0.945878 0.832284 0.365396
C34   C     C_R   0.382692 0.526681 0.871637 -0.197740
C35   C     C_R   0.999428 0.390089 0.749540 0.931530
C36   C     C_R   0.382209 0.526695 0.128837 -0.197783
C37   C     C_R   0.381360 0.473565 0.129689 -0.203325
C38   C     C_R   0.381842 0.473551 0.870784 -0.203358
C39   C     C_R   0.382716 0.026681 0.371661 -0.197836
C40   C     C_R   0.382770 0.026679 0.628289 -0.197833
C41   C     C_R   0.381920 0.973550 0.629142 -0.203422
C42   C     C_R   0.381866 0.973552 0.370808 -0.203412
C43   C     C_R   0.882495 0.526686 0.371444 -0.197716
C44   C     C_R   0.882111 0.526696 0.628925 -0.197758
C45   C     C_R   0.881262 0.473566 0.629777 -0.203265
C46   C     C_R   0.999433 0.390090 0.250454 0.931310
C47   C     C_R   0.881645 0.473557 0.370590 -0.203312
C48   C     C_R   0.882663 0.026683 0.871608 -0.197825
C49   C     C_R   0.882732 0.026681 0.128326 -0.197821
C50   C     C_R   0.881882 0.973551 0.129179 -0.203402
C51   C     C_R   0.881810 0.973554 0.870753 -0.203395
C52   C     C_R   0.957863 0.972374 0.792484 -0.027333
C53   C     C_R   0.957886 0.972374 0.207494 -0.027319
C54   C     C_R   0.958597 0.027716 0.206777 -0.029062
C55   C     C_R   0.958575 0.027717 0.793202 -0.029048
C56   C     C_R   0.957812 0.472375 0.292432 -0.027345
C57   C     C_R   0.999511 0.609914 0.250611 0.933169
C58   C     C_R   0.957692 0.472378 0.707676 -0.027415
C59   C     C_R   0.958403 0.527720 0.706959 -0.028954
C60   C     C_R   0.958523 0.527718 0.293150 -0.029027
C61   C     C_R   0.457880 0.972374 0.292501 -0.027322
C62   C     C_R   0.457897 0.972373 0.707483 -0.027314
C63   C     C_R   0.458608 0.027716 0.706765 -0.029064
C64   C     C_R   0.458591 0.027717 0.293218 -0.029058
C65   C     C_R   0.457873 0.472374 0.792494 -0.027322
C66   C     C_R   0.457724 0.472378 0.207653 -0.027383
C67   C     C_R   0.458435 0.527720 0.206937 -0.028982
C68   C     C_R   0.999514 0.609914 0.749392 0.932805
C69   C     C_R   0.458583 0.527717 0.793212 -0.029050
C70   C     C_2   0.573303 0.555371 0.670471 0.937141
C71   C     C_2   0.573677 0.555361 0.329192 0.936938
C72   C     C_2   0.577758 0.444478 0.325219 0.941272
C73   C     C_2   0.577421 0.444492 0.674426 0.941020
C74   C     C_2   0.573296 0.055369 0.170461 0.937181
C75   C     C_2   0.573247 0.055371 0.829581 0.937214
C76   C     C_2   0.577374 0.944492 0.825620 0.940990
C77   C     C_2   0.577414 0.944490 0.174421 0.941022
C78   C     C_2   0.073466 0.555368 0.170614 0.937062
C79   C     C_R   0.497566 0.553960 0.753247 -0.134733
C80   C     C_2   0.073710 0.555360 0.829145 0.936878
C81   C     C_2   0.077801 0.444483 0.825171 0.941158
C82   C     C_2   0.077569 0.444486 0.174578 0.941161
C83   C     C_2   0.073330 0.055368 0.670491 0.937173
C84   C     C_2   0.073272 0.055370 0.329559 0.937201
C85   C     C_2   0.077396 0.944491 0.325597 0.941015
C86   C     C_2   0.077461 0.944489 0.674470 0.941064
C87   C     C_R   0.497577 0.553960 0.246749 -0.134683
C88   C     C_R   0.496754 0.446049 0.247591 -0.134796
C89   C     C_R   0.499434 0.890090 0.250452 0.931148
C90   C     C_R   0.496748 0.446049 0.752401 -0.134739
C91   C     C_R   0.497567 0.053960 0.253246 -0.134741
C92   C     C_R   0.497565 0.053960 0.746754 -0.134754
C93   C     C_R   0.496747 0.946049 0.747599 -0.134740
C94   C     C_R   0.496747 0.946049 0.252402 -0.134745
C95   C     C_R   0.997572 0.553960 0.253248 -0.134712
C96   C     C_R   0.997572 0.553960 0.746744 -0.134651
C97   C     C_R   0.996751 0.446049 0.747587 -0.134780
C98   C     C_R   0.996751 0.446049 0.252404 -0.134766
C99   C     C_R   0.997568 0.053960 0.753247 -0.134740
C100  C     C_R   0.499508 0.109914 0.250613 0.933271
C101  C     C_R   0.997566 0.053960 0.246754 -0.134750
C102  C     C_R   0.996747 0.946049 0.247599 -0.134744
C103  C     C_R   0.996749 0.946049 0.752403 -0.134761
C104  C     C_R   0.535160 0.526962 0.713815 -0.103048
C105  C     C_R   0.535346 0.526957 0.286009 -0.103064
C106  C     C_R   0.535243 0.472967 0.286127 -0.104839
C107  C     C_R   0.535063 0.472972 0.713696 -0.104842
C108  C     C_R   0.535155 0.026961 0.213810 -0.103081
C109  C     C_R   0.535132 0.026962 0.786211 -0.103075
C110  C     C_R   0.535036 0.972973 0.786330 -0.104819
C111  C     C_R   0.499507 0.109914 0.749386 0.933308
C112  C     C_R   0.535058 0.972972 0.213691 -0.104814
C113  C     C_R   0.035240 0.526960 0.213889 -0.103070
C114  C     C_R   0.035365 0.526956 0.785979 -0.102967
C115  C     C_R   0.035265 0.472967 0.786098 -0.104839
C116  C     C_R   0.035142 0.472970 0.213771 -0.104857
C117  C     C_R   0.035175 0.026961 0.713828 -0.103084
C118  C     C_R   0.035145 0.026962 0.286200 -0.103082
C119  C     C_R   0.035048 0.972972 0.286318 -0.104822
C120  C     C_R   0.035081 0.972971 0.713713 -0.104820
C121  C     C_1   0.499965 0.750012 0.526649 -0.121458
C122  C     C_R   0.499429 0.390089 0.249542 0.931464
C123  C     C_1   0.499965 0.750012 0.473351 -0.121441
C124  C     C_1   0.499964 0.249987 0.473356 -0.110381
C125  C     C_1   0.499964 0.249987 0.526644 -0.110339
C126  C     C_1   0.499965 0.250012 0.026649 -0.121461
C127  C     C_1   0.499965 0.250012 0.973351 -0.121460
C128  C     C_1   0.499964 0.749987 0.973356 -0.110331
C129  C     C_1   0.499964 0.749987 0.026644 -0.110356
C130  C     C_1   0.999965 0.750012 0.026649 -0.121458
C131  C     C_1   0.999965 0.750012 0.973351 -0.121437
C132  C     C_1   0.999964 0.249987 0.973356 -0.110392
C133  C     C_R   0.499434 0.390090 0.750452 0.931177
C134  C     C_1   0.999964 0.249987 0.026644 -0.110363
C135  C     C_1   0.999965 0.250012 0.526649 -0.121462
C136  C     C_1   0.999965 0.250012 0.473351 -0.121463
C137  C     C_1   0.999964 0.749987 0.473356 -0.110338
C138  C     C_1   0.999964 0.749987 0.526644 -0.110365
C139  C     C_R   0.499984 0.750000 0.910087 0.891274
C140  C     C_R   0.499985 0.750000 0.089912 0.891151
C141  C     C_R   0.499983 0.250001 0.089934 0.878049
C142  C     C_R   0.499983 0.250001 0.910066 0.878192
C143  C     C_R   0.499984 0.250000 0.410087 0.891301
C144  C     C_R   0.499508 0.609914 0.750613 0.933238
C145  C     C_R   0.499984 0.250000 0.589912 0.891303
C146  C     C_R   0.499983 0.750001 0.589934 0.878192
C147  C     C_R   0.499983 0.750001 0.410066 0.878105
C148  C     C_R   0.999985 0.750000 0.410087 0.891226
C149  C     C_R   0.999985 0.750000 0.589912 0.891140
C150  C     C_R   0.999983 0.250001 0.589934 0.878019
C151  C     C_R   0.999983 0.250001 0.410066 0.878130
C152  C     C_R   0.999984 0.250000 0.910088 0.891297
C153  C     C_R   0.999985 0.250000 0.089912 0.891305
C154  C     C_R   0.999983 0.750001 0.089934 0.878156
C155  C     C_R   0.499515 0.609914 0.249393 0.933011
C156  C     C_R   0.999983 0.750001 0.910066 0.878056
C157  C     C_R   0.339938 0.750012 0.750016 0.914973
C158  C     C_R   0.339938 0.750012 0.249984 0.915126
C159  C     C_R   0.339938 0.250013 0.250016 0.915115
C160  C     C_R   0.339938 0.250012 0.749984 0.914974
C161  C     C_R   0.839938 0.750012 0.250016 0.915037
C162  C     C_R   0.839938 0.750012 0.749984 0.915172
C163  C     C_R   0.839938 0.250013 0.750016 0.915149
C164  C     C_R   0.839938 0.250012 0.249984 0.915038
C165  C     C_R   0.660069 0.749986 0.750015 0.852056
C166  C     C_R   0.999434 0.890090 0.249548 0.931146
C167  C     C_R   0.660070 0.749986 0.249985 0.852062
C168  C     C_R   0.660069 0.249987 0.250015 0.852147
C169  C     C_R   0.660069 0.249987 0.749985 0.852077
C170  C     C_R   0.160070 0.749986 0.250015 0.852065
C171  C     C_R   0.160070 0.749986 0.749985 0.852051
C172  C     C_R   0.160070 0.249987 0.750015 0.852162
C173  C     C_R   0.160070 0.249987 0.249985 0.852112
C174  C     C_1   0.723358 0.749983 0.750020 -0.109234
C175  C     C_1   0.723358 0.749983 0.249980 -0.109188
C176  C     C_1   0.723358 0.249983 0.250020 -0.109255
Cl1   Cl    Cl    0.412862 0.621900 0.842909 -0.649253
Cl2   Cl    Cl    0.912604 0.621907 0.657347 -0.649244
Cl3   Cl    Cl    0.908467 0.378309 0.661505 -0.652027
Cl4   Cl    Cl    0.908632 0.378306 0.338652 -0.651976
Cl5   Cl    Cl    0.912857 0.121901 0.842901 -0.649280
Cl6   Cl    Cl    0.912883 0.121900 0.157073 -0.649271
Cl7   Cl    Cl    0.908744 0.878304 0.161237 -0.651948
Cl8   Cl    Cl    0.908704 0.878305 0.838726 -0.651960
Cl9   Cl    Cl    0.412648 0.621907 0.157310 -0.649266
Cl10  Cl    Cl    0.408509 0.378309 0.161468 -0.652018
Cl11  Cl    Cl    0.408725 0.378304 0.838745 -0.651945
Cl12  Cl    Cl    0.412874 0.121900 0.342919 -0.649279
Cl13  Cl    Cl    0.412900 0.121899 0.657056 -0.649267
Cl14  Cl    Cl    0.408759 0.878303 0.661222 -0.651943
Cl15  Cl    Cl    0.408735 0.878304 0.338756 -0.651949
Cl16  Cl    Cl    0.912776 0.621903 0.342821 -0.649255
H1    H     H_    0.353598 0.546749 0.902320 0.200987
H2    H     H_    0.852867 0.546768 0.598388 0.201043
H3    H     H_    0.851329 0.453558 0.599933 0.199181
H4    H     H_    0.851810 0.453546 0.400531 0.199178
H5    H     H_    0.853564 0.046752 0.902285 0.200987
H6    H     H_    0.853649 0.046748 0.097633 0.200983
H7    H     H_    0.852108 0.953539 0.099179 0.199150
H8    H     H_    0.852018 0.953542 0.900734 0.199150
H9    H     H_    0.598833 0.564411 0.585154 0.351031
H10   H     H_    0.599588 0.564383 0.414396 0.350978
H11   H     H_    0.662507 0.435309 0.352566 0.352578
H12   H     H_    0.352991 0.546766 0.098276 0.201012
H13   H     H_    0.662059 0.435334 0.646731 0.352547
H14   H     H_    0.598840 0.064392 0.085146 0.351012
H15   H     H_    0.598737 0.064398 0.914912 0.351018
H16   H     H_    0.661999 0.935328 0.853350 0.352584
H17   H     H_    0.662053 0.935319 0.146738 0.352589
H18   H     H_    0.099176 0.564389 0.085349 0.351036
H19   H     H_    0.099560 0.564451 0.914356 0.350975
H20   H     H_    0.162565 0.435323 0.852480 0.352602
H21   H     H_    0.162254 0.435329 0.147028 0.352565
H22   H     H_    0.098904 0.064386 0.585184 0.351017
H23   H     H_    0.351452 0.453557 0.099820 0.199164
H24   H     H_    0.098791 0.064392 0.414882 0.351024
H25   H     H_    0.162028 0.935325 0.353304 0.352592
H26   H     H_    0.162117 0.935325 0.646830 0.352597
H27   H     H_    0.352058 0.453539 0.900775 0.199169
H28   H     H_    0.353629 0.046749 0.402350 0.200978
H29   H     H_    0.353697 0.046746 0.597587 0.200974
H30   H     H_    0.352156 0.953537 0.599133 0.199145
H31   H     H_    0.352089 0.953540 0.400805 0.199146
H32   H     H_    0.853352 0.546755 0.402079 0.201012
O1    O     O_3   0.500000 0.750000 0.750000 -0.514477
O2    O     O_R   0.534620 0.865830 0.284610 -0.623310
O3    O     O_R   0.965390 0.134170 0.284610 -0.625512
O4    O     O_R   0.965390 0.365830 0.784610 -0.587457
O5    O     O_R   0.965390 0.365830 0.215390 -0.587399
O6    O     O_R   0.965390 0.634170 0.215390 -0.625470
O7    O     O_R   0.965390 0.634170 0.784610 -0.625402
O8    O     O_2   0.606883 0.589331 0.687625 -0.623336
O9    O     O_R   0.570866 0.542723 0.610102 -0.762092
O10   O     O_2   0.607184 0.589323 0.311899 -0.623027
O11   O     O_R   0.571506 0.542703 0.389569 -0.762269
O12   O     O_2   0.559892 0.410544 0.358492 -0.617935
O13   O     O_R   0.534620 0.134170 0.284610 -0.586365
O14   O     O_R   0.638164 0.457034 0.324035 -0.769828
O15   O     O_2   0.559422 0.410567 0.641213 -0.617617
O16   O     O_R   0.637831 0.457048 0.675370 -0.770000
O17   O     O_2   0.606863 0.089343 0.187608 -0.623348
O18   O     O_R   0.570873 0.042706 0.110095 -0.762075
O19   O     O_2   0.606824 0.089344 0.812453 -0.623386
O20   O     O_R   0.570787 0.042710 0.889946 -0.762054
O21   O     O_2   0.559356 0.910573 0.858830 -0.617538
O22   O     O_R   0.637785 0.957044 0.824700 -0.769960
O23   O     O_2   0.559410 0.910574 0.141199 -0.617561
O24   O     O_R   0.534620 0.134170 0.715390 -0.586370
O25   O     O_R   0.637826 0.957035 0.175376 -0.769940
O26   O     O_2   0.107002 0.589338 0.187826 -0.623231
O27   O     O_R   0.071158 0.542705 0.110243 -0.762158
O28   O     O_2   0.107276 0.589267 0.811824 -0.622815
O29   O     O_R   0.071477 0.542765 0.889536 -0.762325
O30   O     O_2   0.059955 0.410545 0.858449 -0.617984
O31   O     O_R   0.138204 0.457048 0.823964 -0.769767
O32   O     O_2   0.059629 0.410553 0.141344 -0.617775
O33   O     O_R   0.137976 0.457047 0.175621 -0.769926
O34   O     O_2   0.106887 0.089346 0.687646 -0.623324
O35   O     O_R   0.534620 0.365830 0.215390 -0.623406
O36   O     O_R   0.070932 0.042698 0.610126 -0.762094
O37   O     O_2   0.106841 0.089346 0.312423 -0.623371
O38   O     O_R   0.070833 0.042704 0.389924 -0.762066
O39   O     O_2   0.059386 0.910571 0.358811 -0.617559
O40   O     O_R   0.137807 0.957041 0.324660 -0.769942
O41   O     O_2   0.059481 0.910563 0.641249 -0.617625
O42   O     O_R   0.137870 0.957044 0.675450 -0.769914
O43   O     O_R   0.534620 0.365830 0.784610 -0.623324
O44   O     O_R   0.534620 0.634170 0.784610 -0.586363
O45   O     O_R   0.534620 0.634170 0.215390 -0.586263
O46   O     O_R   0.034620 0.865830 0.215390 -0.623312
O47   O     O_R   0.034620 0.865830 0.784610 -0.623319
O48   O     O_R   0.034620 0.134170 0.784610 -0.586351
O49   O     O_3   0.500000 0.750000 0.250000 -0.514483
O50   O     O_R   0.034620 0.134170 0.215390 -0.586365
O51   O     O_R   0.034620 0.365830 0.715390 -0.623417
O52   O     O_R   0.034620 0.365830 0.284610 -0.623357
O53   O     O_R   0.034620 0.634170 0.284610 -0.586309
O54   O     O_R   0.034620 0.634170 0.715390 -0.586280
O55   O     O_R   0.465390 0.780380 0.882040 -0.619423
O56   O     O_R   0.465390 0.780380 0.117960 -0.619417
O57   O     O_R   0.465390 0.219620 0.117960 -0.631852
O58   O     O_R   0.465390 0.219620 0.882040 -0.631857
O59   O     O_R   0.465390 0.280380 0.382040 -0.619547
O60   O     O_3   0.500000 0.250000 0.250000 -0.514467
O61   O     O_R   0.465390 0.280380 0.617960 -0.619453
O62   O     O_R   0.465390 0.719620 0.617960 -0.631864
O63   O     O_R   0.465390 0.719620 0.382040 -0.631894
O64   O     O_R   0.965390 0.780380 0.382040 -0.619427
O65   O     O_R   0.965390 0.780380 0.617960 -0.619429
O66   O     O_R   0.965390 0.219620 0.617960 -0.631856
O67   O     O_R   0.965390 0.219620 0.382040 -0.631859
O68   O     O_R   0.965390 0.280380 0.882040 -0.619571
O69   O     O_R   0.965390 0.280380 0.117960 -0.619505
O70   O     O_R   0.965390 0.719620 0.117960 -0.631879
O71   O     O_3   0.500000 0.250000 0.750000 -0.514473
O72   O     O_R   0.965390 0.719620 0.882040 -0.631898
O73   O     O_R   0.367970 0.780380 0.784610 -0.615836
O74   O     O_R   0.367970 0.780380 0.215390 -0.615830
O75   O     O_R   0.367970 0.219620 0.215390 -0.614367
O76   O     O_R   0.367970 0.219620 0.784610 -0.614360
O77   O     O_R   0.367970 0.280380 0.284610 -0.615744
O78   O     O_R   0.367970 0.280380 0.715390 -0.615810
O79   O     O_R   0.367970 0.719620 0.715390 -0.614321
O80   O     O_R   0.367970 0.719620 0.284610 -0.614247
O81   O     O_R   0.867970 0.780380 0.284610 -0.615833
O82   O     O_3   0.000000 0.750000 0.250000 -0.514479
O83   O     O_R   0.867970 0.780380 0.715390 -0.615819
O84   O     O_R   0.867970 0.219620 0.715390 -0.614366
O85   O     O_R   0.867970 0.219620 0.284610 -0.614363
O86   O     O_R   0.867970 0.280380 0.784610 -0.615735
O87   O     O_R   0.867970 0.280380 0.215390 -0.615783
O88   O     O_R   0.867970 0.719620 0.215390 -0.614295
O89   O     O_R   0.867970 0.719620 0.784610 -0.614237
O90   O     O_R   0.632030 0.780380 0.715400 -0.639543
O91   O     O_R   0.632030 0.780380 0.284600 -0.639578
O92   O     O_R   0.632030 0.219620 0.284600 -0.624975
O93   O     O_3   0.000000 0.750000 0.750000 -0.514484
O94   O     O_R   0.632030 0.219620 0.715400 -0.624999
O95   O     O_R   0.632030 0.280380 0.215400 -0.639506
O96   O     O_R   0.632030 0.280380 0.784600 -0.639529
O97   O     O_R   0.632030 0.719620 0.784600 -0.624982
O98   O     O_R   0.632030 0.719620 0.215400 -0.624868
O99   O     O_R   0.132030 0.780380 0.215400 -0.639558
O100  O     O_R   0.132030 0.780380 0.784600 -0.639582
O101  O     O_R   0.132030 0.219620 0.784600 -0.624962
O102  O     O_R   0.132030 0.219620 0.215400 -0.624985
O103  O     O_R   0.132030 0.280380 0.715400 -0.639502
O104  O     O_3   0.000000 0.250000 0.750000 -0.514467
O105  O     O_R   0.132030 0.280380 0.284600 -0.639518
O106  O     O_R   0.132030 0.719620 0.284600 -0.624928
O107  O     O_R   0.132030 0.719620 0.715400 -0.624855
O108  O     O_R   0.534620 0.719650 0.882050 -0.623541
O109  O     O_R   0.534620 0.719650 0.117950 -0.623609
O110  O     O_R   0.534620 0.280350 0.117950 -0.618675
O111  O     O_R   0.534620 0.280350 0.882050 -0.618583
O112  O     O_R   0.534620 0.219650 0.382050 -0.623492
O113  O     O_R   0.534620 0.219650 0.617950 -0.623517
O114  O     O_R   0.534620 0.780350 0.617950 -0.618572
O115  O     O_3   1.000000 0.250000 0.250000 -0.514469
O116  O     O_R   0.534620 0.780350 0.382050 -0.618588
O117  O     O_R   0.034620 0.719650 0.382050 -0.623564
O118  O     O_R   0.034620 0.719650 0.617950 -0.623606
O119  O     O_R   0.034620 0.280350 0.617950 -0.618690
O120  O     O_R   0.034620 0.280350 0.382050 -0.618619
O121  O     O_R   0.034620 0.219650 0.882050 -0.623486
O122  O     O_R   0.034620 0.219650 0.117950 -0.623502
O123  O     O_R   0.034620 0.780350 0.117950 -0.618581
O124  O     O_R   0.034620 0.780350 0.882050 -0.618606
O125  O     O_R   0.465390 0.865830 0.784610 -0.587352
O126  O     O_R   0.534620 0.865830 0.715390 -0.623311
O127  O     O_R   0.465390 0.865830 0.215390 -0.587364
O128  O     O_R   0.465390 0.134170 0.215390 -0.625506
O129  O     O_R   0.465390 0.134170 0.784610 -0.625513
O130  O     O_R   0.465390 0.365830 0.284610 -0.587440
O131  O     O_R   0.465390 0.365830 0.715390 -0.587363
O132  O     O_R   0.465390 0.634170 0.715390 -0.625489
O133  O     O_R   0.465390 0.634170 0.284610 -0.625421
O134  O     O_R   0.965390 0.865830 0.284610 -0.587360
O135  O     O_R   0.965390 0.865830 0.715390 -0.587371
O136  O     O_R   0.965390 0.134170 0.715390 -0.625505
Zn1   Zn    Zn3+2 0.549450 0.706630 0.799470 1.069507
Zn2   Zn    Zn3+2 0.049450 0.706630 0.700530 1.069553
Zn3   Zn    Zn3+2 0.049450 0.293370 0.700530 1.048958
Zn4   Zn    Zn3+2 0.049450 0.293370 0.299470 1.048935
Zn5   Zn    Zn3+2 0.049450 0.206630 0.799470 1.069615
Zn6   Zn    Zn3+2 0.049450 0.206630 0.200530 1.069563
Zn7   Zn    Zn3+2 0.049450 0.793370 0.200530 1.048868
Zn8   Zn    Zn3+2 0.049450 0.793370 0.799470 1.048812
Zn9   Zn    Zn3+2 0.450550 0.793390 0.799460 1.093538
Zn10  Zn    Zn3+2 0.450550 0.793390 0.200540 1.093547
Zn11  Zn    Zn3+2 0.450550 0.206610 0.200540 1.072271
Zn12  Zn    Zn3+2 0.549450 0.706630 0.200530 1.069556
Zn13  Zn    Zn3+2 0.450550 0.206610 0.799460 1.072288
Zn14  Zn    Zn3+2 0.450550 0.293390 0.299460 1.093521
Zn15  Zn    Zn3+2 0.450550 0.293390 0.700540 1.093534
Zn16  Zn    Zn3+2 0.450550 0.706610 0.700540 1.072295
Zn17  Zn    Zn3+2 0.450550 0.706610 0.299460 1.072241
Zn18  Zn    Zn3+2 0.950550 0.793390 0.299460 1.093537
Zn19  Zn    Zn3+2 0.950550 0.793390 0.700540 1.093553
Zn20  Zn    Zn3+2 0.950550 0.206610 0.700540 1.072258
Zn21  Zn    Zn3+2 0.950550 0.206610 0.299460 1.072276
Zn22  Zn    Zn3+2 0.950550 0.293390 0.799460 1.093508
Zn23  Zn    Zn3+2 0.549450 0.293370 0.200530 1.048948
Zn24  Zn    Zn3+2 0.950550 0.293390 0.200540 1.093518
Zn25  Zn    Zn3+2 0.950550 0.706610 0.200540 1.072265
Zn26  Zn    Zn3+2 0.950550 0.706610 0.799460 1.072208
Zn27  Zn    Zn3+2 0.549450 0.293370 0.799470 1.048911
Zn28  Zn    Zn3+2 0.549450 0.206630 0.299470 1.069591
Zn29  Zn    Zn3+2 0.549450 0.206630 0.700530 1.069525
Zn30  Zn    Zn3+2 0.549450 0.793370 0.700530 1.048885
Zn31  Zn    Zn3+2 0.549450 0.793370 0.299470 1.048832
Zn32  Zn    Zn3+2 0.049450 0.706630 0.299470 1.069544

loop_
_geom_bond_atom_site_label_1
_geom_bond_atom_site_label_2
_ccdc_geom_bond_type
C126  C127  T    
O82   Zn18  S    
C114  C115  A    
C153  O122  A    
C164  O87   A    
H14   O18   S    
C2    O47   A    
O1    Zn30  S    
C139  O55   A    
C128  C139  S    
O115  Zn21  S    
C90   C107  A    
C73   O15   D    
C92   C109  A    
C68   O54   A    
O127  Zn10  S    
O121  Zn5   S    
C71   O10   D    
O123  Zn7   S    
C89   C94   S    
H11   O14   S    
C19   C37   A    
O2    Zn31  S    
C76   O21   D    
C111  O24   A    
O128  Zn11  S    
C91   C100  S    
C4    C12   T    
O53   Zn32  S    
C68   O7    A    
C93   C110  A    
C139  O108  A    
C46   C98   S    
H25   O40   S    
C35   O51   A    
C84   O38   S    
C2    O135  A    
C157  O79   A    
O47   Zn8   S    
C158  O80   A    
O46   Zn7   S    
O5    Zn24  S    
C88   C122  S    
C13   O48   A    
C61   C94   A    
C3    C169  S    
O54   Zn2   S    
O133  Zn17  S    
C72   O12   D    
C171  O100  A    
C77   O23   D    
C165  O97   A    
C77   C112  S    
O60   Zn11  S    
O104  Zn3   S    
C53   C102  A    
C83   O36   S    
O125  Zn9   S    
O93   Zn2   S    
O49   Zn17  S    
C72   C106  S    
C171  O107  A    
C78   O26   D    
C46   O5    A    
C78   C113  S    
C17   C34   A    
O122  Zn6   S    
C32   C53   A    
C30   C55   A    
O59   Zn14  S    
C17   Cl1   S    
C65   C69   A    
C154  O70   A    
O50   Zn6   S    
C1    O126  A    
C92   C111  S    
C28   C58   A    
C126  C141  S    
C143  O59   A    
C23   C41   A    
O6    Zn25  S    
C40   H29   S    
C140  O109  A    
C83   C117  S    
C130  C131  T    
C15   C160  S    
C8    C162  S    
C150  O119  A    
C142  O58   A    
C57   O6    A    
O81   Zn18  S    
O91   Zn31  S    
H26   O42   S    
O78   Zn15  S    
H16   O22   S    
C121  C123  T    
C3    C11   T    
C74   O18   S    
C60   C95   A    
C122  O35   A    
O87   Zn24  S    
O107  Zn2   S    
C1    C93   S    
C148  O64   A    
C62   C93   A    
C141  O110  A    
C64   C91   A    
C157  O73   A    
O134  Zn18  S    
C43   C47   A    
C104  C107  A    
O95   Zn23  S    
C102  C119  A    
C89   O127  A    
C52   C103  A    
C17   C69   A    
O112  Zn28  S    
C140  O56   A    
C137  C148  S    
C27   Cl2   S    
O115  Zn24  S    
C128  C129  T    
C6    C172  S    
C53   C54   A    
C33   C52   A    
O61   Zn15  S    
C4    C170  S    
C29   C47   A    
C101  C118  A    
C30   C48   A    
C131  C156  S    
C146  O114  A    
O57   Zn11  S    
C19   Cl10  S    
C66   C88   A    
O120  Zn4   S    
O35   Zn23  S    
C134  C153  S    
C99   C117  A    
C111  O129  A    
C88   C106  A    
C83   O34   D    
C24   C101  S    
C85   C119  S    
C21   C64   A    
O75   Zn11  S    
C22   C63   A    
O101  Zn5   S    
C27   C44   A    
C23   C62   A    
O106  Zn32  S    
O132  Zn16  S    
C71   O11   S    
O109  Zn12  S    
C41   H30   S    
C147  O63   A    
C66   C67   A    
O1    Zn1   S    
C102  C166  S    
O104  Zn20  S    
C162  O83   A    
C152  O68   A    
C159  O75   A    
O4    Zn22  S    
C167  O98   A    
O49   Zn10  S    
C133  O43   A    
C138  C149  S    
C100  O128  A    
C122  O130  A    
O70   Zn25  S    
O63   Zn17  S    
O105  Zn4   S    
C165  C174  S    
O1    Zn9   S    
C133  O131  A    
C70   O9    S    
C13   C99   S    
H13   O16   S    
O55   Zn9   S    
C87   C105  A    
O96   Zn27  S    
C33   Cl8   S    
C11   C163  S    
C130  C154  S    
C81   O31   S    
C163  O86   A    
C9    C161  S    
O93   Zn26  S    
C132  C134  T    
C150  O66   A    
C69   C79   A    
C97   C115  A    
C59   C96   A    
C21   Cl12  S    
C167  C175  S    
C168  C176  S    
C144  O132  A    
C38   H27   S    
O73   Zn9   S    
O43   Zn27  S    
C50   H7    S    
C135  C150  S    
C18   Cl9   S    
H20   O31   S    
H24   O38   S    
C172  O101  A    
O82   Zn32  S    
C142  O111  A    
O62   Zn16  S    
O76   Zn13  S    
C94   C112  A    
O126  Zn30  S    
C9    C175  T    
C151  O120  A    
C31   C54   A    
O129  Zn13  S    
C170  O99   A    
C51   H8    S    
O131  Zn15  S    
O119  Zn3   S    
C84   C118  S    
C49   C50   A    
C80   O28   D    
C55   C99   A    
O65   Zn19  S    
C121  C146  S    
C86   C120  S    
C12   C158  S    
C173  O102  A    
C160  O78   A    
C23   Cl14  S    
O49   Zn12  S    
O52   Zn4   S    
O77   Zn14  S    
O108  Zn1   S    
O83   Zn19  S    
C32   Cl7   S    
C103  C120  A    
O58   Zn13  S    
O135  Zn19  S    
O92   Zn28  S    
C135  C136  T    
O90   Zn30  S    
C68   C96   S    
C85   O39   D    
C70   C104  S    
C73   C107  S    
C80   C114  S    
C163  O84   A    
C158  O74   A    
C75   O20   S    
C54   C101  A    
H10   O11   S    
C124  C143  S    
C24   O3    A    
C145  O61   A    
C89   O2    A    
C52   C55   A    
O13   Zn28  S    
C78   O27   S    
C82   O32   D    
C144  O44   A    
C168  O95   A    
C31   C49   A    
O110  Zn23  S    
O97   Zn1   S    
O48   Zn5   S    
O130  Zn14  S    
C39   C42   A    
C65   C90   A    
C80   O29   S    
C14   C157  S    
C161  O81   A    
C35   O4    A    
C47   H4    S    
C172  O103  A    
C1    O125  A    
C25   Cl15  S    
C117  C120  A    
O80   Zn17  S    
C90   C133  S    
C26   Cl16  S    
C24   O50   A    
C58   C59   A    
C56   C60   A    
C13   O136  A    
C61   C64   A    
C62   C63   A    
C20   C65   A    
H9    O9    S    
C165  O90   A    
O111  Zn27  S    
C161  O88   A    
O115  Zn6   S    
C25   C61   A    
C22   Cl13  S    
C141  O57   A    
C5    C14   T    
C169  O94   A    
C73   O16   S    
C34   H1    S    
C173  O105  A    
C7    C16   T    
C71   C105  S    
C31   Cl6   S    
C30   Cl5   S    
C72   O14   S    
C84   O37   D    
C170  O106  A    
C77   O25   S    
C85   O40   S    
C136  C151  S    
C44   C45   A    
O104  Zn5   S    
C36   C37   A    
O66   Zn20  S    
H21   O33   S    
C154  O123  A    
C67   C87   A    
C91   C108  A    
C155  O133  A    
O68   Zn22  S    
C25   C42   A    
O113  Zn29  S    
O136  Zn20  S    
C29   C56   A    
C33   C51   A    
C105  C106  A    
C167  O91   A    
C82   C116  S    
C156  O124  A    
O60   Zn14  S    
C109  C110  A    
O84   Zn20  S    
C2    C103  S    
O71   Zn15  S    
C151  O67   A    
C28   Cl3   S    
C70   O8    D    
C96   C114  A    
C8    C174  T    
C74   C108  S    
C147  O116  A    
C108  C112  A    
C76   C110  S    
C125  C145  S    
C86   O41   D    
H15   O20   S    
C18   C36   A    
C37   H23   S    
H17   O25   S    
O114  Zn30  S    
C57   O53   A    
C45   H3    S    
O116  Zn31  S    
O56   Zn10  S    
O103  Zn3   S    
C56   C98   A    
O1    Zn16  S    
C166  O134  A    
O86   Zn22  S    
O98   Zn12  S    
C19   C66   A    
O94   Zn29  S    
C145  O113  A    
C159  O77   A    
O44   Zn1   S    
O124  Zn8   S    
O115  Zn4   S    
O100  Zn8   S    
O67   Zn21  S    
C118  C119  A    
O102  Zn6   S    
C169  O96   A    
C6    C15   T    
C74   O17   D    
O74   Zn10  S    
C48   C51   A    
C29   Cl4   S    
C63   C92   A    
O49   Zn31  S    
C81   O30   D    
O60   Zn23  S    
C113  C116  A    
C152  O121  A    
O3    Zn21  S    
C16   C159  S    
C166  O46   A    
H22   O36   S    
O118  Zn2   S    
C58   C97   A    
H19   O29   S    
O89   Zn26  S    
C155  O45   A    
C26   C43   A    
C49   H6    S    
C10   C176  T    
C28   C45   A    
C75   C109  S    
C149  O65   A    
C156  O72   A    
O64   Zn18  S    
C39   H28   S    
C164  O85   A    
C153  O69   A    
C18   C67   A    
O71   Zn13  S    
C46   O52   A    
O104  Zn22  S    
O60   Zn28  S    
C127  C142  S    
C162  O89   A    
C146  O62   A    
O82   Zn25  S    
C20   C38   A    
C98   C116  A    
C79   C144  S    
C21   C39   A    
C22   C40   A    
C81   C115  S    
C5    C171  S    
C100  O13   A    
C32   C50   A    
O85   Zn21  S    
C168  O92   A    
C40   C41   A    
C123  C147  S    
O24   Zn29  S    
C87   C155  S    
C79   C104  A    
C42   H31   S    
H18   O27   S    
O71   Zn29  S    
O99   Zn7   S    
O72   Zn26  S    
O79   Zn16  S    
C10   C164  S    
C34   C38   A    
C76   O22   S    
O88   Zn25  S    
O71   Zn27  S    
C137  C138  T    
C44   H2    S    
C143  O112  A    
C48   H5    S    
O93   Zn19  S    
C148  O117  A    
O69   Zn24  S    
C43   H32   S    
C160  O76   A    
C27   C59   A    
C20   Cl11  S    
C129  C140  S    
C26   C60   A    
C95   C113  A    
C132  C152  S    
C7    C173  S    
O82   Zn7   S    
O7    Zn26  S    
O45   Zn12  S    
C75   O19   D    
O117  Zn32  S    
C57   C95   S    
C86   O42   S    
C149  O118  A    
C36   H12   S    
C35   C97   S    
O93   Zn8   S    
C124  C125  T    
C82   O33   S    
O51   Zn3   S    
