data_mof_unit_24633.cif
_audit_creation_date              2012-12-11T15:26:37-0500
_audit_creation_method            fapswitch 2.2
_symmetry_space_group_name_H-M    P1
_symmetry_Int_Tables_number       1
_space_group_crystal_system       triclinic
_cell_length_a                    7.216185
_cell_length_b                    12.066121
_cell_length_c                    29.118742
_cell_angle_alpha                 89.999941
_cell_angle_beta                  89.999211
_cell_angle_gamma                 90.000086
_cell_volume                      2535.40850703

loop_
_atom_site_label
_atom_site_type_symbol
_atom_type_description
_atom_site_fract_x
_atom_site_fract_y
_atom_site_fract_z
_atom_type_partial_charge
O1    O     O_R   0.647170 0.849180 0.201220 -0.536067
O2    O     O_R   0.352830 0.150820 0.798780 -0.536067
O3    O     O_R   0.352830 0.150820 0.701220 -0.536066
O4    O     O_R   0.647170 0.849180 0.298780 -0.536066
O5    O     O_R   0.147170 0.650820 0.298780 -0.536068
O6    O     O_R   0.852830 0.349180 0.701220 -0.536068
O7    O     O_R   0.852830 0.349180 0.798780 -0.536067
O8    O     O_R   0.147170 0.650820 0.201220 -0.536067
O9    O     O_R   0.317430 0.862210 0.298450 -0.538639
O10   O     O_R   0.682570 0.137790 0.701550 -0.538639
O11   O     O_R   0.682570 0.137790 0.798450 -0.538638
O12   O     O_R   0.317430 0.862210 0.201550 -0.538638
O13   O     O_R   0.817430 0.637790 0.201550 -0.538639
O14   O     O_R   0.182570 0.362210 0.798450 -0.538639
O15   O     O_R   0.182570 0.362210 0.701550 -0.538639
O16   O     O_R   0.817430 0.637790 0.298450 -0.538639
C1    C     C_R   0.485719 0.888041 0.313348 0.680906
C2    C     C_R   0.514281 0.111959 0.686652 0.680906
C3    C     C_R   0.514280 0.111959 0.813347 0.680907
C4    C     C_R   0.485720 0.888041 0.186652 0.680907
C5    C     C_R   0.985720 0.611959 0.186652 0.680907
C6    C     C_R   0.014280 0.388041 0.813347 0.680907
C7    C     C_R   0.014282 0.388042 0.686653 0.680907
C8    C     C_R   0.985718 0.611958 0.313347 0.680906
H1    H     H_    0.013797 0.611279 0.691481 0.099461
H2    H     H_    0.986203 0.388720 0.308519 0.099461
H3    H     H_    0.986343 0.388723 0.191482 0.099460
H4    H     H_    0.013657 0.611277 0.808518 0.099460
H5    H     H_    0.513656 0.888723 0.808519 0.099461
H6    H     H_    0.486344 0.111277 0.191481 0.099461
H7    H     H_    0.486293 0.111277 0.308519 0.099461
H8    H     H_    0.513706 0.888723 0.691481 0.099461
H9    H     H_    0.991129 0.258361 0.371969 0.131108
H10   H     H_    0.008871 0.741639 0.628031 0.131108
H11   H     H_    0.008706 0.741636 0.871968 0.131109
H12   H     H_    0.991294 0.258364 0.128032 0.131109
H13   H     H_    0.491293 0.241636 0.128031 0.131109
H14   H     H_    0.508707 0.758364 0.871969 0.131109
H15   H     H_    0.508776 0.758363 0.628031 0.131109
H16   H     H_    0.491223 0.241637 0.371968 0.131109
H17   H     H_    0.001420 0.337829 0.599803 0.094606
H18   H     H_    0.998579 0.662171 0.400197 0.094606
H19   H     H_    0.998466 0.662169 0.099802 0.094605
H20   H     H_    0.001534 0.337831 0.900198 0.094605
H21   H     H_    0.501534 0.162169 0.900198 0.094605
H22   H     H_    0.498466 0.837831 0.099802 0.094605
H23   H     H_    0.498496 0.837831 0.400198 0.094606
H24   H     H_    0.501504 0.162169 0.599802 0.094606
O17   O     O_3   0.480630 0.680630 0.250000 -0.376005
O18   O     O_3   0.519370 0.319370 0.750000 -0.376005
O19   O     O_3   0.980630 0.819370 0.250000 -0.376005
O20   O     O_3   0.019370 0.180630 0.750000 -0.376005
V1    V     V_3+5 0.205800 0.762860 0.250000 1.437674
V2    V     V_3+5 0.794200 0.237140 0.750000 1.437674
V3    V     V_3+5 0.705800 0.737140 0.250000 1.437674
V4    V     V_3+5 0.294200 0.262860 0.750000 1.437674
H25   H     H_    0.000696 0.283521 0.533677 0.130201
H26   H     H_    0.999304 0.716479 0.466323 0.130201
H27   H     H_    0.999299 0.716479 0.033677 0.130202
H28   H     H_    0.000701 0.283521 0.966323 0.130202
H29   H     H_    0.500701 0.216479 0.966323 0.130202
H30   H     H_    0.499299 0.783521 0.033677 0.130202
H31   H     H_    0.499339 0.783521 0.466323 0.130201
H32   H     H_    0.500661 0.216479 0.533677 0.130201
C9    C     C_R   0.992928 0.533566 0.351666 -0.025569
C10   C     C_R   0.007072 0.466434 0.648334 -0.025569
C11   C     C_R   0.007060 0.466433 0.851666 -0.025567
C12   C     C_R   0.992940 0.533567 0.148334 -0.025567
C13   C     C_R   0.492940 0.966434 0.148334 -0.025567
C14   C     C_R   0.507060 0.033566 0.851666 -0.025568
C15   C     C_R   0.507068 0.033566 0.648334 -0.025568
C16   C     C_R   0.492932 0.966434 0.351666 -0.025569
C17   C     C_R   0.992917 0.345976 0.379964 -0.158759
C18   C     C_R   0.007083 0.654024 0.620036 -0.158759
C19   C     C_R   0.006973 0.654022 0.879963 -0.158760
C20   C     C_R   0.993026 0.345978 0.120037 -0.158760
C21   C     C_R   0.493026 0.154022 0.120036 -0.158760
C22   C     C_R   0.506974 0.845978 0.879964 -0.158760
C23   C     C_R   0.507022 0.845978 0.620036 -0.158761
C24   C     C_R   0.492978 0.154022 0.379964 -0.158761
C25   C     C_R   0.990379 0.420034 0.343381 -0.174115
C26   C     C_R   0.009621 0.579966 0.656619 -0.174115
C27   C     C_R   0.009527 0.579964 0.843381 -0.174117
C28   C     C_R   0.990473 0.420035 0.156619 -0.174117
C29   C     C_R   0.490473 0.079964 0.156619 -0.174117
C30   C     C_R   0.509527 0.920035 0.843381 -0.174117
C31   C     C_R   0.509563 0.920035 0.656619 -0.174116
C32   C     C_R   0.490437 0.079965 0.343381 -0.174116
C33   C     C_R   0.997319 0.573434 0.396692 -0.190294
C34   C     C_R   0.002680 0.426566 0.603308 -0.190294
C35   C     C_R   0.002719 0.426565 0.896692 -0.190294
C36   C     C_R   0.997281 0.573434 0.103308 -0.190294
C37   C     C_R   0.497281 0.926566 0.103308 -0.190293
C38   C     C_R   0.502719 0.073434 0.896692 -0.190293
C39   C     C_R   0.502711 0.073434 0.603308 -0.190294
C40   C     C_R   0.497289 0.926566 0.396692 -0.190294
C41   C     C_R   0.998089 0.500344 0.434913 0.108304
C42   C     C_R   0.001910 0.499656 0.565087 0.108304
C43   C     C_R   0.001905 0.499656 0.934913 0.108304
C44   C     C_R   0.998095 0.500344 0.065086 0.108304
C45   C     C_R   0.498095 0.999656 0.065086 0.108304
C46   C     C_R   0.501905 0.000344 0.934913 0.108304
C47   C     C_R   0.501911 0.000344 0.565086 0.108304
C48   C     C_R   0.498089 0.999656 0.434914 0.108304
C49   C     C_R   0.996437 0.384262 0.425821 0.099126
C50   C     C_R   0.003563 0.615738 0.574179 0.099126
C51   C     C_R   0.003503 0.615737 0.925821 0.099126
C52   C     C_R   0.996497 0.384263 0.074179 0.099126
C53   C     C_R   0.496497 0.115737 0.074179 0.099125
C54   C     C_R   0.503503 0.884263 0.925821 0.099125
C55   C     C_R   0.503537 0.884263 0.574179 0.099125
C56   C     C_R   0.496463 0.115737 0.425821 0.099125
C57   C     C_R   0.999710 0.538977 0.481543 0.068136
C58   C     C_R   0.000290 0.461023 0.518457 0.068136
C59   C     C_R   0.000298 0.461023 0.981543 0.068136
C60   C     C_R   0.999702 0.538977 0.018457 0.068136
C61   C     C_R   0.499702 0.961023 0.018457 0.068135
C62   C     C_R   0.500297 0.038977 0.981543 0.068135
C63   C     C_R   0.500291 0.038977 0.518457 0.068137
C64   C     C_R   0.499709 0.961023 0.481543 0.068137
C65   C     C_R   0.999686 0.346778 0.507651 -0.213768
C66   C     C_R   0.000314 0.653222 0.492349 -0.213768
C67   C     C_R   0.000290 0.653222 0.007651 -0.213769
C68   C     C_R   0.999710 0.346778 0.992349 -0.213769
C69   C     C_R   0.499710 0.153222 0.992349 -0.213769
C70   C     C_R   0.500290 0.846778 0.007651 -0.213769
C71   C     C_R   0.500321 0.846778 0.492349 -0.213769
C72   C     C_R   0.499679 0.153222 0.507651 -0.213769
C73   C     C_R   0.997753 0.308660 0.462559 -0.067884
C74   C     C_R   0.002247 0.691340 0.537441 -0.067884
C75   C     C_R   0.002188 0.691340 0.962558 -0.067883
C76   C     C_R   0.997812 0.308660 0.037441 -0.067883
C77   C     C_R   0.497811 0.191340 0.037441 -0.067884
C78   C     C_R   0.502189 0.808660 0.962559 -0.067884
C79   C     C_R   0.502233 0.808660 0.537441 -0.067884
C80   C     C_R   0.497767 0.191340 0.462559 -0.067884
C81   C     C_1   0.997107 0.189870 0.455249 0.298059
N1    N     N_1   0.996609 0.094955 0.449495 -0.335647
C82   C     C_1   0.002893 0.810130 0.544751 0.298059
N2    N     N_1   0.003391 0.905045 0.550504 -0.335647
C83   C     C_1   0.002817 0.810129 0.955248 0.298059
N3    N     N_1   0.003302 0.905044 0.949494 -0.335647
C84   C     C_1   0.997183 0.189871 0.044752 0.298059
N4    N     N_1   0.996698 0.094955 0.050506 -0.335647
C85   C     C_1   0.497184 0.310129 0.044751 0.298059
N5    N     N_1   0.496701 0.405044 0.050505 -0.335646
C86   C     C_1   0.502815 0.689871 0.955249 0.298059
N6    N     N_1   0.503299 0.594956 0.949495 -0.335646
C87   C     C_1   0.502881 0.689870 0.544751 0.298059
N7    N     N_1   0.503381 0.594955 0.550505 -0.335647
C88   C     C_1   0.497119 0.310130 0.455249 0.298059
N8    N     N_1   0.496619 0.405045 0.449495 -0.335647

loop_
_geom_bond_atom_site_label_1
_geom_bond_atom_site_label_2
_ccdc_geom_bond_type
O14   V4    S    
C11   C27   A    
C60   C67   A    
C86   N6    T    
C44   C60   A    
C19   C27   A    
C20   C28   A    
C23   C31   A    
C85   N5    T    
C64   C71   A    
C87   N7    T    
C10   C34   A    
C9    C33   A    
C78   C86   S    
H22   C37   S    
H11   C19   S    
C7    C10   S    
O5    V1    S    
H3    C28   S    
C14   C38   A    
C71   C79   A    
C13   C37   A    
C72   C80   A    
C43   C59   A    
C15   C39   A    
C42   C58   A    
C10   C26   A    
H21   C38   S    
C45   C53   A    
C59   C60   A    
C68   C76   A    
O3    C2    A    
C47   C55   A    
H28   C68   S    
H12   C20   S    
C58   C65   A    
C9    C25   A    
C57   C66   A    
O20   V2    S    
H32   C72   S    
H23   C40   S    
H16   C24   S    
C59   C68   A    
C62   C69   A    
C61   C70   A    
O12   V1    S    
C75   C83   S    
C41   C49   A    
C63   C72   A    
C22   C30   A    
C76   C84   S    
O15   C7    A    
H17   C34   S    
C21   C29   A    
C20   C52   A    
C24   C32   A    
H4    C27   S    
O12   C4    A    
C56   C80   A    
C74   C82   S    
C17   C25   A    
C16   C32   A    
C39   C47   A    
H27   C67   S    
C44   C52   A    
H26   C66   S    
C53   C77   A    
C12   C28   A    
C19   C51   A    
C51   C75   A    
H24   C39   S    
C37   C45   A    
C48   C56   A    
C49   C73   A    
H14   C22   S    
O17   V3    S    
H8    C31   S    
H13   C21   S    
O18   V4    S    
C33   C41   A    
O19   V1    S    
H15   C23   S    
C18   C50   A    
O3    V4    S    
C77   C85   S    
C17   C49   A    
C88   N8    T    
O11   C3    A    
C24   C56   A    
C11   C35   A    
O8    C5    A    
O13   C5    A    
C22   C54   A    
H6    C29   S    
C21   C53   A    
H20   C35   S    
C38   C46   A    
H5    C30   S    
O11   V2    S    
C8    C9    S    
H10   C18   S    
C15   C31   A    
O4    C1    A    
H9    C17   S    
O6    V2    S    
H2    C25   S    
C40   C48   A    
C5    C12   S    
H1    C26   S    
C4    C13   S    
C46   C54   A    
O9    V1    S    
C41   C57   A    
C14   C30   A    
C80   C88   S    
C13   C29   A    
C36   C44   A    
H30   C70   S    
C57   C58   A    
C18   C26   A    
O9    C1    A    
C2    C15   S    
C50   C74   A    
O1    C4    A    
H7    C32   S    
C67   C75   A    
O2    C3    A    
C47   C63   A    
C65   C73   A    
C46   C62   A    
O8    V1    S    
H29   C69   S    
C82   N2    T    
O7    C6    A    
C43   C51   A    
C81   N1    T    
C69   C77   A    
H19   C36   S    
C42   C50   A    
C23   C55   A    
H18   C33   S    
C45   C61   A    
O15   V4    S    
O14   C6    A    
O1    V3    S    
O16   V3    S    
O4    V3    S    
C79   C87   S    
C83   N3    T    
C55   C79   A    
O5    C8    A    
O10   C2    A    
O6    C7    A    
C12   C36   A    
C34   C42   A    
O10   V2    S    
O13   V3    S    
C6    C11   S    
C52   C76   A    
C54   C78   A    
H25   C65   S    
C16   C40   A    
C73   C81   S    
C70   C78   A    
C1    C16   S    
O16   C8    A    
C63   C64   A    
C3    C14   S    
O2    V4    S    
O7    V2    S    
C35   C43   A    
C61   C62   A    
C66   C74   A    
H31   C71   S    
C84   N4    T    
C48   C64   A    
