data_mof_unit_26570.cif
_audit_creation_date              2012-12-11T15:37:34-0500
_audit_creation_method            fapswitch 2.2
_symmetry_space_group_name_H-M    P1
_symmetry_Int_Tables_number       1
_space_group_crystal_system       triclinic
_cell_length_a                    17.375435
_cell_length_b                    24.378142
_cell_length_c                    14.850289
_cell_angle_alpha                 89.945027
_cell_angle_beta                  125.752244
_cell_angle_gamma                 90.278082
_cell_volume                      5104.82417615

loop_
_atom_site_label
_atom_site_type_symbol
_atom_type_description
_atom_site_fract_x
_atom_site_fract_y
_atom_site_fract_z
_atom_type_partial_charge
C1    C     C_R   0.815951 0.633022 0.909791 -0.229547
C2    C     C_3   0.574802 0.497402 0.630939 0.171712
C3    C     C_3   0.041528 0.021290 0.519656 -0.145214
C4    C     C_3   0.931369 0.339504 0.235703 -0.383492
C5    C     C_3   0.946036 0.676846 0.777087 -0.263807
C6    C     C_3   0.101874 0.333759 0.796829 -0.378758
C7    C     C_3   0.025311 0.684021 0.228874 -0.323858
C8    C     C_3   0.400220 0.830903 0.204571 -0.387330
C9    C     C_3   0.483575 0.183406 0.774129 -0.313692
C10   C     C_3   0.568056 0.840075 0.764690 -0.382761
C11   C     C_3   0.566102 0.174194 0.227321 -0.255960
C12   C     C_3   0.837641 0.228877 0.780188 -0.281868
C13   C     C_3   0.900671 0.999929 0.461682 0.181786
C14   C     C_3   0.426011 0.683033 0.281916 -0.317384
C15   C     C_3   0.169678 0.227760 0.227713 -0.277204
C16   C     C_3   0.573526 0.683230 0.710585 -0.361225
C17   C     C_3   0.323937 0.726945 0.763986 -0.287821
C18   C     C_3   0.926700 0.182772 0.289836 -0.330492
C19   C     C_3   0.683086 0.709464 0.236001 -0.247448
C20   C     C_3   0.073677 0.182427 0.717960 -0.345467
C21   C     C_3   0.074962 0.997406 0.632416 0.171108
C22   C     C_R   0.793475 0.227823 0.895986 0.627175
C23   C     C_R   0.348328 0.682938 0.091430 0.641500
C24   C     C_R   0.215404 0.232367 0.113059 0.633238
C25   C     C_R   0.655240 0.684882 0.902948 0.653989
C26   C     C_R   0.288203 0.729499 0.887661 0.633186
C27   C     C_R   0.850347 0.181607 0.098850 0.653918
C28   C     C_R   0.706012 0.729543 0.104480 0.622542
C29   C     C_R   0.147519 0.347713 0.095460 -0.221316
C30   C     C_R   0.160987 0.187151 0.910482 0.648606
C31   C     C_R   0.235329 0.688456 0.892125 -0.336881
C32   C     C_R   0.899198 0.226668 0.095438 -0.458837
C33   C     C_R   0.759920 0.688327 0.103304 -0.377225
C34   C     C_R   0.103107 0.225369 0.914887 -0.433436
C35   C     C_R   0.746087 0.182824 0.898674 -0.350306
C36   C     C_R   0.402509 0.723850 0.085559 -0.432841
C37   C     C_R   0.274312 0.196061 0.109615 -0.340624
C38   C     C_R   0.602190 0.727399 0.905154 -0.462975
C39   C     C_R   0.256819 0.671562 0.994562 -0.086709
C40   C     C_R   0.189088 0.628108 0.092095 -0.219203
C41   C     C_R   0.860342 0.255720 0.996352 -0.071532
C42   C     C_R   0.743254 0.672035 0.003067 -0.065883
C43   C     C_R   0.140024 0.255624 0.012248 -0.083566
C44   C     C_R   0.764243 0.165484 0.999107 -0.073518
C45   C     C_R   0.362158 0.754384 0.987978 -0.079109
C46   C     C_R   0.253903 0.179720 0.007377 -0.094829
C47   C     C_R   0.638294 0.756224 0.003933 -0.049818
C48   C     C_R   0.089377 0.449450 0.610760 -0.181061
C49   C     C_R   0.118115 0.548531 0.540596 -0.162479
C50   C     C_R   0.111613 0.449291 0.535640 -0.172059
C51   C     C_R   0.851068 0.347371 0.907413 -0.255625
C52   C     C_R   0.096981 0.548697 0.616997 -0.163200
C53   C     C_R   0.387853 0.948753 0.463847 -0.165767
C54   C     C_R   0.400318 0.048152 0.380161 -0.160256
C55   C     C_R   0.407225 0.948932 0.386141 -0.182859
C56   C     C_R   0.381871 0.047986 0.458921 -0.158438
C57   C     C_R   0.112925 0.499027 0.489408 0.138677
C58   C     C_R   0.071984 0.499303 0.642408 0.152715
C59   C     C_R   0.423842 0.998831 0.353368 0.150057
C60   C     C_R   0.387798 0.998537 0.510736 0.141343
C61   C     C_R   0.940289 0.349126 0.091397 0.608594
C62   C     C_R   0.320057 0.136957 0.909526 -0.205512
C63   C     C_R   0.088283 0.634820 0.907589 0.552290
C64   C     C_R   0.058862 0.347334 0.912251 0.609178
C65   C     C_R   0.908676 0.629336 0.094540 0.594751
C66   C     C_R   0.440954 0.847179 0.087601 0.618726
C67   C     C_R   0.595198 0.126422 0.906884 0.594040
C68   C     C_R   0.558621 0.848928 0.908664 0.604803
C69   C     C_R   0.417920 0.138383 0.094060 0.544129
C70   C     C_R   0.058334 0.545245 0.309002 -0.043870
C71   C     C_R   0.998017 0.454029 0.728206 -0.127536
C72   C     C_R   0.002261 0.545713 0.731502 -0.169440
C73   C     C_R   0.648214 0.847596 0.092848 -0.226439
C74   C     C_R   0.057958 0.454128 0.308081 -0.127073
C75   C     C_R   0.494173 0.045599 0.264735 -0.164429
C76   C     C_R   0.442340 0.953959 0.692067 -0.128251
C77   C     C_R   0.442017 0.045085 0.691049 -0.043103
C78   C     C_R   0.499336 0.953932 0.269373 -0.130211
C79   C     C_R   0.731276 0.453239 0.745370 -0.129775
C80   C     C_R   0.259315 0.545640 0.300856 -0.109056
C81   C     C_R   0.259634 0.454381 0.299904 -0.133727
C82   C     C_R   0.729315 0.544471 0.737973 -0.099065
C83   C     C_R   0.231420 0.953255 0.746471 -0.131745
C84   C     C_R   0.691149 0.125045 0.092220 -0.238403
C85   C     C_R   0.759541 0.045538 0.300891 -0.102932
C86   C     C_R   0.759984 0.954305 0.299497 -0.133421
C87   C     C_R   0.229526 0.044532 0.740510 -0.103255
C88   C     C_R   0.818827 0.644990 0.003220 -0.012678
C89   C     C_R   0.115462 0.314071 0.006135 -0.048447
C90   C     C_R   0.182026 0.645157 0.998044 0.014257
C91   C     C_R   0.882029 0.314892 0.999040 -0.035947
C92   C     C_R   0.328177 0.153881 0.003825 0.019782
C93   C     C_R   0.616087 0.814931 0.001068 -0.040259
C94   C     C_R   0.688230 0.137882 0.998807 -0.012330
C95   C     C_R   0.353707 0.847028 0.904748 -0.238980
C96   C     C_R   0.385008 0.813469 0.993814 -0.033760
C97   C     C_R   0.079384 0.499505 0.373947 -0.018026
C98   C     C_R   0.025107 0.499676 0.697567 0.018543
C99   C     C_R   0.470566 0.999417 0.297977 0.019236
C100  C     C_R   0.421400 0.999227 0.626265 -0.019752
C101  C     C_R   0.674790 0.498364 0.712905 0.040808
C102  C     C_R   0.308308 0.500114 0.359294 0.029838
C103  C     C_R   0.174961 0.998366 0.715163 0.042848
C104  C     C_R   0.808931 0.999994 0.358921 0.032431
C105  C     C_3   0.512601 0.446245 0.577851 -0.165077
C106  C     C_3   0.400118 0.500063 0.461589 0.181083
C107  C     C_3   0.462231 0.551164 0.515033 -0.156982
C108  C     C_3   0.477964 0.469755 0.463882 -0.123646
C109  C     C_3   0.497607 0.527810 0.629896 -0.128122
C110  C     C_3   0.013237 0.946168 0.578069 -0.165612
C111  C     C_3   0.962286 0.051113 0.516330 -0.156750
C112  C     C_3   0.979281 0.970189 0.464677 -0.128140
C113  C     C_3   0.996984 0.027252 0.630624 -0.133440
C114  C     C_3   0.432697 0.476565 0.574080 -0.175732
C115  C     C_3   0.540684 0.520775 0.517640 -0.147634
C116  C     C_3   0.932596 0.975925 0.573612 -0.168056
H1    H     H_    0.765481 0.647586 0.826906 0.169200
H2    H     H_    0.989397 0.413140 0.697923 0.165219
H3    H     H_    0.070268 0.157606 0.653162 0.165962
H4    H     H_    0.003829 0.587141 0.708946 0.164250
H5    H     H_    0.080824 0.412781 0.336763 0.152263
H6    H     H_    0.490019 0.087120 0.284517 0.162828
H7    H     H_    0.419473 0.912484 0.663422 0.153552
H8    H     H_    0.418810 0.086111 0.660428 0.129560
H9    H     H_    0.507288 0.913147 0.299608 0.164781
H10   H     H_    0.710171 0.410600 0.729991 0.110649
H11   H     H_    0.273276 0.587656 0.329739 0.075215
H12   H     H_    0.274904 0.412096 0.326761 0.110644
H13   H     H_    0.185455 0.337025 0.181622 0.204317
H14   H     H_    0.703825 0.585162 0.706802 0.103592
H15   H     H_    0.210344 0.910603 0.731058 0.113014
H16   H     H_    0.773577 0.087491 0.330149 0.074038
H17   H     H_    0.775341 0.911987 0.326124 0.111272
H18   H     H_    0.203968 0.085401 0.711134 0.105899
H19   H     H_    0.384669 0.458842 0.593003 0.122267
H20   H     H_    0.586656 0.538734 0.495793 0.119078
H21   H     H_    0.884354 0.957654 0.591681 0.122419
H22   H     H_    0.087860 0.039744 0.498785 0.118214
H23   H     H_    0.535017 0.403332 0.605660 0.124663
H24   H     H_    0.247644 0.633085 0.177699 0.181767
H25   H     H_    0.440020 0.594154 0.487983 0.096012
H26   H     H_    0.467845 0.446231 0.393640 0.125171
H27   H     H_    0.509227 0.551213 0.700995 0.159186
H28   H     H_    0.035752 0.903214 0.605384 0.127072
H29   H     H_    0.939848 0.094124 0.489900 0.095600
H30   H     H_    0.969978 0.947078 0.394477 0.123076
H31   H     H_    0.007779 0.050299 0.701646 0.155010
H32   H     H_    0.175179 0.672247 0.814601 0.212811
H33   H     H_    0.964587 0.239885 0.170353 0.217734
H34   H     H_    0.816578 0.671671 0.181955 0.231851
H35   H     H_    0.813054 0.335333 0.821965 0.206981
H36   H     H_    0.034596 0.235220 0.840783 0.204463
H37   H     H_    0.692172 0.163943 0.820669 0.232833
H38   H     H_    0.471079 0.735199 0.158735 0.211379
H39   H     H_    0.336526 0.182272 0.187601 0.217701
H40   H     H_    0.536052 0.739212 0.829934 0.216594
H41   H     H_    0.077882 0.410439 0.635266 0.101778
H42   H     H_    0.126531 0.587598 0.512734 0.113789
H43   H     H_    0.114476 0.410088 0.503842 0.105770
H44   H     H_    0.092799 0.587822 0.648004 0.122474
H45   H     H_    0.385724 0.909556 0.496371 0.105972
H46   H     H_    0.268861 0.150523 0.825899 0.160049
H47   H     H_    0.404016 0.087294 0.348648 0.122131
H48   H     H_    0.417506 0.909941 0.360635 0.101951
H49   H     H_    0.374651 0.087056 0.487558 0.114562
H50   H     H_    0.868383 0.311999 0.188202 0.160345
H51   H     H_    0.907153 0.382552 0.227872 0.165892
H52   H     H_    0.971641 0.327860 0.324450 0.177567
H53   H     H_    0.945614 0.696298 0.844613 0.141351
H54   H     H_    0.902104 0.638886 0.747033 0.138936
H55   H     H_    0.912829 0.706053 0.706708 0.174518
H56   H     H_    0.157218 0.303283 0.850972 0.167145
H57   H     H_    0.686662 0.836068 0.178598 0.209173
H58   H     H_    0.137038 0.374710 0.818334 0.152913
H59   H     H_    0.074714 0.323908 0.710073 0.169989
H60   H     H_    0.996289 0.719997 0.172069 0.152692
H61   H     H_    0.081992 0.663989 0.227349 0.135833
H62   H     H_    0.058403 0.699531 0.314340 0.183133
H63   H     H_    0.346506 0.799185 0.151484 0.167802
H64   H     H_    0.362727 0.870906 0.182495 0.150983
H65   H     H_    0.428653 0.821283 0.291803 0.172920
H66   H     H_    0.514852 0.218729 0.832880 0.150209
H67   H     H_    0.424596 0.164603 0.773198 0.132754
H68   H     H_    0.748400 0.131045 0.177961 0.188953
H69   H     H_    0.452919 0.199618 0.689777 0.184145
H70   H     H_    0.631382 0.813218 0.812329 0.159082
H71   H     H_    0.591901 0.883381 0.772772 0.165321
H72   H     H_    0.528110 0.828341 0.675930 0.177205
H73   H     H_    0.569364 0.191861 0.160436 0.140354
H74   H     H_    0.604750 0.134704 0.256949 0.140738
H75   H     H_    0.603086 0.203235 0.298266 0.173354
H76   H     H_    0.843945 0.183378 0.782515 0.148356
H77   H     H_    0.907129 0.247994 0.844365 0.152386
H78   H     H_    0.817403 0.242984 0.698003 0.184770
H79   H     H_    0.318433 0.835662 0.819235 0.206926
H80   H     H_    0.379655 0.717962 0.269260 0.127772
H81   H     H_    0.498129 0.697436 0.312310 0.164123
H82   H     H_    0.433995 0.657047 0.348199 0.163352
H83   H     H_    0.165721 0.182148 0.222598 0.146757
H84   H     H_    0.099016 0.245743 0.164881 0.161036
H85   H     H_    0.189321 0.239711 0.310765 0.180820
H86   H     H_    0.611294 0.722293 0.720637 0.140323
H87   H     H_    0.498821 0.690832 0.679383 0.167015
H88   H     H_    0.571640 0.658817 0.646340 0.169105
H89   H     H_    0.322956 0.681267 0.762315 0.144456
H90   H     H_    0.081851 0.586344 0.339648 0.131814
H91   H     H_    0.397144 0.742404 0.826317 0.161950
H92   H     H_    0.301986 0.741473 0.681350 0.182091
H93   H     H_    0.881603 0.218908 0.274659 0.130388
H94   H     H_    0.000343 0.195596 0.323605 0.163692
H95   H     H_    0.930429 0.157587 0.354446 0.165047
H96   H     H_    0.719634 0.669148 0.260502 0.148567
H97   H     H_    0.606263 0.703801 0.168585 0.138906
H98   H     H_    0.688957 0.726569 0.308997 0.175463
H99   H     H_    0.107311 0.222287 0.722733 0.140199
H100  H     H_    0.999608 0.188051 0.690813 0.166032
N1    N     N_R   0.892620 0.603790 0.941800 -0.084161
N2    N     N_R   0.047790 0.602400 0.942090 -0.103082
N3    N     N_R   0.047790 0.397600 0.942090 -0.099173
N4    N     N_R   0.952210 0.602400 0.057910 -0.104885
N5    N     N_R   0.452210 0.897600 0.057910 -0.100570
N6    N     N_R   0.547790 0.102400 0.942090 -0.105787
N7    N     N_R   0.547790 0.897600 0.942090 -0.098288
N8    N     N_R   0.452210 0.102400 0.057910 -0.102490
N9    N     N_R   0.026300 0.529110 0.206760 -0.049451
N10   N     N_R   0.973700 0.470890 0.793240 -0.034790
N11   N     N_R   0.973700 0.529110 0.793240 -0.047130
N12   N     N_R   0.107380 0.396210 0.058200 -0.084222
N13   N     N_R   0.026300 0.470890 0.206760 -0.043264
N14   N     N_R   0.526300 0.029110 0.206760 -0.046041
N15   N     N_R   0.473700 0.970890 0.793240 -0.043579
N16   N     N_R   0.473700 0.029110 0.793240 -0.050585
N17   N     N_R   0.526300 0.970890 0.206760 -0.034604
N18   N     N_R   0.818530 0.472270 0.792960 -0.037147
N19   N     N_R   0.181470 0.527730 0.207040 -0.036259
N20   N     N_R   0.181470 0.472270 0.207040 -0.032996
N21   N     N_R   0.818530 0.527730 0.792960 -0.044823
N22   N     N_R   0.318530 0.972270 0.792960 -0.037414
N23   N     N_R   0.107380 0.603790 0.058200 -0.083854
N24   N     N_R   0.681470 0.027730 0.207040 -0.037388
N25   N     N_R   0.681470 0.972270 0.207040 -0.034519
N26   N     N_R   0.318530 0.027730 0.792960 -0.046102
N27   N     N_R   0.892620 0.396210 0.941800 -0.084265
N28   N     N_R   0.392620 0.103790 0.941800 -0.079922
N29   N     N_R   0.607380 0.896210 0.058200 -0.088204
N30   N     N_R   0.607380 0.103790 0.058200 -0.089073
N31   N     N_R   0.392620 0.896210 0.941800 -0.084216
N32   N     N_R   0.952210 0.397600 0.057910 -0.097108
Ni1   Ni    Ni4+2 0.934150 0.565840 0.869060 0.187223
Ni2   Ni    Ni4+2 0.065850 0.434160 0.130940 0.225313
Ni3   Ni    Ni4+2 0.065850 0.565840 0.130940 0.192721
Ni4   Ni    Ni4+2 0.934150 0.434160 0.869060 0.229262
Ni5   Ni    Ni4+2 0.434150 0.065840 0.869060 0.190561
Ni6   Ni    Ni4+2 0.565850 0.934160 0.130940 0.232342
Ni7   Ni    Ni4+2 0.565850 0.065840 0.130940 0.189570
Ni8   Ni    Ni4+2 0.434150 0.934160 0.869060 0.225847
O1    O     O_3   0.991455 0.334158 0.201234 -0.650758
O2    O     O_3   0.385610 0.650647 0.185323 -0.613011
O3    O     O_3   0.239391 0.248111 0.215797 -0.629974
O4    O     O_3   0.620620 0.652301 0.809477 -0.622201
O5    O     O_3   0.259871 0.747565 0.784545 -0.627758
O6    O     O_3   0.888183 0.150035 0.193930 -0.611964
O7    O     O_3   0.726569 0.746317 0.205046 -0.634892
O8    O     O_3   0.127160 0.153297 0.818925 -0.622426
O9    O     O_3   0.039417 0.666317 0.811620 -0.649223
O10   O     O_3   0.024617 0.333014 0.805262 -0.646302
O11   O     O_3   0.952834 0.646506 0.202586 -0.645710
O12   O     O_3   0.476771 0.832570 0.194896 -0.640784
O13   O     O_3   0.553351 0.144397 0.799803 -0.644148
O14   O     O_3   0.507819 0.833739 0.798853 -0.648383
O15   O     O_3   0.471591 0.168076 0.192428 -0.650294
O16   O     O_3   0.767263 0.245473 0.793488 -0.627487

loop_
_geom_bond_atom_site_label_1
_geom_bond_atom_site_label_2
_ccdc_geom_bond_type
C8    H65   S    
C52   H44   S    
C28   C47   A    
C5    O9    S    
C4    O1    S    
C55   C59   A    
C75   N14   A    
C75   H6    S    
C59   C99   S    
C12   H77   S    
C37   H39   S    
C16   H88   S    
C95   C96   A    
C58   C98   S    
C70   N9    A    
N19   Ni3   S    
C40   N23   A    
C8    O12   S    
C86   C104  A    
C108  H26   S    
C21   C110  S    
N19   N20   A    
C36   H38   S    
C2    C109  S    
C26   O5    S    
C6    H56   S    
N7    N29   A    
N1    N4    A    
N10   Ni4   S    
C22   C35   A    
C14   H82   S    
C24   O3    S    
C78   N17   A    
C43   C89   S    
C83   C103  A    
N14   N17   A    
N15   Ni8   S    
C33   C42   A    
C20   H100  S    
C108  C115  S    
C18   H94   S    
C55   H48   S    
C18   O6    S    
C13   C112  S    
C9    H69   S    
C33   H34   S    
C111  H29   S    
C85   H16   S    
C16   O4    S    
C22   C41   A    
C73   N29   A    
C6    H59   S    
C82   N21   A    
C49   C57   A    
C7    H61   S    
C77   C100  A    
C84   N30   A    
C9    O13   S    
C9    H66   S    
C26   C45   A    
C51   C91   A    
N5    Ni6   S    
C25   O4    S    
C27   C44   A    
C112  H30   S    
C29   H13   S    
C32   H33   S    
C23   O2    S    
C3    C111  S    
C77   N16   A    
C72   N11   A    
C62   C92   A    
C56   H49   S    
C6    O10   S    
C67   C94   A    
C10   H72   S    
C5    H54   S    
C45   C96   S    
C38   H40   S    
N3    N12   A    
C82   H14   S    
C16   H87   S    
C39   C90   S    
C30   O8    S    
N13   Ni2   S    
C64   N3    A    
C70   C97   A    
N11   Ni1   S    
C113  C116  S    
C95   N31   A    
N31   Ni8   S    
C1    C88   A    
C48   C50   A    
C83   N22   A    
C51   H35   S    
C26   C31   A    
N9    Ni3   S    
C115  H20   S    
C17   O5    S    
C50   C57   A    
C87   H18   S    
N21   Ni1   S    
N1    Ni1   S    
N2    N23   A    
C74   N13   A    
C16   H86   S    
N7    Ni8   S    
C29   C89   A    
C15   H85   S    
C53   C60   A    
N32   Ni2   S    
C10   H71   S    
C74   C97   A    
N12   Ni2   S    
C54   C59   A    
C53   C55   A    
C5    H55   S    
C12   H76   S    
C105  C108  S    
C54   C56   A    
C81   C102  A    
N10   N11   A    
C30   C34   A    
N23   Ni3   S    
C19   H96   S    
C20   H99   S    
C12   O16   S    
C105  C114  S    
C17   H91   S    
C18   H93   S    
C71   N10   A    
C109  H27   S    
N14   Ni7   S    
C14   O2    S    
C69   N8    A    
N18   Ni4   S    
C34   H36   S    
N8    N28   A    
C87   N26   A    
C72   C98   A    
C6    H58   S    
C85   N24   A    
C29   N12   A    
C27   O6    S    
C62   N28   A    
N9    N13   A    
C56   C60   A    
C7    H62   S    
N22   Ni8   S    
C61   N32   A    
N18   N21   A    
C66   N5    A    
C67   N6    A    
C7    O11   S    
C53   H45   S    
C68   O14   S    
C107  C109  S    
C9    H67   S    
C25   C38   A    
C69   O15   S    
C15   H83   S    
C2    C115  S    
C8    H64   S    
C86   H17   S    
C46   C92   S    
C84   H68   S    
C3    C112  S    
C114  H19   S    
C49   C52   A    
C57   C97   S    
C7    H60   S    
C72   H4    S    
C76   N15   A    
C80   N19   A    
C24   C37   A    
C47   C93   S    
C81   N20   A    
C36   C45   A    
C111  C113  S    
C3    H22   S    
C84   C94   A    
C106  C107  S    
C13   C104  S    
C110  H28   S    
C35   C44   A    
C63   O9    S    
C75   C99   A    
C107  C115  S    
C38   C47   A    
C85   C104  A    
C52   C58   A    
C109  C114  S    
C87   C103  A    
C31   H32   S    
N17   Ni6   S    
C21   C113  S    
C41   C91   S    
C79   H10   S    
C106  C114  S    
C28   C33   A    
C23   C36   A    
C19   H97   S    
N3    Ni4   S    
C81   H12   S    
C10   O14   S    
C54   H47   S    
N2    Ni1   S    
C49   H42   S    
C3    C21   S    
C68   N7    A    
C76   C100  A    
C32   C41   A    
C69   C92   A    
C110  C116  S    
C78   C99   A    
C15   O3    S    
C63   N2    A    
C65   C88   A    
C66   C96   A    
C116  H21   S    
C48   H41   S    
N6    Ni5   S    
C22   O16   S    
N26   Ni5   S    
C83   H15   S    
C14   H80   S    
C71   C98   A    
N24   Ni7   S    
C95   H79   S    
N27   Ni4   S    
C71   H2    S    
C27   C32   A    
C76   H7    S    
C11   O15   S    
C30   C46   A    
C17   H92   S    
C51   N27   A    
N16   Ni5   S    
C35   H37   S    
C79   N18   A    
N20   Ni2   S    
C60   C100  S    
C25   C42   A    
C65   N4    A    
C48   C58   A    
C80   H11   S    
C50   H43   S    
C70   H90   S    
C28   O7    S    
N5    N31   A    
N29   Ni6   S    
N22   N26   A    
C2    C105  S    
C68   C93   A    
C2    C101  S    
C4    H51   S    
C61   O1    S    
N28   Ni5   S    
C11   H74   S    
C40   C90   A    
C19   H98   S    
C17   H89   S    
C18   H95   S    
C13   C111  S    
C77   H8    S    
C64   O10   S    
C20   O8    S    
C66   O12   S    
C15   H84   S    
N6    N30   A    
C8    H63   S    
C113  H31   S    
C62   H46   S    
C106  C108  S    
C86   N25   A    
C23   C39   A    
C73   C93   A    
C40   H24   S    
C63   C90   A    
N24   N25   A    
C10   H70   S    
C82   C101  A    
C4    H50   S    
C102  C106  S    
C64   C89   A    
C11   H75   S    
C73   H57   S    
C14   H81   S    
C110  C112  S    
C13   C116  S    
C44   C94   S    
C19   O7    S    
C21   C103  S    
C67   O13   S    
C4    H52   S    
C74   H5    S    
C42   C88   S    
N27   N32   A    
N30   Ni7   S    
N4    Ni3   S    
C80   C102  A    
N15   N16   A    
C31   C39   A    
C24   C43   A    
C5    H53   S    
C79   C101  A    
C1    N1    A    
N25   Ni6   S    
C105  H23   S    
C11   H73   S    
C37   C46   A    
C1    H1    S    
C78   H9    S    
C107  H25   S    
C34   C43   A    
C20   H3    S    
C61   C91   A    
N8    Ni7   S    
C12   H78   S    
C65   O11   S    
