data_mof_unit_7192.cif
_audit_creation_date              2013-03-05T15:54:50-0500
_audit_creation_method            fapswitch 2.2
_symmetry_space_group_name_H-M    P1
_symmetry_Int_Tables_number       1
_space_group_crystal_system       triclinic
_cell_length_a                    14.037497
_cell_length_b                    14.171565
_cell_length_c                    29.937416
_cell_angle_alpha                 97.801389
_cell_angle_beta                  90.420652
_cell_angle_gamma                 120.092191
_cell_volume                      5085.37897827

loop_
_atom_site_label
_atom_site_type_symbol
_atom_site_description
_atom_site_fract_x
_atom_site_fract_y
_atom_site_fract_z
_atom_type_partial_charge
O1    O     O_R   0.494060 0.188820 0.559230 -0.506027
O2    O     O_R   0.678470 0.153390 0.554100 -0.539615
C1    C     C_R   0.724550 0.102407 0.567179 0.810035
O3    O     O_R   0.697870 0.003940 0.549410 -0.529748
O4    O     O_R   0.480980 0.827230 0.535590 -0.532976
C2    C     C_R   0.382360 0.787731 0.550697 0.773960
O5    O     O_R   0.309390 0.811640 0.537920 -0.544724
O6    O     O_R   0.341810 0.023400 0.546180 -0.530479
C3    C     C_R   0.430636 0.094309 0.572765 0.833133
O7    O     O_R   0.493150 0.185870 0.461540 -0.534553
O8    O     O_R   0.677630 0.150660 0.463530 -0.522835
C4    C     C_R   0.721712 0.097632 0.443382 0.789888
O9    O     O_R   0.696960 0.000990 0.451710 -0.547748
O10   O     O_R   0.480140 0.824500 0.445020 -0.529329
C5    C     C_R   0.381840 0.784678 0.425484 0.815961
O11   O     O_R   0.308480 0.808690 0.440220 -0.512760
O12   O     O_R   0.340970 0.020670 0.455610 -0.517018
C6    C     C_R   0.394588 0.116657 0.444113 0.877396
Cr1   Cr    Cr6+3 0.583400 0.162540 0.509180 1.042649
Cr2   Cr    Cr6+3 0.584070 0.916690 0.495550 0.998099
Cr3   Cr    Cr6+3 0.332550 0.920810 0.495240 1.026092
O13   O     O_3   0.500010 0.000010 0.499990 -0.392352
C7    C     C_R   0.357592 0.727855 0.590217 -0.106662
C8    C     C_R   0.440928 0.717790 0.611423 -0.156823
C9    C     C_R   0.434353 0.695256 0.655631 0.217486
C10   C     C_R   0.349349 0.692879 0.680677 -0.010016
C11   C     C_R   0.261262 0.696183 0.659148 -0.114482
C12   C     C_R   0.259952 0.701552 0.612399 -0.082247
C13   C     C_R   0.262681 0.680854 0.839401 0.143114
C14   C     C_R   0.252123 0.663481 0.884692 -0.067191
C15   C     C_R   0.398416 0.619052 0.879990 -0.140012
C16   C     C_R   0.418685 0.651811 0.837535 -0.071386
C17   C     C_R   0.346511 0.675309 0.815867 0.088527
C18   C     C_1   0.352619 0.683558 0.768440 0.100252
C19   C     C_1   0.352846 0.687796 0.728508 0.059725
C20   C     C_R   0.310428 0.617591 0.902769 -0.084413
H1    H     H_    0.513574 0.731700 0.594381 0.178165
H2    H     H_    0.484884 0.649517 0.819996 0.174637
H3    H     H_    0.447726 0.588759 0.893663 0.177622
C21   C     C_3   0.335375 0.010908 0.730658 -0.234045
C22   C     C_3   0.262156 0.126607 0.703964 0.053734
C23   C     C_3   0.225853 0.140623 0.754354 -0.207197
H4    H     H_    0.259137 0.943325 0.711299 0.082678
H5    H     H_    0.226626 0.219333 0.760675 0.186597
C24   C     C_1   0.285806 0.194290 0.876872 -0.045070
C25   C     C_3   0.367850 0.115532 0.707204 0.020697
C26   C     C_3   0.307642 0.029185 0.781672 0.068494
C27   C     C_3   0.311914 0.145365 0.790744 -0.046567
C28   C     C_3   0.428539 0.247961 0.784989 0.036883
C29   C     C_3   0.465361 0.219165 0.738509 -0.270020
C30   C     C_1   0.290331 0.167869 0.837679 0.019654
C31   C     C_1   0.399439 0.102898 0.660081 0.014107
C32   C     C_1   0.415988 0.098761 0.620408 -0.063473
H6    H     H_    0.519102 0.187780 0.746672 0.144397
C33   C     C_3   0.733201 0.121939 0.717480 -0.234282
C34   C     C_3   0.913153 0.314074 0.722372 0.267821
C35   C     C_3   0.941619 0.317577 0.774793 0.262969
C36   C     C_1   0.914692 0.206849 0.875446 -0.064480
C37   C     C_3   0.846549 0.187781 0.697394 -0.090648
C38   C     C_3   0.748923 0.132157 0.770942 -0.101970
C39   C     C_3   0.877569 0.195388 0.786005 -0.037659
C40   C     C_3   0.926716 0.131046 0.758087 -0.429760
C41   C     C_3   0.907317 0.124216 0.706208 0.304668
C42   C     C_1   0.896185 0.198483 0.835248 0.057619
C43   C     C_1   0.824720 0.175478 0.648270 0.088790
C44   C     C_1   0.787517 0.147363 0.609620 -0.029205
H7    H     H_    0.891046 0.047129 0.767207 0.200199
H8    H     H_    0.701396 0.034203 0.704118 0.168437
H9    H     H_    0.015403 0.171933 0.767264 0.182283
C45   C     C_3   0.289174 0.741049 0.272059 -0.228731
C46   C     C_3   0.290109 0.562696 0.271013 -0.316223
C47   C     C_3   0.296036 0.542124 0.218789 0.108310
H10   H     H_    0.206445 0.701302 0.285487 0.198886
H11   H     H_    0.322132 0.519948 0.289475 0.218972
H12   H     H_    0.202251 0.527181 0.278508 0.179377
C48   C     C_1   0.309205 0.607543 0.110658 -0.070934
C49   C     C_3   0.353418 0.688137 0.290012 -0.013307
C50   C     C_3   0.272508 0.716206 0.218848 0.270099
C51   C     C_3   0.338888 0.656765 0.200549 -0.031082
C52   C     C_3   0.464209 0.733150 0.220162 -0.282396
C53   C     C_3   0.471836 0.745420 0.273213 0.052232
C54   C     C_1   0.327764 0.635748 0.150871 -0.024269
C55   C     C_1   0.358418 0.705191 0.339655 0.029176
C56   C     C_1   0.364978 0.733113 0.379708 -0.064030
H13   H     H_    0.516621 0.833521 0.289279 0.156391
H14   H     H_    0.511515 0.693133 0.207658 0.140172
C57   C     C_R   0.350365 0.139187 0.403792 -0.177797
C58   C     C_R   0.418250 0.235986 0.384841 -0.128281
C59   C     C_R   0.402774 0.234376 0.338191 0.090534
C60   C     C_R   0.315246 0.140433 0.311576 -0.049796
C61   C     C_R   0.236995 0.052280 0.331727 0.198750
C62   C     C_R   0.251207 0.054284 0.378491 0.156433
C63   C     C_R   0.222810 0.075740 0.143896 0.120014
C64   C     C_R   0.229833 0.094632 0.098666 -0.117666
C65   C     C_R   0.404140 0.268240 0.121059 0.143845
C66   C     C_R   0.400875 0.242746 0.164521 -0.124703
C67   C     C_R   0.308559 0.151394 0.176696 0.043459
C68   C     C_1   0.304196 0.139428 0.223548 0.122306
C69   C     C_1   0.306113 0.136563 0.263459 0.114858
C70   C     C_R   0.313620 0.198578 0.088307 -0.126456
H15   H     H_    0.468840 0.298144 0.189777 0.193736
H16   H     H_    0.827716 0.326369 0.183076 0.163086
C71   C     C_R   0.786042 0.141303 0.403907 -0.155090
C72   C     C_R   0.821764 0.077924 0.376124 -0.128924
C73   C     C_R   0.837862 0.092447 0.330603 0.197000
C74   C     C_R   0.816029 0.167316 0.312903 0.001079
C75   C     C_R   0.798973 0.243507 0.342077 -0.114870
C76   C     C_R   0.791689 0.234882 0.388580 -0.101559
C77   C     C_R   0.836453 0.264682 0.160704 -0.174471
C78   C     C_R   0.864026 0.281285 0.116340 -0.033278
C79   C     C_R   0.858637 0.105450 0.104168 -0.244100
C80   C     C_R   0.828673 0.087585 0.147750 -0.005423
C81   C     C_R   0.823856 0.171411 0.177100 0.101729
C82   C     C_1   0.818177 0.169603 0.224832 0.138523
C83   C     C_1   0.817206 0.168955 0.264925 0.157550
C84   C     C_R   0.885465 0.205085 0.089045 -0.030740
H17   H     H_    0.867562 0.042682 0.082777 0.142307
O14   O     O_R   0.969690 0.151000 0.934080 -0.538958
O15   O     O_R   0.187530 0.180840 0.938210 -0.528717
C85   C     C_R   0.280521 0.232551 0.922356 0.838313
O16   O     O_R   0.358160 0.327300 0.941250 -0.527071
O17   O     O_R   0.323950 0.507710 0.953980 -0.544008
C86   C     C_R   0.267763 0.550512 0.939689 0.804804
O18   O     O_R   0.170530 0.527770 0.952070 -0.520379
O19   O     O_R   0.987720 0.318450 0.945940 -0.521187
C87   C     C_R   0.950799 0.222856 0.922166 0.811361
O20   O     O_R   0.976400 0.159230 0.032040 -0.559909
O21   O     O_R   0.193740 0.188470 0.029020 -0.533025
C88   C     C_R   0.292285 0.241148 0.048720 0.851659
O22   O     O_R   0.364860 0.335530 0.039220 -0.522737
O23   O     O_R   0.330170 0.515340 0.044800 -0.539234
C89   C     C_R   0.274324 0.557261 0.064628 0.808138
O24   O     O_R   0.177230 0.536000 0.050040 -0.511318
O25   O     O_R   0.993930 0.326080 0.036750 -0.506568
C90   C     C_R   0.951327 0.230566 0.049173 0.818206
Cr4   Cr    Cr6+3 0.086700 0.177000 0.983690 1.007195
Cr5   Cr    Cr6+3 0.336880 0.419130 0.994740 1.004629
Cr6   Cr    Cr6+3 0.084850 0.422220 0.995960 1.056675
O26   O     O_3   0.169480 0.339450 0.991460 -0.371727
C91   C     C_2   0.182092 0.694902 0.912577 0.533590
H18   H     H_    0.107094 0.686688 0.897867 0.107386
O27   O     O_2   0.210231 0.734517 0.952552 -0.489873
C92   C     C_2   0.290850 0.225018 0.679783 0.577358
H19   H     H_    0.301821 0.217877 0.643872 0.089145
O28   O     O_2   0.301541 0.311980 0.698671 -0.474038
I1    I     I_    0.138399 0.983651 0.653788 -0.277668
C93   C     C_2   0.107971 0.063409 0.764520 0.430821
H20   H     H_    0.083761 0.078648 0.797875 0.070803
O29   O     O_2   0.039901 0.983326 0.738263 -0.467184
C94   C     C_2   0.539613 0.322382 0.718187 0.508820
H21   H     H_    0.609969 0.390663 0.739270 0.141902
O30   O     O_2   0.524418 0.331493 0.679221 -0.497963
C95   C     C_2   0.516278 0.274734 0.822992 0.504937
H22   H     H_    0.535285 0.213909 0.829442 0.080340
O31   O     O_2   0.568158 0.365205 0.846865 -0.472034
C96   C     C_2   0.410056 0.963724 0.721832 0.402245
H23   H     H_    0.399750 0.914995 0.689087 0.076385
O32   O     O_2   0.484383 0.981836 0.748894 -0.531869
I2    I     I_    0.396851 0.002892 0.835151 -0.307319
I3    I     I_    0.140197 0.695090 0.804656 -0.273435
I4    I     I_    0.422133 0.402977 0.791826 -0.268659
C97   C     C_2   0.697016 0.191393 0.796527 0.438120
H24   H     H_    0.669871 0.173457 0.829761 0.121930
O33   O     O_2   0.694311 0.266853 0.782799 -0.560518
C98   C     C_2   0.643486 0.133981 0.695549 0.423716
H25   H     H_    0.640681 0.208082 0.702466 0.113432
O34   O     O_2   0.581110 0.063548 0.664385 -0.572752
I5    I     I_    0.052869 0.423183 0.687787 -0.163352
I6    I     I_    0.832354 0.405983 0.710440 -0.158960
I7    I     I_    0.919909 0.432613 0.824409 -0.213355
I8    I     I_    0.118913 0.391282 0.794048 -0.364573
I9    I     I_    0.826213 0.951426 0.673926 -0.218609
I10   I     I_    0.049118 0.179118 0.670435 -0.238978
C99   C     C_2   0.178688 0.706550 0.686863 0.442241
H26   H     H_    0.206283 0.755888 0.719993 0.039256
O35   O     O_2   0.081161 0.661536 0.673437 -0.473706
C100  C     C_2   0.693279 0.015491 0.783969 0.430424
H27   H     H_    0.669768 0.942943 0.758860 0.101198
O36   O     O_2   0.678038 0.001213 0.823252 -0.513402
I11   I     I_    0.096448 0.624887 0.199277 -0.268175
I12   I     I_    0.140398 0.401740 0.187602 -0.423243
C101  C     C_2   0.370684 0.494488 0.207130 0.464942
H28   H     H_    0.413566 0.509876 0.176569 0.060282
O37   O     O_2   0.376681 0.431219 0.229369 -0.501849
C102  C     C_2   0.158701 0.683474 0.587528 0.587001
H29   H     H_    0.116144 0.725927 0.600802 0.094022
O38   O     O_2   0.122245 0.620328 0.551591 -0.483466
I13   I     I_    0.575786 0.688210 0.297918 -0.174513
C103  C     C_2   0.524241 0.841765 0.202315 0.510244
H30   H     H_    0.530096 0.840462 0.166127 0.075545
O39   O     O_2   0.567579 0.930968 0.227257 -0.517498
C104  C     C_2   0.344764 0.862886 0.291853 0.403517
H31   H     H_    0.413575 0.924794 0.276758 0.122117
O40   O     O_2   0.317561 0.892054 0.327282 -0.526285
I14   I     I_    0.308650 0.858123 0.185962 -0.316302
C105  C     C_2   0.151290 0.004383 0.062602 0.517249
H32   H     H_    0.066918 0.947888 0.068923 0.061221
O41   O     O_2   0.181626 0.990429 0.025408 -0.490596
I15   I     I_    0.081130 0.936592 0.163296 -0.273327
I16   I     I_    0.106023 0.909134 0.290175 -0.135794
I17   I     I_    0.117673 0.933290 0.410419 -0.180965
C106  C     C_2   0.503025 0.340044 0.413426 0.510057
H33   H     H_    0.580738 0.394523 0.400665 0.063737
O42   O     O_2   0.485030 0.367683 0.451391 -0.489747
I18   I     I_    0.550129 0.415031 0.110454 -0.276800
I19   I     I_    0.513709 0.372720 0.306942 -0.260805
C107  C     C_2   0.868740 0.378214 0.100750 0.484563
H34   H     H_    0.887708 0.450623 0.125157 0.096147
O43   O     O_2   0.844075 0.375667 0.061245 -0.493639
C108  C     C_2   0.792758 0.334576 0.324775 0.404076
H35   H     H_    0.824361 0.414243 0.346049 0.068524
O44   O     O_2   0.750512 0.321310 0.286941 -0.500790
C109  C     C_2   0.789533 0.323522 0.420701 0.486173
H36   H     H_    0.743290 0.361404 0.411350 0.006075
O45   O     O_2   0.842092 0.356734 0.457711 -0.484521
C110  C     C_2   0.845794 0.000259 0.395516 0.544555
H37   H     H_    0.885684 0.023485 0.429600 0.050821
O46   O     O_2   0.816789 0.908353 0.374865 -0.462742
C111  C     C_2   0.809440 0.982586 0.160986 0.422625
H38   H     H_    0.832521 0.930562 0.139412 0.074243
O47   O     O_2   0.765098 0.950767 0.195007 -0.495333
I20   I     I_    0.904328 0.009281 0.288669 -0.163847
I21   I     I_    0.558287 0.671747 0.684173 -0.195932
C112  C     C_2   0.191843 0.935988 0.787180 0.479725
H39   H     H_    0.141470 0.871664 0.759081 0.112269
O48   O     O_2   0.150687 0.933001 0.823230 -0.489199

loop_
_geom_bond_atom_site_label_1
_geom_bond_atom_site_label_2
_geom_bond_distance
_ccdc_geom_bond_type
C65   I18   2.131154 S    
C21   C26   1.597970 S    
C57   C58   1.421308 A    
C98   H25   1.062893 S    
C33   C37   1.562526 S    
C34   I6    2.170803 S    
C45   C50   1.573539 S    
C48   C89   1.421308 S    
C52   C103  1.514618 S    
C2    O5    1.299157 A    
C65   C66   1.391929 A    
C26   C112  1.524492 S    
C112  H39   1.084129 S    
C67   C68   1.433609 S    
C41   I9    2.184511 S    
C45   C104  1.518438 S    
C86   O18   1.304981 A    
C75   C108  1.495058 S    
C26   I2    2.206975 S    
C109  H36   1.084242 S    
C85   O16   1.275918 A    
C21   C25   1.583898 S    
C4    O9    1.294371 A    
Cr5   O26   2.027881 S    
O8    Cr1   1.957837 S    
C10   C11   1.414619 A    
C29   H6    1.090831 S    
C106  O42   1.221321 D    
C40   H7    1.110204 S    
C55   C56   1.198276 T    
C64   C105  1.486827 S    
C28   C95   1.532619 S    
C96   H23   1.082940 S    
C63   I15   2.139265 S    
C110  O46   1.220765 D    
C47   I12   2.170269 S    
C88   O22   1.284088 A    
C78   C84   1.419268 A    
O21   Cr4   1.947057 S    
O4    C2    1.317283 A    
C102  O38   1.221273 D    
C74   C75   1.411478 A    
C24   C30   1.194400 T    
C101  O37   1.221146 D    
C92   H19   1.085495 S    
C25   C31   1.496369 S    
O6    Cr3   1.913618 S    
C34   C35   1.604582 S    
C92   O28   1.218668 D    
C18   C19   1.205026 T    
C22   C23   1.614421 S    
O16   Cr5   2.044074 S    
C103  O39   1.221319 D    
C99   H26   1.075725 S    
C72   C73   1.408785 A    
C52   H14   1.107415 S    
C46   H11   1.111274 S    
C81   C82   1.434739 S    
O14   Cr4   2.061114 S    
C21   H4    1.100388 S    
C102  H29   1.084306 S    
C22   I1    2.232696 S    
C93   H20   1.085950 S    
C13   C17   1.406125 A    
C15   H3    1.082822 S    
O6    C3    1.307590 A    
C100  O36   1.222568 D    
C38   C97   1.506421 S    
C7    C8    1.404593 A    
C8    C9    1.396083 A    
C41   I10   2.102148 S    
C78   C107  1.480691 S    
C16   H2    1.083107 S    
C95   O31   1.221580 D    
C89   O24   1.297258 A    
C53   I13   2.160289 S    
C28   I4    2.225393 S    
C76   C109  1.488010 S    
C77   C81   1.400847 A    
C33   C38   1.590952 S    
C73   I20   2.133987 S    
O24   Cr6   2.016550 S    
C98   O34   1.221564 D    
C66   H15   1.084173 S    
O21   C88   1.285156 A    
C45   C49   1.563589 S    
C103  H30   1.085432 S    
C23   H5    1.100303 S    
C45   H10   1.113508 S    
Cr4   O26   1.967847 S    
C23   C93   1.519967 S    
C11   C99   1.485049 S    
C80   C81   1.409226 A    
C36   C87   1.432771 S    
C33   H8    1.100446 S    
C13   I3    2.111285 S    
C97   O33   1.213977 D    
C15   C20   1.407696 A    
C109  O45   1.221359 D    
C36   C42   1.206472 T    
Cr1   O13   1.967406 S    
O4    Cr2   1.933030 S    
C27   C30   1.466054 S    
O1    Cr1   2.073900 S    
C106  H33   1.083361 S    
C107  H34   1.085087 S    
C26   C27   1.602357 S    
O10   Cr2   1.908767 S    
C20   C86   1.485941 S    
C14   C91   1.487158 S    
O20   Cr4   2.072877 S    
C72   C110  1.484957 S    
C4    C71   1.499637 S    
C8    H1    1.082793 S    
C82   C83   1.201696 T    
C48   C54   1.198870 T    
C61   C62   1.407137 A    
C84   C90   1.486103 S    
C65   C70   1.418308 A    
C52   C53   1.570963 S    
C38   C100  1.542813 S    
C9    C10   1.402458 A    
O5    Cr3   2.042112 S    
C5    O11   1.299308 A    
O12   Cr3   1.927278 S    
C40   H9    1.090645 S    
C38   C39   1.588433 S    
C104  O40   1.219392 D    
C39   C42   1.486209 S    
C13   C14   1.406410 A    
O23   Cr5   1.920933 S    
C111  O47   1.216833 D    
C64   C70   1.428802 A    
C29   C94   1.522569 S    
C59   I19   2.145156 S    
C49   C53   1.563680 S    
O7    Cr1   2.066375 S    
C22   C25   1.571897 S    
C66   C67   1.393154 A    
C34   I5    2.175524 S    
C40   C41   1.556350 S    
O12   C6    1.280463 A    
O1    C3    1.306749 A    
C63   C64   1.410233 A    
C23   C27   1.590651 S    
C7    C12   1.423641 A    
C110  H37   1.085682 S    
C35   C39   1.587606 S    
C71   C76   1.426822 A    
C47   C51   1.601593 S    
C100  H27   1.085016 S    
C61   I16   2.141057 S    
C24   C85   1.412470 S    
C105  O41   1.221451 D    
C27   C28   1.584000 S    
Cr2   O13   2.039891 S    
C108  H35   1.084190 S    
C108  O44   1.220853 D    
O19   C87   1.280298 A    
C28   C29   1.561357 S    
C94   O30   1.219755 D    
C1    C44   1.414419 S    
C3    C32   1.439975 S    
C33   C98   1.509975 S    
C75   C76   1.413974 A    
C1    O3    1.281394 A    
C59   C60   1.405073 A    
C63   C67   1.401902 A    
C60   C69   1.436420 S    
C46   C49   1.551562 S    
C57   C62   1.420056 A    
C31   C32   1.211147 T    
C35   I7    2.191877 S    
O18   Cr6   2.040388 S    
C111  H38   1.085815 S    
C16   C17   1.394788 A    
O9    Cr2   2.053961 S    
C93   O29   1.215836 D    
O2    Cr1   1.949564 S    
C70   C88   1.492745 S    
C35   I8    2.196798 S    
C15   C16   1.394608 A    
O15   Cr4   1.957374 S    
O17   Cr5   1.933612 S    
O20   C90   1.275786 A    
C105  H32   1.083096 S    
O23   C89   1.303073 A    
C112  O48   1.223673 D    
O25   Cr6   1.925416 S    
C51   C54   1.467877 S    
O15   C85   1.269071 A    
O11   Cr3   2.023583 S    
C22   C92   1.531774 S    
C5    C56   1.420551 S    
C91   O27   1.221370 D    
O19   Cr6   1.904091 S    
C97   H24   1.084814 S    
C73   C74   1.405973 A    
C25   C29   1.581284 S    
O25   C90   1.286988 A    
C37   C41   1.562235 S    
C6    C57   1.495591 S    
C94   H21   1.084819 S    
C34   C37   1.607786 S    
C14   C20   1.417214 A    
C74   C83   1.439769 S    
C79   H17   1.084128 S    
C79   C84   1.408296 A    
C104  H31   1.082217 S    
C96   O32   1.213857 D    
O2    C1    1.278864 A    
O17   C86   1.310842 A    
C47   C101  1.525242 S    
C46   C47   1.561651 S    
C12   C102  1.485833 S    
C37   C43   1.468763 S    
C46   H12   1.112202 S    
C50   C51   1.596016 S    
C60   C61   1.403371 A    
C79   C80   1.390792 A    
O7    C6    1.279898 A    
C91   H18   1.082682 S    
C2    C7    1.491116 S    
C80   C111  1.484197 S    
C17   C18   1.440080 S    
C9    I21   2.122383 S    
C50   I14   2.189342 S    
C43   C44   1.194826 T    
C39   C40   1.561516 S    
C50   I11   2.166033 S    
C99   O35   1.220366 D    
Cr6   O26   2.040142 S    
C51   C52   1.585552 S    
O3    Cr2   2.029999 S    
C10   C19   1.445184 S    
C58   C59   1.407162 A    
C68   C69   1.201579 T    
C77   C78   1.403643 A    
C71   C72   1.415961 A    
C107  O43   1.220562 D    
C49   C55   1.468349 S    
O10   C5    1.297030 A    
C21   C96   1.508315 S    
H16   C77   1.085179 S    
O14   C87   1.265900 A    
C58   C106  1.485186 S    
C95   H22   1.061382 S    
Cr3   O13   2.027771 S    
O22   Cr5   2.053859 S    
C53   H13   1.109425 S    
C62   I17   2.148389 S    
C101  H28   1.085159 S    
O8    C4    1.288492 A    
C11   C12   1.412352 A    
