data_mof_unit_50917.cif
_audit_creation_date              2012-12-10T20:25:40-0500
_audit_creation_method            fapswitch 2.2
_symmetry_space_group_name_H-M    P1
_symmetry_Int_Tables_number       1
_space_group_crystal_system       triclinic
_cell_length_a                    8.57413
_cell_length_b                    10.766509
_cell_length_c                    9.870258
_cell_angle_alpha                 89.304796
_cell_angle_beta                  97.518908
_cell_angle_gamma                 90.301238
_cell_volume                      903.250486605

loop_
_atom_site_label
_atom_site_type_symbol
_atom_type_description
_atom_site_fract_x
_atom_site_fract_y
_atom_site_fract_z
_atom_type_partial_charge
C1    C     C_R   0.501874 0.260231 0.500771 0.903552
C2    C     C_R   0.526914 0.940938 0.371935 0.158622
C3    C     C_R   0.515445 0.872123 0.494443 -0.157768
C4    C     C_R   0.498578 0.933134 0.615304 0.116819
C5    C     C_3   0.606652 0.924835 0.746739 -0.471941
C6    C     C_3   0.602195 0.064775 0.750252 -0.481380
C7    C     C_R   0.374489 0.453461 0.057919 0.188594
C8    C     C_R   0.616637 0.556632 0.084167 -0.131733
C9    C     C_R   0.616931 0.556484 0.940428 -0.151789
C10   C     C_R   0.373275 0.454641 0.915023 0.218524
C11   C     C_3   0.310884 0.324599 0.905873 -0.138783
C12   C     C_R   0.202468 0.511090 0.465470 0.952268
C13   C     C_3   0.313377 0.323954 0.060377 -0.559846
C14   C     C_R   0.509292 0.739716 0.499136 0.854271
C15   C     C_R   0.798106 0.506455 0.534358 0.938817
C16   C     C_2   0.042607 0.548196 0.452100 -0.001205
C17   C     C_2   0.962486 0.504159 0.549777 -0.426470
C18   C     C_R   0.493385 0.060317 0.618676 0.128258
C19   C     C_R   0.502412 0.128358 0.499578 -0.146940
C20   C     C_R   0.513902 0.068605 0.376340 -0.261233
H1    H     H_    0.712857 0.600282 0.896619 0.150763
H2    H     H_    0.392940 0.258515 0.867871 0.178588
H3    H     H_    0.195614 0.319353 0.095854 0.202820
H4    H     H_    0.401194 0.258378 0.113182 0.201310
H5    H     H_    0.017019 0.448181 0.634690 0.170728
H6    H     H_    0.522875 0.121670 0.283791 0.169940
H7    H     H_    0.549255 0.879402 0.828977 0.205145
H8    H     H_    0.724455 0.887368 0.733921 0.196370
H9    H     H_    0.544855 0.098604 0.836935 0.192610
H10   H     H_    0.717221 0.109334 0.738946 0.201533
H11   H     H_    0.711964 0.600768 0.148012 0.131944
N1    N     N_R   0.498950 0.499140 0.142680 -0.101429
N2    N     N_R   0.498950 0.499180 0.857030 -0.120018
O1    O     O_R   0.500020 0.316790 0.614690 -0.615374
O2    O     O_R   0.500000 0.316760 0.385350 -0.624479
O3    O     O_R   0.271760 0.500010 0.587850 -0.612044
O4    O     O_R   0.271740 0.499970 0.358500 -0.621805
O5    O     O_R   0.500000 0.683240 0.614650 -0.612812
O6    O     O_R   0.499980 0.683210 0.385310 -0.632485
O7    O     O_R   0.728260 0.500030 0.641500 -0.627570
O8    O     O_R   0.728240 0.499990 0.412150 -0.623296
Zn1   Zn    Zn3+2 0.500010 0.500020 0.653130 0.946140
Zn2   Zn    Zn3+2 0.499990 0.499980 0.346870 0.927372
C21   C     C_3   0.984012 0.646704 0.345090 -0.402415
C22   C     C_3   0.076868 0.767656 0.368404 -0.904128
H12   H     H_    0.066485 0.804104 0.471668 0.260883
H13   H     H_    0.202355 0.752721 0.359156 0.272645
H14   H     H_    0.029877 0.838082 0.290707 0.246477
H15   H     H_    0.994984 0.611351 0.241488 0.206621
H16   H     H_    0.860276 0.672970 0.348295 0.222218
N3    N     N_3   0.152097 0.317654 0.831450 -0.445997
H17   H     H_    0.077421 0.378882 0.873419 0.189545
H18   H     H_    0.109181 0.227842 0.844660 0.190164
C23   C     C_3   0.569796 0.888138 0.239258 -0.363962
C24   C     C_3   0.424020 0.859813 0.137869 -0.831083
H19   H     H_    0.348323 0.789280 0.179604 0.277548
H20   H     H_    0.354761 0.945819 0.112459 0.244018
H21   H     H_    0.460629 0.822719 0.042603 0.233108
H22   H     H_    0.642545 0.956673 0.189766 0.180700
H23   H     H_    0.647564 0.806302 0.256758 0.209067

loop_
_geom_bond_atom_site_label_1
_geom_bond_atom_site_label_2
_ccdc_geom_bond_type
C21   H15   S    
O4    Zn2   S    
C7    C10   A    
C24   H19   S    
C14   O5    A    
C5    H8    S    
C11   C13   S    
C16   C21   S    
C11   H2    S    
O3    Zn1   S    
C19   C20   A    
O1    Zn1   S    
C17   H5    S    
O2    Zn2   S    
O7    Zn1   S    
C2    C3    A    
C4    C18   A    
N3    H17   S    
C23   H23   S    
C22   H12   S    
C9    N2    A    
O8    Zn2   S    
C9    H1    S    
C24   H21   S    
C3    C14   S    
C20   H6    S    
N2    Zn1   S    
C6    H10   S    
N1    Zn2   S    
C1    O1    A    
O5    Zn1   S    
C10   N2    A    
C23   H22   S    
C24   H20   S    
C5    C6    S    
C6    C18   S    
C15   O7    A    
C1    C19   S    
C12   O3    A    
C10   C11   S    
C15   O8    A    
C2    C20   A    
C3    C4    A    
C8    N1    A    
C16   C17   D    
C7    C13   S    
C6    H9    S    
C11   N3    S    
C21   C22   S    
C13   H3    S    
C18   C19   A    
C2    C23   S    
C22   H13   S    
C21   H16   S    
C12   O4    A    
C15   C17   S    
C1    O2    A    
C23   C24   S    
C8    C9    A    
O6    Zn2   S    
C7    N1    A    
C22   H14   S    
C14   O6    A    
C5    H7    S    
C8    H11   S    
C12   C16   S    
C13   H4    S    
C4    C5    S    
N3    H18   S    
