data_mof_unit_17854.cif
_audit_creation_date              2012-12-11T15:43:08-0500
_audit_creation_method            fapswitch 2.2
_symmetry_space_group_name_H-M    P1
_symmetry_Int_Tables_number       1
_space_group_crystal_system       triclinic
_cell_length_a                    19.373312
_cell_length_b                    11.301951
_cell_length_c                    18.766401
_cell_angle_alpha                 89.809213
_cell_angle_beta                  89.571664
_cell_angle_gamma                 90.941607
_cell_volume                      4108.32610514

loop_
_atom_site_label
_atom_site_type_symbol
_atom_type_description
_atom_site_fract_x
_atom_site_fract_y
_atom_site_fract_z
_atom_type_partial_charge
C1    C     C_R   0.726464 0.368072 0.142829 0.544532
C2    C     C_R   0.993974 0.986041 0.037051 -0.155609
C3    C     C_R   0.757276 0.424320 0.572810 -0.013088
C4    C     C_R   0.729926 0.376641 0.351532 0.544483
C5    C     C_R   0.270043 0.376382 0.648064 0.553729
C6    C     C_R   0.229926 0.876641 0.351532 0.544482
C7    C     C_R   0.770044 0.876382 0.648064 0.553729
C8    C     C_R   0.536867 0.157891 0.356638 0.534408
C9    C     C_R   0.467467 0.160276 0.647014 0.562991
C10   C     C_R   0.036867 0.657891 0.356638 0.534407
C11   C     C_R   0.967466 0.660276 0.647014 0.562989
C12   C     C_R   0.739733 0.970741 0.354293 0.544704
C13   C     C_R   0.505875 0.487078 0.964065 -0.156783
C14   C     C_R   0.260965 0.973846 0.644881 0.543313
C15   C     C_R   0.239732 0.470741 0.354293 0.544703
C16   C     C_R   0.760965 0.473847 0.644881 0.543313
C17   C     C_R   0.500386 0.162278 0.924745 -0.023144
C18   C     C_R   0.499395 0.160876 0.075404 -0.024113
C19   C     C_R   0.000386 0.662278 0.924745 -0.023145
C20   C     C_R   0.999395 0.660876 0.075404 -0.024113
C21   C     C_R   0.502038 0.270903 0.962484 0.015437
C22   C     C_R   0.497506 0.270067 0.037943 0.014098
C23   C     C_R   0.002038 0.770903 0.962484 0.015437
C24   C     C_R   0.493974 0.486041 0.037051 -0.155609
C25   C     C_R   0.997506 0.770067 0.037943 0.014098
C26   C     C_R   0.493767 0.053696 0.036849 0.006609
C27   C     C_R   0.506154 0.054703 0.963068 0.007158
C28   C     C_R   0.993766 0.553696 0.036849 0.006609
C29   C     C_R   0.006154 0.554703 0.963068 0.007158
C30   C     C_3   0.462627 0.943154 0.072099 -0.234223
C31   C     C_3   0.515017 0.849187 0.092760 -0.389176
C32   C     C_3   0.537316 0.946477 0.927583 -0.233540
C33   C     C_3   0.484978 0.849486 0.907176 -0.390280
C34   C     C_3   0.962627 0.443154 0.072099 -0.234222
C35   C     C_R   0.761600 0.894507 0.932485 0.007587
C36   C     C_3   0.015017 0.349187 0.092760 -0.389176
C37   C     C_3   0.037316 0.446477 0.927583 -0.233540
C38   C     C_3   0.984978 0.349486 0.907176 -0.390280
C39   C     C_3   0.488192 0.388162 0.413161 -0.283358
C40   C     C_3   0.458504 0.500563 0.441043 -0.429897
C41   C     C_3   0.528349 0.401629 0.575935 -0.276818
C42   C     C_3   0.478582 0.482301 0.614588 -0.382427
C43   C     C_3   0.988192 0.888162 0.413161 -0.283358
C44   C     C_3   0.958503 0.000563 0.441043 -0.429898
C45   C     C_3   0.028349 0.901629 0.575935 -0.276818
C46   C     C_R   0.237895 0.893775 0.067363 0.007504
C47   C     C_3   0.978582 0.982301 0.614588 -0.382427
C48   C     C_R   0.261600 0.394507 0.932485 0.007587
C49   C     C_R   0.737895 0.393775 0.067363 0.007504
C50   C     C_R   0.705340 0.846707 0.970454 -0.013055
C51   C     C_R   0.293208 0.846560 0.029318 -0.012072
C52   C     C_R   0.205340 0.346707 0.970454 -0.013055
C53   C     C_R   0.273375 0.368397 0.857267 0.546669
C54   C     C_R   0.793208 0.346560 0.029318 -0.012072
C55   C     C_R   0.702119 0.854358 0.044945 0.007886
C56   C     C_R   0.296224 0.854433 0.954820 0.010825
C57   C     C_R   0.202119 0.354358 0.044945 0.007886
C58   C     C_R   0.796224 0.354433 0.954820 0.010825
C59   C     C_R   0.816176 0.941990 0.045040 -0.161367
C60   C     C_R   0.183308 0.940063 0.954957 -0.163316
C61   C     C_R   0.316176 0.441990 0.045040 -0.161367
C62   C     C_R   0.683308 0.440063 0.954957 -0.163316
C63   C     C_R   0.817665 0.940323 0.971447 -0.148311
C64   C     C_R   0.226464 0.868072 0.142829 0.544532
C65   C     C_R   0.182133 0.938308 0.028513 -0.149563
C66   C     C_R   0.317665 0.440323 0.971447 -0.148311
C67   C     C_R   0.682133 0.438308 0.028513 -0.149563
C68   C     C_3   0.683699 0.720271 0.970572 -0.254118
C69   C     C_3   0.312629 0.720192 0.029427 -0.251592
C70   C     C_3   0.183699 0.220271 0.970572 -0.254118
C71   C     C_3   0.812629 0.220192 0.029427 -0.251592
C72   C     C_3   0.682337 0.726093 0.050598 -0.282473
C73   C     C_3   0.313929 0.726387 0.949411 -0.284137
C74   C     C_3   0.182337 0.226093 0.050598 -0.282473
C75   C     C_R   0.773374 0.868397 0.857267 0.546669
C76   C     C_3   0.813929 0.226387 0.949411 -0.284137
C77   C     C_R   0.756385 0.907707 0.082248 0.013009
C78   C     C_R   0.242560 0.907225 0.917669 0.012483
C79   C     C_R   0.256385 0.407707 0.082248 0.013009
C80   C     C_R   0.742560 0.407225 0.917669 0.012483
C81   C     C_R   0.531467 0.154433 0.147191 0.529223
C82   C     C_R   0.468476 0.155176 0.852861 0.524355
C83   C     C_R   0.031467 0.654433 0.147191 0.529223
C84   C     C_R   0.968476 0.655176 0.852861 0.524356
C85   C     C_R   0.504024 0.186660 0.579955 0.038610
C86   C     C_R   0.510158 0.380906 0.926994 -0.087362
C87   C     C_R   0.520921 0.175179 0.434172 0.030720
C88   C     C_R   0.004024 0.686659 0.579955 0.038608
C89   C     C_R   0.020921 0.675179 0.434172 0.030719
C90   C     C_R   0.553300 0.112467 0.554427 0.021017
C91   C     C_R   0.562520 0.111267 0.480190 0.136189
C92   C     C_R   0.053300 0.612467 0.554427 0.021017
C93   C     C_R   0.062520 0.611266 0.480190 0.136196
C94   C     C_R   0.497111 0.283981 0.464110 -0.028548
C95   C     C_R   0.495505 0.293485 0.541007 0.022060
C96   C     C_R   0.997111 0.783981 0.464110 -0.028549
C97   C     C_R   0.489295 0.378907 0.073745 -0.086434
C98   C     C_R   0.995505 0.793485 0.541007 0.022060
C99   C     C_3   0.627545 0.137771 0.567032 -0.315015
C100  C     C_3   0.635975 0.143810 0.488276 -0.273184
C101  C     C_3   0.127544 0.637771 0.567032 -0.315016
C102  C     C_3   0.135975 0.643810 0.488276 -0.273184
C103  C     C_R   0.750270 0.908489 0.576714 -0.040625
C104  C     C_R   0.247355 0.907463 0.423626 -0.045684
C105  C     C_R   0.250270 0.408489 0.576714 -0.040625
C106  C     C_R   0.747356 0.407463 0.423626 -0.045684
C107  C     C_R   0.797497 0.972171 0.538878 -0.028464
C108  C     C_R   0.010158 0.880906 0.926994 -0.087362
C109  C     C_R   0.193701 0.944692 0.464574 -0.049481
C110  C     C_R   0.297497 0.472170 0.538878 -0.028463
C111  C     C_R   0.693701 0.444692 0.464574 -0.049481
C112  C     C_R   0.794655 0.980154 0.466147 -0.039477
C113  C     C_R   0.198791 0.956115 0.537061 -0.076971
C114  C     C_R   0.294655 0.480153 0.466147 -0.039477
C115  C     C_R   0.698791 0.456116 0.537061 -0.076971
C116  C     C_R   0.687743 0.865126 0.466400 0.206030
C117  C     C_R   0.314944 0.881538 0.530861 0.239534
C118  C     C_R   0.187743 0.365126 0.466399 0.206030
C119  C     C_R   0.989295 0.878907 0.073745 -0.086433
C120  C     C_R   0.814944 0.381539 0.530861 0.239535
C121  C     C_R   0.693433 0.858463 0.541331 -0.161183
C122  C     C_R   0.309103 0.878480 0.456165 -0.134830
C123  C     C_R   0.193433 0.358463 0.541331 -0.161184
C124  C     C_R   0.809103 0.378480 0.456165 -0.134830
C125  C     C_3   0.809285 0.098939 0.550305 -0.227869
C126  C     C_3   0.166407 0.061884 0.454186 -0.165831
C127  C     C_3   0.309285 0.598939 0.550305 -0.227870
C128  C     C_3   0.666407 0.561884 0.454186 -0.165832
C129  C     C_R   0.742411 0.966844 0.149531 0.534665
C130  C     C_R   0.005875 0.987078 0.964065 -0.156783
C131  C     C_R   0.257291 0.967280 0.850432 0.529147
C132  C     C_R   0.242411 0.466844 0.149531 0.534665
C133  C     C_R   0.757291 0.467280 0.850432 0.529147
C134  C     C_3   0.806489 0.111192 0.470692 -0.228792
C135  C     C_3   0.174690 0.079632 0.532567 -0.214979
C136  C     C_3   0.306489 0.611191 0.470692 -0.228792
C137  C     C_3   0.674690 0.579632 0.532567 -0.214979
C138  C     C_R   0.743624 0.923695 0.426944 -0.014924
C139  C     C_R   0.257275 0.924320 0.572810 -0.013089
C140  C     C_R   0.243624 0.423695 0.426944 -0.014924
Cr1   Cr    Cr6+3 0.772010 0.169670 0.250090 0.995667
Cr2   Cr    Cr6+3 0.383290 0.010760 0.749160 1.084998
Cr3   Cr    Cr6+3 0.116710 0.510760 0.250840 1.078830
Cr4   Cr    Cr6+3 0.883290 0.510760 0.749160 1.084996
Cr5   Cr    Cr6+3 0.227990 0.169670 0.749910 0.999762
Cr6   Cr    Cr6+3 0.272010 0.669670 0.250090 0.995667
Cr7   Cr    Cr6+3 0.727990 0.669670 0.749910 0.999763
Cr8   Cr    Cr6+3 0.615000 0.323260 0.249260 1.001536
Cr9   Cr    Cr6+3 0.385000 0.323260 0.750740 0.992243
Cr10  Cr    Cr6+3 0.115000 0.823260 0.249260 1.001536
Cr11  Cr    Cr6+3 0.885000 0.823260 0.750740 0.992243
Cr12  Cr    Cr6+3 0.616710 0.010760 0.250840 1.078828
H1    H     H_    0.151815 0.561839 0.593324 0.147375
H2    H     H_    0.351867 0.849781 0.423342 0.164397
H3    H     H_    0.057124 0.951326 0.535068 0.152076
H4    H     H_    0.504752 0.859919 0.403981 0.386328
H5    H     H_    0.496120 0.917183 0.557267 0.400998
H6    H     H_    0.004751 0.359918 0.403985 0.386330
H7    H     H_    0.996121 0.417182 0.557277 0.400992
H8    H     H_    0.153324 0.315169 0.572763 0.174993
H9    H     H_    0.851868 0.349781 0.423342 0.164396
H10   H     H_    0.859625 0.109924 0.575725 0.224198
H11   H     H_    0.113100 0.052322 0.434661 0.203378
H12   H     H_    0.359625 0.609925 0.575725 0.224197
H13   H     H_    0.613100 0.552322 0.434661 0.203378
H14   H     H_    0.766680 0.143362 0.578875 0.138105
H15   H     H_    0.201906 0.119119 0.421683 0.182954
H16   H     H_    0.266681 0.643362 0.578874 0.138105
H17   H     H_    0.148083 0.733256 0.467591 0.130773
H18   H     H_    0.701906 0.619119 0.421683 0.182954
H19   H     H_    0.763009 0.163231 0.451592 0.136525
H20   H     H_    0.217849 0.141785 0.544737 0.154424
H21   H     H_    0.263009 0.663231 0.451591 0.136525
H22   H     H_    0.717849 0.641785 0.544737 0.154424
H23   H     H_    0.853994 0.140702 0.443974 0.194924
H24   H     H_    0.127152 0.093704 0.564297 0.185013
H25   H     H_    0.353995 0.640702 0.443974 0.194924
H26   H     H_    0.627153 0.593704 0.564297 0.185013
H27   H     H_    0.522884 0.386328 0.870895 0.129715
H28   H     H_    0.651815 0.061840 0.593324 0.147375
H29   H     H_    0.476556 0.382493 0.129858 0.132782
H30   H     H_    0.022884 0.886328 0.870895 0.129714
H31   H     H_    0.976556 0.882493 0.129858 0.132782
H32   H     H_    0.011808 0.070158 0.935845 0.098392
H33   H     H_    0.988250 0.068243 0.065556 0.099705
H34   H     H_    0.511808 0.570158 0.935845 0.098392
H35   H     H_    0.488250 0.568243 0.065556 0.099705
H36   H     H_    0.859148 0.982876 0.072382 0.143733
H37   H     H_    0.140777 0.980321 0.927702 0.144404
H38   H     H_    0.359148 0.482876 0.072382 0.143733
H39   H     H_    0.648082 0.233256 0.467591 0.130773
H40   H     H_    0.640777 0.480321 0.927702 0.144404
H41   H     H_    0.864052 0.973333 0.945344 0.164133
H42   H     H_    0.136226 0.970392 0.054626 0.166229
H43   H     H_    0.364052 0.473333 0.945344 0.164133
H44   H     H_    0.636226 0.470392 0.054626 0.166229
H45   H     H_    0.225370 0.163501 0.949785 0.174516
H46   H     H_    0.770042 0.162886 0.050364 0.172754
H47   H     H_    0.725370 0.663501 0.949785 0.174516
H48   H     H_    0.270042 0.662886 0.050364 0.172754
H49   H     H_    0.631943 0.706095 0.946594 0.132027
H50   H     H_    0.638975 0.223331 0.593604 0.125214
H51   H     H_    0.364192 0.706130 0.053309 0.133042
H52   H     H_    0.131943 0.206095 0.946594 0.132027
H53   H     H_    0.864192 0.206130 0.053309 0.133042
H54   H     H_    0.630210 0.710240 0.073680 0.129232
H55   H     H_    0.365787 0.711164 0.926283 0.127213
H56   H     H_    0.130210 0.210240 0.073680 0.129232
H57   H     H_    0.865787 0.211164 0.926283 0.127213
H58   H     H_    0.723245 0.672642 0.075928 0.149402
H59   H     H_    0.272129 0.672596 0.924317 0.146612
H60   H     H_    0.223245 0.172642 0.075928 0.149402
H61   H     H_    0.666009 0.075965 0.464777 0.156310
H62   H     H_    0.772129 0.172596 0.924317 0.146612
H63   H     H_    0.511269 0.771782 0.057241 0.098064
H64   H     H_    0.568469 0.885013 0.090236 0.195040
H65   H     H_    0.504425 0.817129 0.147841 0.149545
H66   H     H_    0.432488 0.968524 0.120207 0.150560
H67   H     H_    0.424245 0.903276 0.035900 0.144048
H68   H     H_    0.487932 0.772893 0.943570 0.098662
H69   H     H_    0.431589 0.882690 0.908548 0.195531
H70   H     H_    0.496280 0.816974 0.852601 0.147902
H71   H     H_    0.567092 0.974312 0.879288 0.149312
H72   H     H_    0.138975 0.723331 0.593604 0.125214
H73   H     H_    0.576056 0.908551 0.963471 0.143692
H74   H     H_    0.011269 0.271782 0.057241 0.098064
H75   H     H_    0.068469 0.385013 0.090236 0.195040
H76   H     H_    0.004425 0.317129 0.147841 0.149545
H77   H     H_    0.932488 0.468524 0.120207 0.150560
H78   H     H_    0.924245 0.403276 0.035900 0.144048
H79   H     H_    0.987932 0.272893 0.943570 0.098662
H80   H     H_    0.931589 0.382690 0.908548 0.195531
H81   H     H_    0.996280 0.316974 0.852601 0.147902
H82   H     H_    0.067092 0.474312 0.879288 0.149312
H83   H     H_    0.166009 0.575964 0.464777 0.156309
H84   H     H_    0.076056 0.408551 0.963471 0.143692
H85   H     H_    0.420562 0.478656 0.482097 0.186110
H86   H     H_    0.497983 0.559891 0.463725 0.219235
H87   H     H_    0.436064 0.548413 0.395269 0.161390
H88   H     H_    0.539112 0.415072 0.390963 0.193017
H89   H     H_    0.453773 0.357960 0.369361 0.164802
H90   H     H_    0.490158 0.576310 0.601126 0.187419
H91   H     H_    0.425683 0.459721 0.599077 0.194290
H92   H     H_    0.482994 0.471749 0.673230 0.160317
H93   H     H_    0.568205 0.375417 0.614923 0.137764
H94   H     H_    0.653324 0.815169 0.572763 0.174994
H95   H     H_    0.557125 0.451326 0.535069 0.152076
H96   H     H_    0.920562 0.978655 0.482097 0.186111
H97   H     H_    0.997982 0.059891 0.463724 0.219235
H98   H     H_    0.936063 0.048412 0.395269 0.161390
H99   H     H_    0.039112 0.915072 0.390963 0.193017
H100  H     H_    0.953773 0.857960 0.369361 0.164802
H101  H     H_    0.990158 0.076310 0.601126 0.187419
H102  H     H_    0.925683 0.959721 0.599077 0.194290
H103  H     H_    0.982994 0.971749 0.673230 0.160317
H104  H     H_    0.068205 0.875417 0.614923 0.137764
O1    O     O_R   0.787520 0.042810 0.170440 -0.541379
O2    O     O_R   0.454050 0.051210 0.669140 -0.437579
O3    O     O_R   0.045950 0.551210 0.330860 -0.446182
O4    O     O_R   0.954050 0.551210 0.669140 -0.437588
O5    O     O_R   0.681390 0.959480 0.325510 -0.432554
O6    O     O_R   0.318610 0.959480 0.674490 -0.426226
O7    O     O_R   0.181390 0.459480 0.325510 -0.432554
O8    O     O_R   0.818610 0.459480 0.674490 -0.426226
O9    O     O_3   0.667900 0.167900 0.250060 -0.274150
O10   O     O_3   0.332100 0.167900 0.749940 -0.270652
O11   O     O_3   0.167900 0.667900 0.250060 -0.274150
O12   O     O_R   0.212480 0.042810 0.829560 -0.542573
O13   O     O_3   0.832100 0.667900 0.749940 -0.270652
O14   O     O_R   0.765640 0.292100 0.175020 -0.503522
O15   O     O_R   0.234360 0.292100 0.824980 -0.502851
O16   O     O_R   0.265640 0.792100 0.175020 -0.503522
O17   O     O_R   0.734360 0.792100 0.824980 -0.502851
O18   O     O_R   0.670190 0.408840 0.168540 -0.521820
O19   O     O_R   0.329810 0.408840 0.831460 -0.527731
O20   O     O_R   0.170190 0.908840 0.168540 -0.521820
O21   O     O_R   0.829810 0.908840 0.831460 -0.527731
O22   O     O_R   0.556620 0.251410 0.175160 -0.511330
O23   O     O_R   0.287520 0.542810 0.170440 -0.541379
O24   O     O_R   0.443380 0.251410 0.824840 -0.518355
O25   O     O_R   0.056620 0.751410 0.175160 -0.511330
O26   O     O_R   0.943380 0.751410 0.824840 -0.518355
O27   O     O_R   0.545960 0.049620 0.170320 -0.520699
O28   O     O_R   0.454040 0.049620 0.829680 -0.520868
O29   O     O_R   0.045960 0.549620 0.170320 -0.520699
O30   O     O_R   0.954040 0.549620 0.829680 -0.520867
O31   O     O_R   0.681390 0.958010 0.176690 -0.499130
O32   O     O_R   0.318610 0.958010 0.823310 -0.500348
O33   O     O_R   0.181390 0.458010 0.176690 -0.499130
O34   O     O_R   0.712480 0.542810 0.829560 -0.542573
O35   O     O_R   0.818610 0.458010 0.823310 -0.500347
O36   O     O_R   0.787510 0.044390 0.330970 -0.536383
O37   O     O_R   0.212490 0.044390 0.669030 -0.538921
O38   O     O_R   0.287510 0.544390 0.330970 -0.536383
O39   O     O_R   0.712490 0.544390 0.669030 -0.538921
O40   O     O_R   0.765630 0.293570 0.323840 -0.519105
O41   O     O_R   0.234370 0.293570 0.676160 -0.513710
O42   O     O_R   0.265630 0.793570 0.323840 -0.519105
O43   O     O_R   0.734370 0.793570 0.676160 -0.513710
O44   O     O_R   0.670190 0.410420 0.329080 -0.510555
O45   O     O_R   0.556610 0.252880 0.323980 -0.541987
O46   O     O_R   0.329810 0.410420 0.670920 -0.523997
O47   O     O_R   0.170190 0.910420 0.329080 -0.510554
O48   O     O_R   0.829810 0.910420 0.670920 -0.523998
O49   O     O_2   0.617871 0.747531 0.361354 -0.319101
O50   O     O_2   0.573855 0.728217 0.484831 -0.362186
O51   O     O_3   0.545276 0.906285 0.420924 -0.474059
O52   O     O_2   0.398621 0.798503 0.638108 -0.294134
O53   O     O_2   0.428549 0.746072 0.515788 -0.364930
O54   O     O_3   0.450475 0.953426 0.549839 -0.500849
O55   O     O_2   0.117871 0.247531 0.361354 -0.319099
O56   O     O_R   0.443390 0.252880 0.676020 -0.525290
O57   O     O_2   0.073855 0.228216 0.484831 -0.362188
O58   O     O_3   0.045276 0.406285 0.420923 -0.474050
O59   O     O_2   0.898620 0.298501 0.638108 -0.294141
O60   O     O_2   0.928549 0.246072 0.515788 -0.364928
O61   O     O_3   0.950477 0.453424 0.549841 -0.500844
O62   O     O_R   0.056610 0.752880 0.323980 -0.541987
O63   O     O_R   0.943390 0.752880 0.676020 -0.525288
O64   O     O_R   0.545950 0.051210 0.330860 -0.446186
S1    S     S_3+6 0.607115 0.809499 0.431258 -0.037072
S2    S     S_3+6 0.397714 0.839742 0.561900 -0.028239
S3    S     S_3+6 0.107115 0.309499 0.431258 -0.037068
S4    S     S_3+6 0.897714 0.339741 0.561901 -0.028241

loop_
_geom_bond_atom_site_label_1
_geom_bond_atom_site_label_2
_ccdc_geom_bond_type
Cr12  O5    S    
C105  C110  A    
C87   C91   A    
C107  C112  A    
C5    C105  S    
O49   S1    D    
C75   O21   A    
Cr10  O20   S    
C124  H9    S    
C40   H87   S    
Cr5   O41   S    
C87   C94   A    
C105  C123  A    
O51   S1    S    
Cr9   O24   S    
C132  O33   A    
Cr2   O28   S    
Cr3   O33   S    
C53   O15   A    
C70   C74   S    
Cr5   O10   S    
C6    C104  S    
C91   C100  S    
Cr12  O27   S    
C33   H70   S    
C27   C32   S    
C21   C22   A    
C117  C139  A    
O57   S3    D    
C118  C140  A    
C25   C119  A    
C45   C47   S    
Cr4   O35   S    
C70   H52   S    
C116  C121  A    
C16   O39   A    
C112  C138  A    
C127  C136  S    
C46   C65   A    
C126  H15   S    
Cr11  O13   S    
C72   H54   S    
C20   C28   A    
C42   H90   S    
C17   C21   A    
C80   C133  S    
Cr8   O9    S    
C19   C23   A    
C43   C44   S    
C39   C94   S    
C37   C38   S    
C68   C72   S    
C43   C96   S    
C77   C129  S    
C135  H20   S    
C121  H94   S    
Cr8   O44   S    
C60   C65   A    
C99   H50   S    
Cr8   O18   S    
C103  C121  A    
C71   C76   S    
O52   S2    D    
C65   H42   S    
C21   C86   A    
C56   C73   S    
C82   O24   A    
C112  C134  S    
O55   S3    D    
C85   C90   A    
C6    O47   A    
C38   H79   S    
C31   H64   S    
C59   C63   A    
C89   C96   A    
C99   H28   S    
C11   O4    A    
C120  S4    S    
C46   C51   A    
Cr5   O12   S    
Cr6   O11   S    
C15   O7    A    
C43   H99   S    
C44   H97   S    
C71   H53   S    
O60   S4    D    
C113  C135  S    
C106  C124  A    
C114  C136  S    
C10   O3    A    
C103  C107  A    
C4    O44   A    
C127  H12   S    
C125  H10   S    
C81   O27   A    
C128  C137  S    
C82   O28   A    
C38   H81   S    
Cr6   O38   S    
C58   C76   S    
C60   C78   A    
C24   H35   S    
C133  O35   A    
C62   C80   A    
C129  O1    A    
Cr2   O2    S    
C31   H63   S    
C56   C78   A    
C17   C82   S    
C40   H86   S    
C64   O16   A    
C9    C85   S    
C115  C137  S    
C10   C89   S    
C96   C98   A    
C113  C139  A    
C114  C140  A    
C110  C114  A    
C108  C130  A    
C30   H66   S    
C7    C103  S    
C75   O17   A    
C14   O37   A    
C116  S1    S    
C106  C111  A    
Cr6   O42   S    
C48   C53   S    
H4    O51   S    
H5    O54   S    
C137  H26   S    
Cr4   O30   S    
C17   C27   A    
C129  O31   A    
Cr3   O3    S    
C107  C125  S    
C47   H102  S    
C39   C40   S    
Cr1   O40   S    
C117  S2    S    
C4    C106  S    
C136  H25   S    
Cr10  O25   S    
C117  C122  A    
O59   S4    D    
C48   C52   A    
C119  H31   S    
O53   S2    D    
C1    O18   A    
Cr7   O17   S    
C101  H72   S    
Cr7   O43   S    
C26   C30   S    
C36   H75   S    
C128  H13   S    
C12   C138  S    
C34   H77   S    
C67   H44   S    
C90   C99   S    
C71   H46   S    
C8    O45   A    
C18   C22   A    
C73   H59   S    
Cr2   O10   S    
C35   C63   A    
C12   O36   A    
C51   C69   S    
C99   C100  S    
C135  H24   S    
C2    H33   S    
C85   C95   A    
C30   C31   S    
C61   C79   A    
C126  H11   S    
C86   H27   S    
Cr8   O22   S    
C34   C36   S    
C89   C93   A    
C76   H62   S    
C109  C126  S    
C111  C128  S    
Cr1   O1    S    
C48   C66   A    
C9    O2    A    
C88   C98   A    
C3    C16   S    
C19   C84   S    
C39   H89   S    
C33   H69   S    
C125  C134  S    
Cr9   O56   S    
C15   O38   A    
C101  C102  S    
C41   C42   S    
C18   C26   A    
C12   O5    A    
C66   H43   S    
C26   C27   A    
C68   H47   S    
C28   C29   A    
C45   C98   S    
C131  O32   A    
C20   C25   A    
C42   H91   S    
C5    O41   A    
C54   C71   S    
C127  H16   S    
C69   H48   S    
C69   C73   S    
H7    O61   S    
C83   O29   A    
C58   C80   A    
C73   H55   S    
C28   C34   S    
C102  H83   S    
Cr9   O10   S    
C100  H61   S    
C134  H23   S    
C24   C97   A    
Cr11  O26   S    
C38   H80   S    
C131  O12   A    
C84   O26   A    
C81   O22   A    
C74   H60   S    
C47   H103  S    
Cr11  O63   S    
Cr12  O64   S    
C92   C101  S    
C44   H98   S    
C126  C135  S    
Cr3   O29   S    
C11   O63   A    
C61   H38   S    
Cr3   O7    S    
Cr4   O8    S    
Cr9   O19   S    
C32   H71   S    
Cr1   O36   S    
C15   C140  S    
C136  H21   S    
C36   H74   S    
C13   H34   S    
C41   H93   S    
C68   H49   S    
C93   C102  S    
O54   S2    S    
Cr12  O9    S    
C32   C33   S    
Cr4   O13   S    
C137  H22   S    
Cr7   O13   S    
C3    C115  A    
C118  S3    S    
C90   C91   A    
C41   C95   S    
Cr7   O39   S    
C23   C108  A    
C92   C93   A    
C2    C130  A    
C118  C123  A    
C94   C95   A    
C52   C57   A    
C44   H96   S    
C45   H104  S    
O58   S3    S    
C104  C122  A    
Cr9   O46   S    
C29   C37   S    
Cr2   O6    S    
C50   C68   S    
Cr2   O32   S    
C30   H67   S    
C31   H65   S    
Cr7   O34   S    
C76   H57   S    
C130  H32   S    
C128  H18   S    
C57   C79   A    
O61   S4    S    
C59   C77   A    
Cr12  O31   S    
C37   H82   S    
C9    O56   A    
C74   H56   S    
C64   O20   A    
C35   C75   S    
C62   C67   A    
C8    O64   A    
H6    O58   S    
C47   H101  S    
C104  C109  A    
C55   C77   A    
C123  H8    S    
C49   C54   A    
C18   C81   S    
C51   C56   A    
C61   C66   A    
C72   H58   S    
C88   C92   A    
C60   H37   S    
C13   C86   A    
C63   H41   S    
C45   H3    S    
C14   O6    A    
C5    O46   A    
C55   C72   S    
C109  C113  A    
C110  C127  S    
C7    O48   A    
C102  H17   S    
C36   H76   S    
C22   C97   A    
C41   H95   S    
C122  H2    S    
C34   H78   S    
C43   H100  S    
C39   H88   S    
Cr10  O47   S    
C116  C138  A    
C6    O42   A    
C62   H40   S    
C1    O14   A    
Cr1   O14   S    
C13   C24   A    
C46   C64   S    
Cr1   O9    S    
C57   C74   S    
C78   C131  S    
C40   H85   S    
C83   O25   A    
Cr8   O45   S    
C101  H1    S    
C11   C88   S    
C35   C50   A    
C59   H36   S    
C14   C139  S    
C69   H51   S    
C70   H45   S    
C134  H19   S    
C100  H39   S    
Cr6   O23   S    
C37   H84   S    
C54   C58   A    
C33   H68   S    
C132  O23   A    
C84   O30   A    
C49   C67   A    
C4    O40   A    
C133  O34   A    
C2    C119  A    
C97   H29   S    
C7    O43   A    
Cr10  O62   S    
C50   C55   A    
C108  H30   S    
Cr5   O15   S    
C8    C87   S    
Cr6   O16   S    
C125  H14   S    
Cr11  O21   S    
Cr5   O37   S    
C10   O62   A    
C79   C132  S    
C42   H92   S    
Cr3   O11   S    
C23   C25   A    
Cr4   O4    S    
O50   S1    D    
C52   C70   S    
C3    C120  A    
C16   O8    A    
C53   O19   A    
C32   H73   S    
C20   C83   S    
C111  C115  A    
Cr11  O48   S    
C1    C49   S    
Cr10  O11   S    
C120  C124  A    
C19   C29   A    
