data_mof_unit_35726.cif
_audit_creation_date              2012-12-11T16:52:18-0500
_audit_creation_method            fapswitch 2.2
_symmetry_space_group_name_H-M    P1
_symmetry_Int_Tables_number       1
_space_group_crystal_system       triclinic
_cell_length_a                    7.183178
_cell_length_b                    26.030678
_cell_length_c                    28.829031
_cell_angle_alpha                 89.998797
_cell_angle_beta                  89.99726
_cell_angle_gamma                 89.999232
_cell_volume                      5390.53850925

loop_
_atom_site_label
_atom_site_type_symbol
_atom_type_description
_atom_site_fract_x
_atom_site_fract_y
_atom_site_fract_z
_atom_type_partial_charge
O1    O     O_R   0.601030 0.796770 0.202460 -0.536220
O2    O     O_R   0.398970 0.203230 0.797540 -0.536220
O3    O     O_R   0.398970 0.203230 0.702460 -0.536222
O4    O     O_R   0.601030 0.796770 0.297540 -0.536222
O5    O     O_R   0.101030 0.703230 0.297540 -0.536222
O6    O     O_R   0.898970 0.296770 0.702460 -0.536222
O7    O     O_R   0.898970 0.296770 0.797540 -0.536220
O8    O     O_R   0.101030 0.703230 0.202460 -0.536219
O9    O     O_R   0.271290 0.802910 0.297210 -0.536157
O10   O     O_R   0.728710 0.197090 0.702790 -0.536157
O11   O     O_R   0.728710 0.197090 0.797210 -0.536141
O12   O     O_R   0.271290 0.802910 0.202790 -0.536141
O13   O     O_R   0.771290 0.697090 0.202790 -0.536147
O14   O     O_R   0.228710 0.302910 0.797210 -0.536146
O15   O     O_R   0.228710 0.302910 0.702790 -0.536146
O16   O     O_R   0.771290 0.697090 0.297210 -0.536146
C1    C     C_R   0.439471 0.816096 0.312217 0.688600
C2    C     C_R   0.560529 0.183904 0.687783 0.688601
C3    C     C_R   0.560518 0.183903 0.812215 0.688630
C4    C     C_R   0.439482 0.816097 0.187785 0.688630
C5    C     C_R   0.939481 0.683904 0.187784 0.688613
C6    C     C_R   0.060519 0.316096 0.812216 0.688614
C7    C     C_R   0.060524 0.316096 0.687784 0.688611
C8    C     C_R   0.939476 0.683904 0.312216 0.688613
O17   O     O_3   0.434520 0.717290 0.250000 -0.371062
O18   O     O_3   0.565480 0.282710 0.750000 -0.371062
O19   O     O_3   0.934520 0.782710 0.250000 -0.371064
O20   O     O_3   0.065480 0.217290 0.750000 -0.371064
V1    V     V_3+5 0.159680 0.756060 0.250000 1.381828
V2    V     V_3+5 0.840320 0.243940 0.750000 1.381828
V3    V     V_3+5 0.659680 0.743940 0.250000 1.381833
V4    V     V_3+5 0.340320 0.256060 0.750000 1.381836
C9    C     C_R   0.891630 0.358121 0.621915 -0.202559
C10   C     C_R   0.108366 0.641879 0.378085 -0.202563
C11   C     C_R   0.108389 0.641876 0.121914 -0.202567
C12   C     C_R   0.891627 0.358116 0.878092 -0.202569
C13   C     C_R   0.391702 0.141922 0.878122 -0.202607
C14   C     C_R   0.608294 0.858077 0.121878 -0.202608
C15   C     C_R   0.608483 0.858187 0.378031 -0.202511
C16   C     C_R   0.391521 0.141816 0.621966 -0.202510
C17   C     C_R   0.876801 0.393794 0.585800 -0.158233
C18   C     C_R   0.123194 0.606205 0.414200 -0.158224
C19   C     C_R   0.123218 0.606204 0.085798 -0.158208
C20   C     C_R   0.876803 0.393788 0.914209 -0.158206
C21   C     C_R   0.376884 0.106253 0.914242 -0.158140
C22   C     C_R   0.623111 0.893746 0.085757 -0.158139
C23   C     C_R   0.623325 0.893869 0.414139 -0.158350
C24   C     C_R   0.376679 0.106135 0.585859 -0.158350
C25   C     C_R   0.021230 0.428498 0.576972 0.073682
C26   C     C_R   0.978767 0.571500 0.423026 0.073698
C27   C     C_R   0.978787 0.571500 0.076973 0.073699
C28   C     C_R   0.021220 0.428498 0.923027 0.073695
C29   C     C_R   0.521215 0.071505 0.923029 0.073674
C30   C     C_R   0.478783 0.928495 0.076972 0.073673
C31   C     C_R   0.478757 0.928512 0.423017 0.073739
C32   C     C_R   0.521241 0.071488 0.576983 0.073740
C33   C     C_R   0.181566 0.426817 0.604473 -0.131267
C34   C     C_R   0.818435 0.573181 0.395525 -0.131282
C35   C     C_R   0.818451 0.573181 0.104478 -0.131289
C36   C     C_R   0.181537 0.426826 0.895515 -0.131283
C37   C     C_R   0.681441 0.073134 0.895481 -0.131303
C38   C     C_R   0.318561 0.926867 0.104521 -0.131301
C39   C     C_R   0.318266 0.926758 0.395579 -0.131218
C40   C     C_R   0.681727 0.073238 0.604425 -0.131211
C41   C     C_R   0.199272 0.391334 0.641074 0.143155
C42   C     C_R   0.800730 0.608665 0.358924 0.143157
C43   C     C_R   0.800741 0.608665 0.141077 0.143161
C44   C     C_R   0.199243 0.391342 0.858915 0.143158
C45   C     C_R   0.699144 0.108619 0.858880 0.143182
C46   C     C_R   0.300859 0.891382 0.141122 0.143182
C47   C     C_R   0.300561 0.891276 0.358979 0.143128
C48   C     C_R   0.699432 0.108721 0.641024 0.143126
C49   C     C_R   0.052027 0.355787 0.650092 -0.061568
C50   C     C_R   0.947972 0.644212 0.349908 -0.061565
C51   C     C_R   0.947986 0.644211 0.150093 -0.061579
C52   C     C_R   0.052013 0.355788 0.849907 -0.061576
C53   C     C_R   0.552005 0.144212 0.849905 -0.061550
C54   C     C_R   0.447995 0.855789 0.150095 -0.061548
C55   C     C_R   0.447952 0.855790 0.349908 -0.061604
C56   C     C_R   0.552047 0.144210 0.650093 -0.061604
C57   C     C_R   0.998312 0.519328 0.545763 0.175847
C58   C     C_R   0.001688 0.480670 0.454235 0.175860
C59   C     C_R   0.001789 0.480669 0.045768 0.175866
C60   C     C_R   0.998211 0.519330 0.954233 0.175861
C61   C     C_R   0.497809 0.980681 0.954231 0.175876
C62   C     C_R   0.502188 0.019320 0.045769 0.175876
C63   C     C_R   0.500893 0.019357 0.454239 0.175856
C64   C     C_R   0.499102 0.980642 0.545762 0.175861
C65   C     C_R   0.991337 0.552934 0.507603 -0.196321
C66   C     C_R   0.008654 0.447063 0.492395 -0.196329
C67   C     C_R   0.008756 0.447061 0.007610 -0.196307
C68   C     C_R   0.991253 0.552937 0.992391 -0.196328
C69   C     C_R   0.490851 0.947069 0.992388 -0.196321
C70   C     C_R   0.509147 0.052931 0.007612 -0.196319
C71   C     C_R   0.507877 0.052950 0.492406 -0.196313
C72   C     C_R   0.492120 0.947049 0.507594 -0.196328
C73   C     C_R   0.992141 0.534266 0.461945 0.032145
C74   C     C_R   0.007853 0.465732 0.538053 0.032148
C75   C     C_R   0.007851 0.465731 0.961947 0.032114
C76   C     C_R   0.992161 0.534267 0.038054 0.032131
C77   C     C_R   0.492154 0.965730 0.038052 0.032136
C78   C     C_R   0.507843 0.034271 0.961948 0.032134
C79   C     C_R   0.507867 0.034255 0.538062 0.032133
C80   C     C_R   0.492130 0.965744 0.461938 0.032146
H1    H     H_    0.777266 0.331697 0.627348 0.131726
H2    H     H_    0.222726 0.668303 0.372653 0.131726
H3    H     H_    0.222754 0.668299 0.127345 0.131721
H4    H     H_    0.777272 0.331689 0.872665 0.131718
H5    H     H_    0.277412 0.168378 0.872717 0.131709
H6    H     H_    0.722582 0.831620 0.127281 0.131708
H7    H     H_    0.722950 0.831808 0.372563 0.131749
H8    H     H_    0.277058 0.168197 0.627432 0.131748
H9    H     H_    0.752092 0.394362 0.564678 0.123265
H10   H     H_    0.247900 0.605637 0.435322 0.123263
H11   H     H_    0.247929 0.605635 0.064674 0.123260
H12   H     H_    0.752106 0.394350 0.935339 0.123259
H13   H     H_    0.252259 0.105721 0.935398 0.123264
H14   H     H_    0.747733 0.894277 0.064600 0.123264
H15   H     H_    0.748149 0.894488 0.435216 0.123260
H16   H     H_    0.251859 0.105518 0.564780 0.123260
H17   H     H_    0.294193 0.453260 0.596967 0.113374
H18   H     H_    0.705808 0.546738 0.403030 0.113375
H19   H     H_    0.705828 0.546735 0.096976 0.113372
H20   H     H_    0.294151 0.453277 0.903011 0.113372
H21   H     H_    0.793979 0.046648 0.902949 0.113388
H22   H     H_    0.206024 0.953355 0.097054 0.113389
H23   H     H_    0.205508 0.953142 0.403133 0.113347
H24   H     H_    0.794482 0.046852 0.596872 0.113345
C81   C     C_3   0.374628 0.393509 0.669832 -0.743328
H25   H     H_    0.463537 0.426817 0.660342 0.191218
H26   H     H_    0.338741 0.397567 0.707080 0.200810
H27   H     H_    0.458918 0.358348 0.664168 0.218628
C82   C     C_3   0.625380 0.606488 0.330164 -0.743335
H28   H     H_    0.536474 0.573179 0.339653 0.191219
H29   H     H_    0.541085 0.641648 0.335827 0.218632
H30   H     H_    0.661274 0.602431 0.292917 0.200810
C83   C     C_3   0.625379 0.606490 0.169837 -0.743324
H31   H     H_    0.536469 0.573183 0.160349 0.191217
H32   H     H_    0.661258 0.602432 0.207085 0.200812
H33   H     H_    0.541093 0.641652 0.164173 0.218627
C84   C     C_3   0.374582 0.393525 0.830147 -0.743318
H34   H     H_    0.463470 0.426840 0.839626 0.191213
H35   H     H_    0.458904 0.358369 0.835811 0.218637
H36   H     H_    0.338669 0.397576 0.792900 0.200798
C85   C     C_3   0.874366 0.106395 0.830071 -0.743380
H37   H     H_    0.963152 0.073049 0.839520 0.191225
H38   H     H_    0.838299 0.102372 0.792831 0.200744
H39   H     H_    0.958848 0.141523 0.835726 0.218698
C86   C     C_3   0.125643 0.893608 0.169933 -0.743379
H40   H     H_    0.036861 0.926955 0.160485 0.191225
H41   H     H_    0.041153 0.858482 0.164278 0.218700
H42   H     H_    0.161717 0.897629 0.207173 0.200741
C87   C     C_3   0.125026 0.893387 0.330285 -0.743277
H43   H     H_    0.035953 0.926644 0.339823 0.191213
H44   H     H_    0.160670 0.897489 0.293026 0.200905
H45   H     H_    0.040998 0.858181 0.335960 0.218536
C88   C     C_3   0.874960 0.106608 0.669721 -0.743280
H46   H     H_    0.964027 0.073348 0.660185 0.191212
H47   H     H_    0.958999 0.141812 0.664045 0.218540
H48   H     H_    0.839306 0.102508 0.706979 0.200902
C89   C     C_3   0.989860 0.541065 0.594156 -0.784775
H49   H     H_    0.968931 0.583345 0.593833 0.202764
H50   H     H_    0.871997 0.523499 0.613384 0.214014
H51   H     H_    0.121708 0.533046 0.612805 0.207789
C90   C     C_3   0.010184 0.458933 0.405840 -0.784770
H52   H     H_    0.031008 0.416653 0.406171 0.202774
H53   H     H_    0.878390 0.466971 0.387170 0.207781
H54   H     H_    0.128124 0.476476 0.386625 0.214005
C91   C     C_3   0.010334 0.458932 0.094164 -0.784797
H55   H     H_    0.031192 0.416653 0.093840 0.202766
H56   H     H_    0.128261 0.476483 0.113371 0.214011
H57   H     H_    0.878541 0.466963 0.112837 0.207793
C92   C     C_3   0.989619 0.541068 0.905834 -0.784701
H58   H     H_    0.968706 0.583348 0.906158 0.202751
H59   H     H_    0.121423 0.533048 0.887154 0.207777
H60   H     H_    0.871682 0.523506 0.886630 0.213990
C93   C     C_3   0.488834 0.958960 0.905835 -0.784810
H61   H     H_    0.467735 0.916692 0.906160 0.202770
H62   H     H_    0.370886 0.976569 0.886676 0.213999
H63   H     H_    0.620552 0.966939 0.887111 0.207808
C94   C     C_3   0.511162 0.041040 0.094166 -0.784815
H64   H     H_    0.532261 0.083308 0.093840 0.202771
H65   H     H_    0.379444 0.033062 0.112889 0.207808
H66   H     H_    0.629108 0.023432 0.113325 0.214000
C95   C     C_3   0.508554 0.041134 0.405846 -0.784798
H67   H     H_    0.528980 0.083429 0.406175 0.202770
H68   H     H_    0.626406 0.023690 0.386527 0.214038
H69   H     H_    0.376592 0.033017 0.387283 0.207747
C96   C     C_3   0.491433 0.958862 0.594157 -0.784737
H70   H     H_    0.470991 0.916567 0.593826 0.202763
H71   H     H_    0.623407 0.966974 0.612723 0.207732
H72   H     H_    0.373578 0.976310 0.613479 0.214023
H73   H     H_    0.982729 0.594018 0.513362 0.128012
H74   H     H_    0.017270 0.405980 0.486636 0.128009
H75   H     H_    0.017445 0.405975 0.013373 0.128001
H76   H     H_    0.982564 0.594023 0.986628 0.128003
H77   H     H_    0.481855 0.905990 0.986624 0.128003
H78   H     H_    0.518142 0.094011 0.013377 0.128003
H79   H     H_    0.515895 0.094048 0.486653 0.128005
H80   H     H_    0.484102 0.905951 0.513347 0.128005

loop_
_geom_bond_atom_site_label_1
_geom_bond_atom_site_label_2
_ccdc_geom_bond_type
O17   V3    S    
C64   C72   A    
O18   V4    S    
C90   H52   S    
O12   V1    S    
O19   V1    S    
C45   C85   S    
C91   H55   S    
C30   C77   S    
C45   C53   A    
C10   C18   A    
C6    C52   S    
C19   C27   A    
C85   H39   S    
C95   H68   S    
C47   C55   A    
C85   H37   S    
C43   C51   A    
C25   C33   A    
O15   V4    S    
C63   C95   S    
C1    C55   S    
C92   H58   S    
O16   V3    S    
C81   H26   S    
C83   H32   S    
O11   C3    A    
C88   H46   S    
C28   C36   A    
C72   H80   S    
O8    V1    S    
C23   C31   A    
O10   C2    A    
C86   H41   S    
C94   H66   S    
C46   C54   A    
C57   C74   A    
C21   H13   S    
C47   C87   S    
O1    V3    S    
C41   C49   A    
C38   C46   A    
O3    C2    A    
O2    V4    S    
C36   H20   S    
C16   C24   A    
C62   C70   A    
C35   C43   A    
C25   C74   S    
C61   C69   A    
C34   C42   A    
O11   V2    S    
C40   H24   S    
C31   C39   A    
C62   C94   S    
C16   C56   A    
C64   C79   A    
C87   H44   S    
C11   C19   A    
C13   H5    S    
O9    V1    S    
C81   H27   S    
C19   H11   S    
C20   C28   A    
O15   C7    A    
C21   C29   A    
O16   C8    A    
O7    V2    S    
C91   H56   S    
O12   C4    A    
C90   H53   S    
C46   C86   S    
C29   C37   A    
C7    C49   S    
C17   C25   A    
C89   H50   S    
C71   C79   A    
C89   H49   S    
O5    V1    S    
C94   H65   S    
C35   H19   S    
C64   C96   S    
C83   H33   S    
C34   H18   S    
C18   H10   S    
C85   H38   S    
C10   H2    S    
C9    H1    S    
C24   H16   S    
O3    V4    S    
C86   H42   S    
C69   C77   A    
C38   H22   S    
C95   H69   S    
C14   C54   A    
C93   H62   S    
C94   H64   S    
C13   C53   A    
C31   C80   S    
C48   C88   S    
C63   C71   A    
C70   H78   S    
C26   C34   A    
C88   H47   S    
C96   H72   S    
C69   H77   S    
C82   H30   S    
C42   C82   S    
C67   H75   S    
O10   V2    S    
C66   H74   S    
C61   C93   S    
C29   C78   S    
C93   H63   S    
C65   H73   S    
C22   C30   A    
C32   C40   A    
O8    C5    A    
O13   C5    A    
C44   C84   S    
O9    C1    A    
C87   H45   S    
C70   C78   A    
C92   H59   S    
C10   C50   A    
O4    C1    A    
C9    C49   A    
C90   H54   S    
O6    V2    S    
C39   C47   A    
C88   H48   S    
C59   C76   A    
C72   C80   A    
C82   H28   S    
C91   H57   S    
C12   C20   A    
C22   H14   S    
C14   H6    S    
C13   C21   A    
C60   C92   S    
C89   H51   S    
C59   C67   A    
C68   C76   A    
C15   C23   A    
C81   H25   S    
C92   H60   S    
C37   C45   A    
C27   C76   S    
C24   C32   A    
O1    C4    A    
C26   C73   S    
C18   C26   A    
O2    C3    A    
C60   C75   A    
C57   C89   S    
O13   V3    S    
C11   C51   A    
C32   C79   S    
C17   H9    S    
C68   H76   S    
C41   C81   S    
C84   H36   S    
C44   C52   A    
O7    C6    A    
C30   C38   A    
C83   H31   S    
C5    C51   S    
C28   C75   S    
C58   C66   A    
C4    C54   S    
C36   C44   A    
C9    C17   A    
O14   C6    A    
C84   H35   S    
C57   C65   A    
O20   V2    S    
C48   C56   A    
C86   H40   S    
C15   H7    S    
C16   H8    S    
C2    C56   S    
C8    C50   S    
C95   H67   S    
O5    C8    A    
C3    C53   S    
O6    C7    A    
C59   C91   S    
C23   H15   S    
C58   C73   A    
C40   C48   A    
C96   H70   S    
C43   C83   S    
C14   C22   A    
O4    V3    S    
C11   H3    S    
C33   H17   S    
C63   C80   A    
C12   C52   A    
C27   C35   A    
C12   H4    S    
C20   H12   S    
C71   H79   S    
C93   H61   S    
C65   C73   A    
C82   H29   S    
C37   H21   S    
C60   C68   A    
C67   C75   A    
C87   H43   S    
C84   H34   S    
C62   C77   A    
O14   V4    S    
C66   C74   A    
C39   H23   S    
C61   C78   A    
C15   C55   A    
C96   H71   S    
C33   C41   A    
C58   C90   S    
C42   C50   A    
