data_mof_unit_19478.cif
_audit_creation_date              2013-03-05T16:36:16-0500
_audit_creation_method            fapswitch 2.2
_symmetry_space_group_name_H-M    P1
_symmetry_Int_Tables_number       1
_space_group_crystal_system       triclinic
_cell_length_a                    27.838254
_cell_length_b                    9.079207
_cell_length_c                    7.781419
_cell_angle_alpha                 90.049266
_cell_angle_beta                  89.959186
_cell_angle_gamma                 90.129901
_cell_volume                      1966.74169831

loop_
_atom_site_label
_atom_site_type_symbol
_atom_site_description
_atom_site_fract_x
_atom_site_fract_y
_atom_site_fract_z
_atom_type_partial_charge
O1    O     O_R   0.500000 0.288390 0.642760 -0.578672
O2    O     O_R   0.500000 0.711610 0.357240 -0.577505
O3    O     O_R   0.500000 0.711610 0.642760 -0.574291
O4    O     O_R   0.500000 0.288390 0.357240 -0.574794
C1    C     C_R   0.499992 0.220027 0.499955 0.848615
C2    C     C_R   0.500007 0.779972 0.500045 0.850030
O5    O     O_R   0.430260 0.500000 0.642770 -0.581322
O6    O     O_R   0.569740 0.500000 0.357230 -0.586035
O7    O     O_R   0.569740 0.500000 0.642770 -0.581734
O8    O     O_R   0.430260 0.500000 0.357230 -0.585779
C3    C     C_R   0.407268 0.499372 0.500140 0.815516
C4    C     C_R   0.592742 0.499852 0.500026 0.816075
Cu1   Cu    Cu3+1 0.500000 0.500000 0.669080 1.008387
Cu2   Cu    Cu3+1 0.500000 0.500000 0.330920 1.007267
C5    C     C_R   0.178151 0.382128 0.426346 0.559216
C6    C     C_R   0.821898 0.612735 0.578390 0.572160
C7    C     C_R   0.178749 0.598250 0.600782 0.555937
C8    C     C_R   0.821121 0.376828 0.443255 0.543557
O9    O     O_2   0.203625 0.277070 0.344406 -0.502258
O10   O     O_2   0.796491 0.726938 0.641745 -0.494289
O11   O     O_2   0.205012 0.702908 0.680278 -0.549050
O12   O     O_2   0.794702 0.265787 0.377352 -0.553110
N1    N     N_R   0.202171 0.491363 0.510613 -0.458352
N2    N     N_R   0.797822 0.496375 0.508657 -0.458970
C9    C     C_R   0.278342 0.551001 0.363120 0.138552
C10   C     C_R   0.721637 0.552286 0.360915 0.137722
C11   C     C_R   0.279676 0.437037 0.646706 0.184201
C12   C     C_R   0.720458 0.445446 0.648119 0.184942
C13   C     C_R   0.328518 0.550818 0.360544 -0.178980
C14   C     C_R   0.671457 0.550451 0.358400 -0.178990
C15   C     C_R   0.329889 0.440579 0.644239 -0.262521
C16   C     C_R   0.670240 0.447113 0.645675 -0.260995
C17   C     C_R   0.253749 0.492769 0.506439 0.332984
C18   C     C_R   0.746268 0.498670 0.506084 0.335968
C19   C     C_R   0.102174 0.488755 0.518300 -0.122810
C20   C     C_R   0.897779 0.490874 0.515813 -0.121286
C21   C     C_R   0.127509 0.379138 0.425345 -0.014697
C22   C     C_R   0.872529 0.613371 0.583930 -0.018484
C23   C     C_R   0.127996 0.599110 0.609405 -0.060192
C24   C     C_R   0.871881 0.370316 0.444685 -0.053183
C25   C     C_R   0.101549 0.271295 0.333099 0.178576
C26   C     C_R   0.898580 0.732694 0.654032 0.180971
C27   C     C_R   0.101999 0.704610 0.706510 0.161711
C28   C     C_R   0.897805 0.247868 0.379759 0.155771
C29   C     C_R   0.354523 0.496769 0.501266 -0.109486
C30   C     C_R   0.645509 0.498912 0.500937 -0.109618
H1    H     H_    0.349550 0.397614 0.753327 0.169112
H2    H     H_    0.650669 0.406069 0.756209 0.169547
H3    H     H_    0.347153 0.595794 0.250031 0.177548
H4    H     H_    0.652789 0.591827 0.246293 0.177207
C31   C     C_R   0.974270 0.370124 0.443816 0.007874
C32   C     C_R   0.025643 0.600511 0.607300 0.005266
C33   C     C_R   0.974658 0.606641 0.596361 0.036906
C34   C     C_R   0.025319 0.374747 0.433991 0.037373
C35   C     C_R   0.948992 0.489165 0.518740 0.070693
C36   C     C_R   0.050953 0.487946 0.519960 0.069575
C37   C     C_R   0.947690 0.248964 0.381992 -0.188603
C38   C     C_R   0.052120 0.703006 0.705080 -0.182104
C39   C     C_R   0.948555 0.728514 0.658214 -0.266475
C40   C     C_R   0.051539 0.270870 0.337506 -0.268454
H5    H     H_    0.964755 0.149640 0.337229 0.155950
H6    H     H_    0.034956 0.782690 0.787307 0.155525
H7    H     H_    0.965969 0.826132 0.706727 0.137784
H8    H     H_    0.034223 0.189253 0.258162 0.138897
C41   C     C_1   0.499997 0.065397 0.499939 -0.168650
C42   C     C_1   0.500002 0.934603 0.500063 -0.168138
N3    N     N_1   0.500000 0.500000 0.076820 -0.048116
N4    N     N_1   0.500000 0.500000 0.923180 -0.048396
N5    N     N_3   0.254730 0.376803 0.791491 -0.558902
H9    H     H_    0.265618 0.267424 0.806351 0.235683
H10   H     H_    0.265616 0.434882 0.900776 0.241635
N6    N     N_3   0.745518 0.389353 0.794522 -0.565534
H11   H     H_    0.734245 0.449004 0.902018 0.238999
H12   H     H_    0.735014 0.279784 0.812277 0.237901
N7    N     N_3   0.252924 0.613453 0.220898 -0.576731
H13   H     H_    0.231306 0.698715 0.267293 0.240298
H14   H     H_    0.230444 0.532686 0.168848 0.239000
N8    N     N_3   0.747094 0.610271 0.215964 -0.579144
H15   H     H_    0.770396 0.529027 0.170398 0.234586
H16   H     H_    0.767944 0.699183 0.257923 0.246019
N9    N     N_3   0.125439 0.161591 0.231641 -0.504675
H17   H     H_    0.113755 0.171532 0.104475 0.222257
H18   H     H_    0.115062 0.057750 0.276606 0.221488
N10   N     N_3   0.874825 0.859959 0.722525 -0.507857
H19   H     H_    0.887708 0.953088 0.658209 0.216152
H20   H     H_    0.884239 0.870068 0.852092 0.223424
N11   N     N_3   0.124478 0.815216 0.810974 -0.585714
H21   H     H_    0.144377 0.886390 0.732893 0.271881
H22   H     H_    0.146387 0.764679 0.902558 0.263732
N12   N     N_3   0.875248 0.119164 0.309133 -0.586732
H23   H     H_    0.855335 0.148649 0.200720 0.267441
H24   H     H_    0.853251 0.070434 0.401995 0.273719

loop_
_geom_bond_atom_site_label_1
_geom_bond_atom_site_label_2
_geom_bond_distance
_ccdc_geom_bond_type
C38   H6    1.077700 S    
N11   H21   1.045063 S    
O3    C2    1.272670 A    
N9    H17   1.045876 S    
C33   C39   1.409365 A    
C13   H3    1.083688 S    
C11   C17   1.404281 A    
C5    O9    1.349318 S    
C10   N8    1.431708 S    
O1    C1    1.272348 A    
C19   C21   1.418573 A    
N10   H20   1.045802 S    
C22   C26   1.411774 A    
N8    H16   1.045406 S    
C7    C23   1.414462 A    
N5    H10   1.044953 S    
C8    C24   1.414495 A    
C5    C21   1.409995 A    
C20   C24   1.421318 A    
O7    Cu1   1.952057 S    
C27   C38   1.388643 A    
C10   C18   1.409521 A    
N1    C17   1.436216 S    
Cu2   N3    1.977258 S    
C31   C37   1.408867 A    
C24   C28   1.419200 A    
C11   N5    1.431376 S    
C6    O10   1.349215 S    
C5    N1    1.362799 A    
C14   H4    1.083645 S    
C12   C18   1.403411 A    
C6    N2    1.362373 A    
C15   H1    1.083750 S    
Cu1   Cu2   2.631365 S    
C21   C25   1.411579 A    
C16   H2    1.083729 S    
C12   N6    1.430953 S    
N9    H18   1.045905 S    
O5    C3    1.281600 A    
C33   C35   1.417391 A    
C9    C13   1.396960 A    
C34   C36   1.417472 A    
C11   C15   1.398260 A    
N3    N4    1.195538 T    
C12   C16   1.398213 A    
C26   N10   1.434710 S    
N10   H19   1.045527 S    
C1    C41   1.403918 S    
O8    Cu2   1.952060 S    
N8    H15   1.044994 S    
N6    H11   1.044549 S    
C34   C40   1.409638 A    
N2    C18   1.435520 S    
O2    C2    1.272350 A    
C13   C29   1.402711 A    
C9    N7    1.432117 S    
C4    C30   1.468999 S    
C19   C23   1.421078 A    
N7    H13   1.045508 S    
N12   H24   1.044787 S    
C2    C42   1.403924 S    
C28   C37   1.388859 A    
O6    C4    1.282866 A    
C25   N9    1.434766 S    
C7    N1    1.363910 A    
N7    H14   1.044580 S    
C32   C38   1.408754 A    
N6    H12   1.045499 S    
C10   C14   1.397133 A    
N11   H22   1.045381 S    
C8    N2    1.363653 A    
C3    C29   1.468477 S    
O1    Cu1   1.931962 S    
C28   N12   1.434530 S    
C32   C33   1.423167 A    
O6    Cu2   1.952347 S    
C19   C36   1.425930 A    
C8    O12   1.347809 S    
C16   C30   1.402544 A    
C14   C30   1.403265 A    
C25   C40   1.392569 A    
O4    C1    1.272674 A    
O3    Cu1   1.932312 S    
C26   C39   1.392225 A    
C23   C27   1.418919 A    
C37   H5    1.077682 S    
C39   H7    1.077388 S    
C40   H8    1.077349 S    
C31   C34   1.423633 A    
C27   N11   1.434333 S    
C20   C22   1.419145 A    
C20   C35   1.425990 A    
N12   H23   1.045159 S    
C31   C35   1.415983 A    
O4    Cu2   1.932313 S    
N5    H9    1.045495 S    
O2    Cu2   1.931961 S    
O7    C4    1.281717 A    
C7    O11   1.347792 S    
O8    C3    1.282712 A    
O5    Cu1   1.952350 S    
C41   C42   1.187509 T    
C15   C29   1.402342 A    
C6    C22   1.410175 A    
C32   C36   1.415712 A    
C9    C17   1.410749 A    
Cu1   N4    1.977258 S    
