data_mof_unit_39090.cif
_audit_creation_date              2012-12-11T14:08:44-0500
_audit_creation_method            fapswitch 2.2
_symmetry_space_group_name_H-M    P1
_symmetry_Int_Tables_number       1
_space_group_crystal_system       monoclinic
_cell_length_a                    28.108658
_cell_length_b                    7.184988
_cell_length_c                    17.200204
_cell_angle_alpha                 90.0
_cell_angle_beta                  102.206185
_cell_angle_gamma                 90.0
_cell_volume                      3395.22855392

loop_
_atom_site_label
_atom_site_type_symbol
_atom_type_description
_atom_site_fract_x
_atom_site_fract_y
_atom_site_fract_z
_atom_type_partial_charge
O1    O     O_R   0.000700 0.436510 0.857920 -0.536066
O2    O     O_R   0.999300 0.563490 0.142080 -0.534136
O3    O     O_R   0.999300 0.936510 0.642080 -0.536066
O4    O     O_R   0.000700 0.063490 0.357920 -0.534136
O5    O     O_R   0.930080 0.766380 0.721890 -0.531521
O6    O     O_R   0.069920 0.233620 0.278110 -0.534935
O7    O     O_R   0.069920 0.266380 0.778110 -0.531522
O8    O     O_R   0.930080 0.733620 0.221890 -0.534935
C1    C     C_R   0.910412 0.597606 0.708150 0.689932
C2    C     C_R   0.089542 0.402982 0.287763 0.687093
C3    C     C_R   0.089588 0.097606 0.791849 0.689932
C4    C     C_R   0.910458 0.902982 0.212237 0.687093
O9    O     O_R   0.996180 0.766230 0.862310 -0.542071
O10   O     O_R   0.003820 0.233770 0.137690 -0.541941
O11   O     O_R   0.003820 0.266230 0.637690 -0.542072
O12   O     O_R   0.996180 0.733770 0.362310 -0.541940
O13   O     O_R   0.065870 0.936460 0.783500 -0.536642
O14   O     O_R   0.934130 0.063540 0.216500 -0.536577
O15   O     O_R   0.934130 0.436460 0.716500 -0.536642
O16   O     O_R   0.065870 0.563540 0.283500 -0.536577
C5    C     C_R   0.998525 0.596450 0.894520 0.754725
C6    C     C_R   0.001546 0.403568 0.105504 0.754195
C7    C     C_R   0.001475 0.096450 0.605480 0.754724
C8    C     C_R   0.998454 0.903568 0.394496 0.754195
O17   O     O_3   0.022790 0.603020 0.723980 -0.367619
O18   O     O_3   0.977210 0.396980 0.276020 -0.366655
O19   O     O_3   0.977210 0.103020 0.776020 -0.367619
O20   O     O_3   0.022790 0.896980 0.223980 -0.366655
V1    V     V_3+5 0.995770 0.877900 0.754830 1.467768
V2    V     V_3+5 0.004230 0.122100 0.245170 1.469657
V3    V     V_3+5 0.004230 0.377900 0.745170 1.467768
V4    V     V_3+5 0.995770 0.622100 0.254830 1.469657
C9    C     C_2   0.001606 0.082747 0.519544 -0.321881
C10   C     C_2   0.998222 0.917305 0.480392 -0.324373
C11   C     C_2   0.998393 0.582747 0.980456 -0.321881
C12   C     C_2   0.001778 0.417305 0.019608 -0.324373
H1    H     H_    0.004347 0.211789 0.487883 0.157305
H2    H     H_    0.995459 0.788269 0.512043 0.154669
H3    H     H_    0.995653 0.711789 0.012117 0.157305
H4    H     H_    0.004541 0.288269 0.987957 0.154669
C13   C     C_R   0.682189 0.116294 0.094217 0.608646
C14   C     C_R   0.313626 0.978017 0.993747 0.597789
C15   C     C_R   0.317811 0.616294 0.405782 0.608646
C16   C     C_R   0.686374 0.478017 0.506253 0.597788
O21   O     O_2   0.712402 0.240674 0.071035 -0.521339
O22   O     O_2   0.282497 0.880322 0.027878 -0.519674
O23   O     O_2   0.287598 0.740674 0.428965 -0.521340
O24   O     O_2   0.717503 0.380323 0.472122 -0.519674
N1    N     N_R   0.701022 0.961902 0.136757 -0.553857
N2    N     N_R   0.296036 0.081692 0.926895 -0.554287
N3    N     N_R   0.298978 0.461902 0.363243 -0.553858
N4    N     N_R   0.703964 0.581692 0.573105 -0.554287
C17   C     C_R   0.670880 0.833003 0.160183 0.586784
C18   C     C_R   0.326861 0.183076 0.891463 0.586821
C19   C     C_R   0.329120 0.333003 0.339817 0.586784
C20   C     C_R   0.673139 0.683077 0.608537 0.586821
C21   C     C_R   0.781225 0.072608 0.208853 -0.110900
C22   C     C_R   0.221938 0.927917 0.851706 -0.124886
C23   C     C_R   0.218775 0.572608 0.291147 -0.110900
C24   C     C_R   0.778061 0.427917 0.648294 -0.124886
C25   C     C_R   0.832136 0.061553 0.227529 -0.096302
C26   C     C_R   0.172030 0.929833 0.816536 -0.089593
C27   C     C_R   0.167863 0.561553 0.272471 -0.096302
C28   C     C_R   0.827970 0.429833 0.683464 -0.089592
C29   C     C_R   0.827892 0.779051 0.148665 -0.190481
C30   C     C_R   0.166923 0.246069 0.864228 -0.175342
C31   C     C_R   0.172108 0.279051 0.351335 -0.190481
C32   C     C_R   0.833077 0.746069 0.635772 -0.175342
C33   C     C_R   0.776937 0.791802 0.130262 -0.071331
C34   C     C_R   0.216732 0.243011 0.898227 -0.086687
C35   C     C_R   0.223063 0.291802 0.369738 -0.071331
C36   C     C_R   0.783268 0.743011 0.601773 -0.086687
C37   C     C_R   0.753299 0.940215 0.159371 0.348592
C38   C     C_R   0.244468 0.083593 0.892786 0.366920
C39   C     C_R   0.246701 0.440215 0.340628 0.348592
C40   C     C_R   0.755532 0.583593 0.607214 0.366920
C41   C     C_R   0.600095 0.015546 0.097467 0.014353
C42   C     C_R   0.396156 0.076352 0.991578 -0.042483
C43   C     C_R   0.399905 0.515546 0.402533 0.014352
C44   C     C_R   0.603844 0.576353 0.508421 -0.042483
C45   C     C_R   0.631540 0.145838 0.073881 -0.070438
C46   C     C_R   0.364028 0.973481 0.027325 -0.079506
C47   C     C_R   0.368460 0.645838 0.426119 -0.070438
C48   C     C_R   0.635972 0.473481 0.472675 -0.079506
C49   C     C_R   0.612052 0.306363 0.033095 -0.091554
C50   C     C_R   0.382588 0.874142 0.097254 -0.101237
C51   C     C_R   0.387947 0.806363 0.466905 -0.091554
C52   C     C_R   0.617412 0.374142 0.402746 -0.101237
C53   C     C_R   0.619919 0.857960 0.141399 0.009857
C54   C     C_R   0.377355 0.182143 0.922964 -0.029999
C55   C     C_R   0.380081 0.357960 0.358601 0.009857
C56   C     C_R   0.622645 0.682143 0.577036 -0.029999
C57   C     C_R   0.856301 0.915285 0.195995 -0.091587
C58   C     C_R   0.143468 0.090092 0.823290 -0.092272
C59   C     C_R   0.143699 0.415285 0.304005 -0.091587
C60   C     C_R   0.856532 0.590092 0.676709 -0.092272
H5    H     H_    0.845198 0.664699 0.124315 0.140950
H6    H     H_    0.146546 0.370587 0.871296 0.146856
H7    H     H_    0.154802 0.164699 0.375685 0.140950
H8    H     H_    0.853454 0.870587 0.628703 0.146856
H9    H     H_    0.755887 0.688132 0.092047 0.159090
H10   H     H_    0.233766 0.364686 0.929427 0.136075
H11   H     H_    0.244113 0.188131 0.407953 0.159090
H12   H     H_    0.766234 0.864686 0.570573 0.136075
H13   H     H_    0.636379 0.414017 0.020559 0.200953
H14   H     H_    0.357571 0.806550 0.128310 0.204611
H15   H     H_    0.363621 0.914017 0.479441 0.200953
H16   H     H_    0.642429 0.306550 0.371690 0.204611
C61   C     C_R   0.478728 0.185839 0.989945 0.031247
C62   C     C_R   0.517468 0.917804 0.105961 0.055741
C63   C     C_R   0.521272 0.685839 0.510054 0.031247
C64   C     C_R   0.482532 0.417804 0.394039 0.055741
C65   C     C_R   0.466191 0.951634 0.088253 -0.069934
C66   C     C_R   0.529316 0.190984 0.025573 -0.060326
C67   C     C_R   0.533808 0.451633 0.411747 -0.069934
C68   C     C_R   0.470684 0.690984 0.474426 -0.060326
C69   C     C_R   0.447103 0.071906 0.023678 0.083136
C70   C     C_R   0.548858 0.042095 0.076633 0.132837
C71   C     C_R   0.552897 0.571906 0.476322 0.083136
C72   C     C_R   0.451141 0.542095 0.423366 0.132837
C73   C     C_R   0.459223 0.279775 0.918196 -0.190299
C74   C     C_R   0.538219 0.756881 0.146853 -0.208046
C75   C     C_R   0.540777 0.779775 0.581804 -0.190300
C76   C     C_R   0.461781 0.256881 0.353147 -0.208046
C77   C     C_R   0.409441 0.280401 0.886039 -0.116447
C78   C     C_R   0.588445 0.728285 0.164754 -0.105423
C79   C     C_R   0.590559 0.780401 0.613961 -0.116447
C80   C     C_R   0.411555 0.228285 0.335246 -0.105423
O25   O     O_2   0.308771 0.283372 0.825500 -0.516020
O26   O     O_2   0.690060 0.682632 0.202416 -0.515727
O27   O     O_2   0.691229 0.783372 0.674500 -0.516020
O28   O     O_2   0.309940 0.182632 0.297584 -0.515728
C81   C     C_R   0.561565 0.334112 0.010896 -0.035910
C82   C     C_R   0.432869 0.867711 0.130003 -0.018049
C83   C     C_R   0.438435 0.834112 0.489104 -0.035910
C84   C     C_R   0.567130 0.367711 0.369997 -0.018049
H17   H     H_    0.243692 0.805824 0.846321 0.136658
H18   H     H_    0.762954 0.185401 0.232612 0.153011
H19   H     H_    0.756308 0.305824 0.653679 0.136658
H20   H     H_    0.237046 0.685401 0.267388 0.153011
H21   H     H_    0.396291 0.356648 0.831388 0.178211
H22   H     H_    0.602442 0.602479 0.196159 0.169854
H23   H     H_    0.603709 0.856648 0.668612 0.178210
H24   H     H_    0.397557 0.102479 0.303841 0.169854
H25   H     H_    0.482341 0.347532 0.884018 0.144575
H26   H     H_    0.515874 0.645596 0.161616 0.117208
H27   H     H_    0.517659 0.847533 0.615982 0.144575
H28   H     H_    0.484126 0.145596 0.338384 0.117208
C85   C     C_1   0.152028 0.767737 0.771657 0.323778
N5    N     N_1   0.136208 0.637684 0.735572 -0.328139
C86   C     C_1   0.858233 0.198898 0.281563 0.335179
N6    N     N_1   0.878960 0.309028 0.324992 -0.329409
C87   C     C_1   0.847972 0.267737 0.728343 0.323778
N7    N     N_1   0.863792 0.137684 0.764428 -0.328139
C88   C     C_1   0.141766 0.698898 0.218437 0.335179
N8    N     N_1   0.121040 0.809028 0.175008 -0.329408
C89   C     C_2   0.544104 0.522991 0.983029 0.361334
H29   H     H_    0.508117 0.569346 0.987880 0.066950
O29   O     O_2   0.570029 0.630735 0.955890 -0.519791
C90   C     C_2   0.448431 0.797162 0.212728 0.312013
H30   H     H_    0.482943 0.840230 0.249479 0.073352
O30   O     O_2   0.422470 0.692641 0.241340 -0.537032
C91   C     C_2   0.455896 0.022991 0.516971 0.361335
H31   H     H_    0.491883 0.069346 0.512120 0.066949
O31   O     O_2   0.429970 0.130736 0.544110 -0.519791
C92   C     C_2   0.551569 0.297162 0.287272 0.312013
H32   H     H_    0.517057 0.340230 0.250521 0.073352
O32   O     O_2   0.577530 0.192641 0.258659 -0.537031

loop_
_geom_bond_atom_site_label_1
_geom_bond_atom_site_label_2
_ccdc_geom_bond_type
O17   V3    S    
C82   C90   S    
N1    C17   A    
C22   C26   A    
C89   H29   S    
C26   C85   S    
O19   V1    S    
O13   V1    S    
O3    C7    A    
C11   C12   D    
C14   C46   A    
C44   C48   A    
O4    V2    S    
O15   V3    S    
C62   C70   A    
C61   C69   A    
C68   C83   A    
C42   C54   A    
O1    C5    A    
C76   H28   S    
C17   O26   S    
C41   C53   A    
C32   C60   A    
C23   H20   S    
C63   C71   A    
C91   O31   D    
N3    C39   S    
C18   C54   A    
N2    C38   S    
C11   H3    S    
C52   H16   S    
C25   C57   A    
C31   C35   A    
C67   C84   A    
C27   C59   A    
O1    V3    S    
C15   C47   A    
O11   V3    S    
O2    V4    S    
C14   O22   S    
C21   C37   A    
O3    V1    S    
C34   C38   A    
C19   C55   A    
C73   C77   A    
C1    O15   A    
C91   H31   S    
C77   H21   S    
C7    C9    S    
O2    C6    A    
C86   N6    T    
C33   C37   A    
C63   C68   A    
O14   V2    S    
C43   C55   A    
C31   H7    S    
C76   C80   A    
C16   N4    A    
O11   C7    A    
C44   C71   A    
O12   C8    A    
C92   O32   D    
C50   H14   S    
O10   V2    S    
C49   H13   S    
C13   N1    A    
C50   C82   A    
O5    V1    S    
C53   C78   A    
O7    V3    S    
C55   C80   A    
C63   C75   A    
O8    V4    S    
C51   C83   A    
C12   H4    S    
C42   C69   A    
C28   C60   A    
C41   C70   A    
C2    O16   A    
C64   C72   A    
O18   V4    S    
C36   H12   S    
N3    C19   A    
N4    C40   S    
C46   C50   A    
C28   C87   S    
C24   C40   A    
C8    C10   S    
C68   C72   A    
C32   C36   A    
C90   O30   D    
C74   C78   A    
O7    C3    A    
C32   H8    S    
O5    C1    A    
C54   C77   A    
C80   H24   S    
C42   C46   A    
C75   C79   A    
C1    C60   S    
C41   C45   A    
O8    C4    A    
C13   C45   A    
C43   C72   A    
C9    C10   D    
O9    C5    A    
C36   C40   A    
C79   H23   S    
C21   C25   A    
C44   C56   A    
C25   C86   S    
C62   C65   A    
C52   C84   A    
C66   C70   A    
C61   C66   A    
C14   N2    A    
C65   C69   A    
C22   H17   S    
O6    V2    S    
C31   C59   A    
C75   H27   S    
C67   C71   A    
C65   C82   A    
C26   C58   A    
C17   C53   A    
C92   H32   S    
C73   H25   S    
N1    C37   S    
C4    C57   S    
O10   C6    A    
C56   C79   A    
C23   C39   A    
C22   C38   A    
O16   V4    S    
O9    V1    S    
C18   O25   S    
C35   H11   S    
C3    O13   A    
C10   H2    S    
C83   C91   S    
C48   C52   A    
C3    C58   S    
C16   C48   A    
C47   C51   A    
O6    C2    A    
C34   H10   S    
C64   C76   A    
C5    C11   S    
C33   H9    S    
O12   V4    S    
C6    C12   S    
C23   C27   A    
C30   C58   A    
C24   C28   A    
C90   H30   S    
C30   H6    S    
O20   V2    S    
C29   H5    S    
N2    C18   A    
C85   N5    T    
C62   C74   A    
C35   C39   A    
C15   N3    A    
C30   C34   A    
C84   C92   S    
C2    C59   S    
O4    C8    A    
C29   C33   A    
C29   C57   A    
C66   C81   A    
C78   H22   S    
C21   H18   S    
C81   C89   S    
C74   H26   S    
C9    H1    S    
C20   O27   S    
C24   H19   S    
C27   C88   S    
C43   C47   A    
N4    C20   A    
C20   C56   A    
C51   H15   S    
C89   O29   D    
C19   O28   S    
C4    O14   A    
C88   N8    T    
C13   O21   S    
C61   C73   A    
C87   N7    T    
C15   O23   S    
C64   C67   A    
C45   C49   A    
C16   O24   S    
C49   C81   A    
