data_mof_unit_36897.cif
_audit_creation_date              2013-03-05T16:37:40-0500
_audit_creation_method            fapswitch 2.2
_symmetry_space_group_name_H-M    P1
_symmetry_Int_Tables_number       1
_space_group_crystal_system       triclinic
_cell_length_a                    18.55699
_cell_length_b                    18.586937
_cell_length_c                    19.453254
_cell_angle_alpha                 110.567017
_cell_angle_beta                  110.467879
_cell_angle_gamma                 108.339453
_cell_volume                      5101.19733772

loop_
_atom_site_label
_atom_site_type_symbol
_atom_site_description
_atom_site_fract_x
_atom_site_fract_y
_atom_site_fract_z
_atom_type_partial_charge
O1    O     O_R   0.408360 0.551710 0.460090 -0.642922
O2    O     O_R   0.408390 0.448280 0.356670 -0.580498
C1    C     C_R   0.382158 0.503548 0.381275 0.913356
O3    O     O_R   0.591600 0.643340 0.551710 -0.636848
O4    O     O_R   0.591630 0.539900 0.448290 -0.514845
C2    C     C_R   0.622173 0.621724 0.503152 0.993693
Zn1   Zn    Zn3+2 0.499980 0.569070 0.569050 1.059776
Zn2   Zn    Zn3+2 0.500020 0.430930 0.430950 1.213111
O5    O     O_R   0.591610 0.551720 0.643330 -0.621152
O6    O     O_R   0.591640 0.448290 0.539910 -0.586830
O7    O     O_R   0.408370 0.460100 0.551710 -0.624626
O8    O     O_R   0.408400 0.356660 0.448290 -0.590746
C3    C     C_R   0.623574 0.501682 0.619237 0.937846
C4    C     C_R   0.378495 0.379519 0.498247 0.933195
C5    C     C_R   0.754739 0.834743 0.788767 -0.178624
C6    C     C_R   0.731597 0.811655 0.704340 0.360530
C7    C     C_R   0.780253 0.782488 0.670064 -0.116775
C8    C     C_R   0.857515 0.785450 0.725388 0.340326
C9    C     C_R   0.881757 0.815828 0.811438 -0.039292
C10   C     C_R   0.829762 0.837607 0.842073 -0.179365
C11   C     C_R   0.822593 0.832486 0.581567 0.308399
C12   C     C_R   0.808025 0.822304 0.502353 -0.199084
C13   C     C_R   0.725490 0.756733 0.426218 -0.065503
C14   C     C_R   0.668327 0.687254 0.426383 0.268961
C15   C     C_R   0.686420 0.692130 0.504896 -0.163895
C16   C     C_R   0.761546 0.767612 0.583697 0.002314
C17   C     C_R   0.658396 0.829498 0.361910 -0.145233
C18   C     C_R   0.620112 0.841914 0.294454 -0.092991
C19   C     C_R   0.612981 0.794410 0.216528 -0.129105
C20   C     C_R   0.644747 0.734901 0.206126 -0.174038
C21   C     C_R   0.684136 0.721973 0.273718 0.340703
C22   C     C_R   0.690190 0.769427 0.352506 0.035020
C23   C     C_R   0.429776 0.797785 0.535574 0.230260
C24   C     C_R   0.379241 0.707362 0.470969 -0.157864
C25   C     C_R   0.392680 0.675677 0.402226 0.086471
C26   C     C_R   0.458273 0.735029 0.398932 -0.122650
C27   C     C_R   0.508289 0.824681 0.462062 -0.178108
C28   C     C_R   0.493885 0.857525 0.529835 0.346686
C29   C     C_R   0.261913 0.583828 0.255294 0.284955
C30   C     C_R   0.188659 0.501290 0.185395 -0.134810
C31   C     C_R   0.178376 0.421560 0.182553 0.135265
C32   C     C_R   0.244883 0.425214 0.247021 -0.144553
C33   C     C_R   0.316509 0.506601 0.317553 -0.095268
C34   C     C_R   0.324046 0.587195 0.324389 -0.038139
C35   C     C_R   0.026316 0.303129 0.130646 0.192917
C36   C     C_R   0.956530 0.213986 0.074959 0.221907
C37   C     C_R   0.954791 0.158512 0.003133 -0.317623
C38   C     C_R   0.021941 0.188794 0.986431 0.201567
C39   C     C_R   0.094661 0.275779 0.043930 0.176291
C40   C     C_R   0.097346 0.333257 0.116570 -0.197553
C41   C     C_R   0.266261 0.550773 0.599562 -0.234803
C42   C     C_R   0.283046 0.480693 0.586739 -0.139296
C43   C     C_R   0.229700 0.400741 0.507314 0.080977
C44   C     C_R   0.155352 0.390627 0.442776 -0.182898
C45   C     C_R   0.130860 0.456651 0.458884 0.274772
C46   C     C_R   0.190961 0.540188 0.536170 0.262045
C47   C     C_R   0.174581 0.254303 0.494988 0.271059
C48   C     C_R   0.187796 0.185294 0.500232 -0.223886
C49   C     C_R   0.263026 0.179578 0.504177 -0.128210
C50   C     C_R   0.325695 0.244085 0.503127 0.302796
C51   C     C_R   0.313221 0.313855 0.499521 -0.217804
C52   C     C_R   0.239622 0.321756 0.499233 -0.110776
C53   C     C_R   0.318031 0.112525 0.587333 -0.031302
C54   C     C_R   0.333323 0.044705 0.591254 0.019952
C55   C     C_R   0.306805 0.969868 0.516057 -0.068706
C56   C     C_R   0.265303 0.962934 0.436887 -0.157368
C57   C     C_R   0.250896 0.031205 0.432880 -0.051113
C58   C     C_R   0.276555 0.106168 0.508072 0.123448
C59   C     C_R   0.771265 0.472426 0.599823 0.315503
C60   C     C_R   0.826164 0.439121 0.585996 -0.082524
C61   C     C_R   0.876324 0.423788 0.644901 -0.182866
H1    H     H_    0.920055 0.399981 0.634560 0.189460
C62   C     C_R   0.873030 0.442292 0.718813 -0.168110
C63   C     C_R   0.814383 0.470721 0.732350 0.099711
C64   C     C_R   0.758251 0.481270 0.670192 -0.007881
C65   C     C_R   0.692795 0.500106 0.682524 -0.088603
C66   C     C_R   0.686453 0.509027 0.754390 -0.055559
C67   C     C_R   0.745018 0.503420 0.816291 -0.113664
C68   C     C_R   0.810562 0.488246 0.807077 -0.055632
O9    O     O_R   0.051730 0.908360 0.460070 -0.657824
O10   O     O_R   0.948280 0.908380 0.356650 -0.571480
C69   C     C_R   0.999609 0.877936 0.380897 0.934564
O11   O     O_R   0.960110 0.908350 0.551690 -0.576875
O12   O     O_R   0.856660 0.908370 0.448270 -0.625992
C70   C     C_R   0.878302 0.881977 0.500443 0.948635
Zn3   Zn    Zn3+2 0.069080 0.999960 0.569030 1.108121
Zn4   Zn    Zn3+2 0.930920 0.999990 0.430930 1.154189
O13   O     O_R   0.051720 0.091580 0.643310 -0.565240
O14   O     O_R   0.948270 0.091600 0.539890 -0.590039
O15   O     O_R   0.143340 0.091590 0.551680 -0.661744
O16   O     O_R   0.039890 0.091610 0.448270 -0.531420
C71   C     C_R   0.000194 0.121033 0.619310 0.923564
C72   C     C_R   0.120941 0.119114 0.499826 0.928400
O17   O     O_R   0.051710 0.460040 0.908380 -0.619069
O18   O     O_R   0.948270 0.356620 0.908410 -0.637648
C73   C     C_R   0.998385 0.378552 0.879422 0.860198
O19   O     O_R   0.143330 0.551680 0.091590 -0.567747
O20   O     O_R   0.039890 0.448260 0.091620 -0.598482
C74   C     C_R   0.120884 0.499540 0.118883 0.926615
Zn5   Zn    Zn3+2 0.069060 0.569020 0.999970 1.103371
Zn6   Zn    Zn3+2 0.930920 0.430910 0.000010 1.132406
O21   O     O_R   0.051700 0.643310 0.091570 -0.625359
O22   O     O_R   0.948260 0.539890 0.091600 -0.544293
O23   O     O_R   0.960080 0.551670 0.908360 -0.588647
O24   O     O_R   0.856640 0.448250 0.908390 -0.625715
C75   C     C_R   0.003450 0.621280 0.121942 0.918118
C76   C     C_R   0.878871 0.497803 0.879222 0.821870
C77   C     C_R   0.107265 0.785797 0.553378 0.314843
C78   C     C_R   0.100674 0.791673 0.481816 -0.144637
C79   C     C_R   0.022618 0.733596 0.400710 -0.059560
C80   C     C_R   0.953365 0.660282 0.388614 0.252231
C81   C     C_R   0.959164 0.655527 0.461395 0.225949
C82   C     C_R   0.035576 0.718353 0.542576 -0.187471
C83   C     C_R   0.023235 0.685539 0.264883 0.304438
C84   C     C_R   0.011460 0.691132 0.192077 -0.218636
C85   C     C_R   0.012513 0.765994 0.188850 -0.099468
C86   C     C_R   0.006092 0.825987 0.250029 0.248255
C87   C     C_R   0.007029 0.815001 0.318431 -0.234523
C88   C     C_R   0.019219 0.746493 0.328165 -0.042788
C89   C     C_R   0.126912 0.855751 0.170584 -0.205633
C90   C     C_R   0.158518 0.875514 0.120154 0.217334
C91   C     C_R   0.100613 0.828048 0.030159 0.132472
C92   C     C_R   0.011022 0.764281 0.992791 0.206750
C93   C     C_R   0.980475 0.748225 0.045389 -0.175921
C94   C     C_R   0.038830 0.791871 0.133729 0.093110
C95   C     C_R   0.309025 0.296678 0.795462 0.120136
C96   C     C_R   0.229361 0.267649 0.797081 0.220725
C97   C     C_R   0.164221 0.287106 0.757245 -0.083025
C98   C     C_R   0.182491 0.340325 0.722965 -0.219704
C99   C     C_R   0.261323 0.370445 0.723205 -0.204770
C100  C     C_R   0.324788 0.348073 0.757591 0.208926
C101  C     C_R   0.076641 0.322116 0.819765 -0.124044
C102  C     C_R   0.995725 0.309389 0.813053 -0.138067
C103  C     C_R   0.914449 0.234125 0.741993 -0.087348
C104  C     C_R   0.915982 0.172826 0.676510 0.309903
C105  C     C_R   0.998327 0.186260 0.684523 -0.161198
C106  C     C_R   0.079228 0.261018 0.756300 0.073200
C107  C     C_R   0.800380 0.188956 0.781857 -0.109995
C108  C     C_R   0.723528 0.184453 0.782477 0.240698
C109  C     C_R   0.673061 0.210692 0.733475 0.297254
C110  C     C_R   0.698571 0.236406 0.682140 -0.194379
C111  C     C_R   0.775263 0.241030 0.682748 -0.181144
C112  C     C_R   0.828164 0.220253 0.734680 0.089792
H2    H     H_    0.849349 0.859457 0.908383 0.207371
H3    H     H_    0.583196 0.804024 0.164160 0.190320
H4    H     H_    0.639488 0.699573 0.145355 0.198831
N1    N     N_R   0.718021 0.661904 0.261616 0.240166
O25   O     O_R   0.688884 0.599720 0.184669 -0.256624
O26   O     O_R   0.779370 0.669918 0.327123 -0.370072
N2    N     N_R   0.541258 0.951588 0.588895 0.244416
O27   O     O_R   0.620628 0.000052 0.606508 -0.322270
O28   O     O_R   0.499953 0.990730 0.612580 -0.340720
N3    N     N_R   0.415440 0.827497 0.605996 0.231138
O29   O     O_R   0.481882 0.888494 0.683310 -0.211972
O30   O     O_R   0.337535 0.786723 0.595032 -0.296896
H5    H     H_    0.327120 0.661891 0.472522 0.204414
H6    H     H_    0.466363 0.713259 0.344106 0.213574
H7    H     H_    0.555331 0.869766 0.455688 0.193303
N4    N     N_R   0.271144 0.664699 0.258047 0.202692
O31   O     O_R   0.310590 0.694387 0.222362 -0.351773
O32   O     O_R   0.252376 0.714776 0.306394 -0.375196
H8    H     H_    0.238490 0.364001 0.244264 0.160214
H9    H     H_    0.717456 0.855859 0.815091 0.213783
N5    N     N_R   0.021463 0.363677 0.197211 0.266644
O33   O     O_R   0.092025 0.424434 0.272088 -0.377175
O34   O     O_R   0.946456 0.361911 0.180793 -0.202567
N6    N     N_R   0.889300 0.177736 0.092832 0.266485
O35   O     O_R   0.810724 0.111789 0.030467 -0.266850
O36   O     O_R   0.910386 0.200106 0.171341 -0.253617
H10   H     H_    0.900629 0.090693 0.959618 0.238067
N7    N     N_R   0.015195 0.130547 0.910102 0.278790
O37   O     O_R   0.023839 0.157340 0.858633 -0.296833
O38   O     O_R   0.987269 0.047297 0.885457 -0.292797
N8    N     N_R   0.167961 0.303425 0.031254 0.242460
O39   O     O_R   0.199906 0.378188 0.034014 -0.388076
O40   O     O_R   0.204514 0.254538 0.019086 -0.226114
N9    N     N_R   0.177237 0.614645 0.551057 0.239857
O41   O     O_R   0.199798 0.671059 0.627878 -0.296639
O42   O     O_R   0.157105 0.634576 0.491804 -0.296506
H11   H     H_    0.311339 0.613208 0.660061 0.218843
H12   H     H_    0.338008 0.489004 0.639292 0.208120
H13   H     H_    0.111961 0.327552 0.382814 0.222231
N10   N     N_R   0.041738 0.433997 0.401964 0.277895
O43   O     O_R   0.985931 0.353803 0.336282 -0.227647
O44   O     O_R   0.009977 0.485404 0.424448 -0.270085
N11   N     N_R   0.662128 0.823581 0.656470 0.221394
O45   O     O_R   0.671392 0.859200 0.611124 -0.361359
O46   O     O_R   0.595139 0.810482 0.667780 -0.375305
N12   N     N_R   0.094721 0.256128 0.485476 0.206463
O47   O     O_R   0.023899 0.210181 0.409325 -0.298826
O48   O     O_R   0.098224 0.317432 0.547392 -0.429165
N13   N     N_R   0.405429 0.242596 0.512263 0.229104
O49   O     O_R   0.401649 0.178069 0.452993 -0.321779
O50   O     O_R   0.482205 0.306953 0.579238 -0.356639
H14   H     H_    0.337979 0.169604 0.645795 0.192710
H15   H     H_    0.365953 0.050362 0.652668 0.234264
H16   H     H_    0.318132 0.917076 0.519043 0.201022
H17   H     H_    0.245050 0.904964 0.378849 0.179383
H18   H     H_    0.221312 0.026535 0.371615 0.188578
H19   H     H_    0.635682 0.520656 0.763007 0.196288
N14   N     N_R   0.741420 0.508826 0.549808 0.224920
O51   O     O_R   0.714343 0.469084 0.468412 -0.277810
O52   O     O_R   0.754958 0.588637 0.588577 -0.424281
H20   H     H_    0.834008 0.429668 0.531461 0.230220
N15   N     N_R   0.914778 0.763028 0.697905 0.259031
O53   O     O_R   0.891388 0.723550 0.617505 -0.335861
O54   O     O_R   0.991901 0.781608 0.754143 -0.242157
H21   H     H_    0.914290 0.430415 0.763524 0.145394
H22   H     H_    0.741543 0.514638 0.873351 0.173449
H23   H     H_    0.039120 0.714149 0.597670 0.258018
N16   N     N_R   0.186059 0.848635 0.636939 0.264815
O55   O     O_R   0.189878 0.846743 0.704338 -0.229313
O56   O     O_R   0.254682 0.908597 0.646585 -0.347526
H24   H     H_    0.155757 0.843270 0.489243 0.184552
N17   N     N_R   0.881986 0.587459 0.303642 0.282752
O57   O     O_R   0.850917 0.600253 0.240559 -0.292196
O58   O     O_R   0.853804 0.506283 0.286847 -0.185952
N18   N     N_R   0.887172 0.588381 0.454326 0.284187
O59   O     O_R   0.903389 0.558629 0.506035 -0.304886
O60   O     O_R   0.805554 0.565738 0.404803 -0.214599
N19   N     N_R   0.045980 0.622297 0.277918 0.203528
O61   O     O_R   0.121710 0.650143 0.343296 -0.310662
O62   O     O_R   0.986568 0.538752 0.233714 -0.241419
N20   N     N_R   0.000059 0.898630 0.242641 0.227425
O63   O     O_R   0.940916 0.883482 0.170801 -0.336637
O64   O     O_R   0.057635 0.980115 0.304890 -0.418679
H25   H     H_    0.942279 0.823893 0.856038 0.229950
H26   H     H_    0.171411 0.889485 0.239115 0.174405
N21   N     N_R   0.249158 0.943410 0.161121 0.245857
O65   O     O_R   0.308442 0.964784 0.236192 -0.322298
O66   O     O_R   0.271234 0.990620 0.128365 -0.247049
N22   N     N_R   0.133079 0.843124 0.976939 0.277200
O67   O     O_R   0.110703 0.886251 0.941439 -0.260880
O68   O     O_R   0.192868 0.822914 0.972036 -0.260301
N23   N     N_R   0.951324 0.712495 0.901540 0.194884
O69   O     O_R   0.979137 0.686733 0.849695 -0.302046
O70   O     O_R   0.867153 0.685764 0.869966 -0.444308
H27   H     H_    0.912740 0.697714 0.017031 0.174853
N24   N     N_R   0.404292 0.378308 0.753715 0.228083
O71   O     O_R   0.446714 0.334377 0.751720 -0.299914
O72   O     O_R   0.430849 0.446457 0.744970 -0.401211
N25   N     N_R   0.374094 0.275205 0.833812 0.263889
O73   O     O_R   0.453725 0.338105 0.896904 -0.217657
O74   O     O_R   0.351968 0.193043 0.810291 -0.290170
N26   N     N_R   0.218793 0.225051 0.844656 0.256528
O75   O     O_R   0.145443 0.153337 0.811615 -0.230035
O76   O     O_R   0.284663 0.255526 0.920047 -0.210105
H28   H     H_    0.135510 0.360143 0.697309 0.225108
H29   H     H_    0.272280 0.410913 0.695425 0.207005
N27   N     N_R   0.894024 0.913564 0.660295 0.212566
O77   O     O_R   0.875998 0.968945 0.703799 -0.274946
O78   O     O_R   0.973491 0.924571 0.695860 -0.261673
H30   H     H_    0.138151 0.381520 0.873671 0.196790
N28   N     N_R   0.834177 0.097502 0.601900 0.226142
O79   O     O_R   0.782410 0.108041 0.545689 -0.366916
O80   O     O_R   0.815508 0.017793 0.585766 -0.356709
H31   H     H_    0.840025 0.170036 0.819792 0.194697
N29   N     N_R   0.697351 0.151985 0.831732 0.245890
O81   O     O_R   0.757169 0.164070 0.901285 -0.336709
O82   O     O_R   0.614028 0.100871 0.802046 -0.192857
N30   N     N_R   0.598912 0.215552 0.737990 0.239940
O83   O     O_R   0.602781 0.245942 0.811264 -0.264802
O84   O     O_R   0.534150 0.204148 0.672446 -0.308538
H32   H     H_    0.660724 0.256165 0.643807 0.213540
H33   H     H_    0.794340 0.262324 0.643737 0.188353
N31   N     N_R   0.590155 0.613453 0.346936 0.207272
O85   O     O_R   0.511822 0.597459 0.334120 -0.442037
O86   O     O_R   0.597339 0.555506 0.292382 -0.227978
H34   H     H_    0.663655 0.866987 0.422096 0.194694
H35   H     H_    0.595813 0.888331 0.302617 0.190347

loop_
_geom_bond_atom_site_label_1
_geom_bond_atom_site_label_2
_geom_bond_distance
_ccdc_geom_bond_type
C77   C82   1.398339 A    
C45   C46   1.418631 A    
C59   N14   1.425668 S    
C95   C96   1.421299 A    
Zn4   O16   2.013753 S    
C78   C79   1.404924 A    
O18   C73   1.280143 A    
N14   O52   1.295924 A    
C31   C32   1.380418 A    
C10   H2    1.082634 S    
C83   N19   1.439097 S    
N1    O25   1.301533 A    
O12   Zn4   2.040761 S    
C11   C16   1.395489 A    
N20   O63   1.301253 A    
C37   H10   1.083374 S    
C30   C74   1.436505 S    
C83   C84   1.402064 A    
C47   C48   1.410029 A    
C47   C52   1.393111 A    
N6    O36   1.300778 A    
N15   O53   1.300580 A    
C85   C86   1.387226 A    
Zn1   O7    2.014511 S    
O24   C76   1.277602 A    
C1    C33   1.435531 S    
N21   O65   1.301734 A    
N28   O80   1.299154 A    
C8    N15   1.451934 S    
C7    C16   1.491661 S    
C95   C100  1.417827 A    
C5    H9    1.082764 S    
N5    O33   1.300536 A    
N1    O26   1.299038 A    
C48   C72   1.441619 S    
C80   N17   1.444797 S    
C82   H23   1.082535 S    
C41   C46   1.401220 A    
C57   H18   1.081229 S    
C107  C112  1.401336 A    
N17   O58   1.301685 A    
C19   H3    1.082359 S    
O4    C2    1.291261 A    
Zn2   O6    2.035058 S    
O7    C4    1.269670 A    
Zn3   O13   2.008391 S    
C2    C15   1.446998 S    
C6    C7    1.424362 A    
N27   O78   1.300903 A    
C84   C85   1.409125 A    
O20   C74   1.278525 A    
C108  N29   1.437222 S    
Zn5   O23   2.008744 S    
C77   C78   1.400363 A    
C7    C8    1.430562 A    
C24   C25   1.403435 A    
C62   C63   1.413350 A    
C12   C70   1.443936 S    
N12   O48   1.299105 A    
O5    C3    1.292997 A    
N8    O39   1.300866 A    
C81   C82   1.401598 A    
O9    Zn3   2.034062 S    
N31   O85   1.298502 A    
C103  C112  1.485152 S    
C87   C88   1.424489 A    
N18   O60   1.301048 A    
N4    O31   1.300981 A    
C53   H14   1.080127 S    
C100  N24   1.443611 S    
C101  C102  1.394741 A    
N9    O42   1.300534 A    
Zn4   O14   2.034140 S    
C95   N25   1.433992 S    
C26   C27   1.392158 A    
N25   O74   1.301218 A    
N23   O69   1.301201 A    
N4    O32   1.300086 A    
C14   C15   1.406653 A    
C20   H4    1.082522 S    
C60   C61   1.382437 A    
C96   N26   1.437330 S    
N7    O37   1.299465 A    
N3    O30   1.300442 A    
C19   C20   1.395827 A    
C89   H26   1.081330 S    
C83   C88   1.393537 A    
O11   C70   1.291789 A    
C50   N13   1.437689 S    
C111  H33   1.081041 S    
C21   N1    1.434589 S    
C104  C105  1.409823 A    
C56   C57   1.398640 A    
C107  H31   1.083959 S    
C49   C50   1.395276 A    
Zn6   O22   2.008548 S    
N26   O75   1.298871 A    
C97   C98   1.395947 A    
C60   H20   1.081989 S    
N23   O70   1.300042 A    
C71   C105  1.434202 S    
C110  C111  1.394090 A    
O3    Zn1   2.039944 S    
C63   C68   1.406495 A    
N22   O68   1.300884 A    
C39   N8    1.434854 S    
O19   C74   1.287157 A    
O10   C69   1.289364 A    
N8    O40   1.300349 A    
C46   N9    1.433789 S    
N15   O54   1.301120 A    
N24   O71   1.300604 A    
Zn6   O24   2.036054 S    
C5    C10   1.386116 A    
C91   C92   1.416565 A    
C90   N21   1.441179 S    
C36   N6    1.438851 S    
C68   C76   1.430726 S    
C57   C58   1.403973 A    
O13   C71   1.276214 A    
C92   C93   1.403957 A    
C18   H35   1.082350 S    
O12   C70   1.273086 A    
O9    C69   1.276495 A    
C78   H24   1.080710 S    
Zn3   O15   2.041020 S    
N6    O35   1.301428 A    
C61   C62   1.384424 A    
C67   C68   1.387057 A    
C8    C9    1.404539 A    
C79   C80   1.423039 A    
N27   O77   1.300122 A    
C66   C67   1.373391 A    
C4    C51   1.438521 S    
C41   C42   1.391879 A    
C50   C51   1.407727 A    
O1    C1    1.276279 A    
C25   C26   1.400677 A    
N13   O50   1.300982 A    
C27   H7    1.080760 S    
C27   C28   1.402121 A    
N29   O82   1.300957 A    
C64   C65   1.438033 A    
N16   O55   1.301667 A    
C47   N12   1.440784 S    
N19   O61   1.300050 A    
C49   C58   1.485079 S    
O16   C72   1.276854 A    
C38   N7    1.431002 S    
C93   H27   1.083612 S    
C43   C52   1.497375 S    
C99   C100  1.400018 A    
C37   C38   1.394775 A    
C3    C65   1.452430 S    
O17   Zn5   2.008463 S    
C20   C21   1.407588 A    
Zn2   O8    2.039944 S    
C96   C97   1.417534 A    
Zn5   O21   2.034284 S    
N25   O73   1.301186 A    
N10   O43   1.300728 A    
N24   O72   1.301336 A    
C15   C16   1.423118 A    
O10   Zn4   2.008268 S    
C109  C110  1.404768 A    
O14   C71   1.283734 A    
O17   C73   1.287663 A    
C25   C34   1.484293 S    
C67   H22   1.084268 S    
C90   C91   1.414381 A    
C56   H17   1.081938 S    
N31   O86   1.300111 A    
C101  H30   1.085327 S    
C97   C106  1.488386 S    
C55   H16   1.082432 S    
C26   H6    1.082026 S    
O3    C2    1.275611 A    
C38   C39   1.409588 A    
C17   H34   1.081643 S    
C62   H21   1.080285 S    
O8    C4    1.291656 A    
N9    O41   1.301257 A    
C85   C94   1.483367 S    
N26   O76   1.301060 A    
C33   C34   1.412942 A    
C102  C103  1.413542 A    
C110  H32   1.082910 S    
N2    O28   1.300582 A    
C35   C36   1.415412 A    
C32   C33   1.392330 A    
C69   C87   1.443477 S    
C29   C34   1.397013 A    
N11   O46   1.300565 A    
C41   H11   1.082849 S    
C31   C40   1.489736 S    
C11   N27   1.440544 S    
C77   N16   1.439991 S    
C42   C43   1.402456 A    
O15   C72   1.286548 A    
N30   O84   1.301197 A    
C98   C99   1.389777 A    
C92   N23   1.434573 S    
C99   H29   1.079522 S    
N12   O47   1.301651 A    
N16   O56   1.300680 A    
C14   N31   1.436972 S    
C44   C45   1.411076 A    
C18   C19   1.393161 A    
C45   N10   1.446381 S    
O19   Zn5   2.035977 S    
C80   C81   1.418203 A    
C29   N4    1.437585 S    
C17   C22   1.405264 A    
O1    Zn1   2.035058 S    
C35   N5    1.439745 S    
C21   C22   1.416728 A    
O2    Zn2   2.009324 S    
C12   C13   1.412581 A    
C44   H13   1.082445 S    
C105  C106  1.411491 A    
O6    C3    1.277406 A    
N20   O64   1.300015 A    
C79   C88   1.495977 S    
C9    C10   1.388685 A    
O4    Zn2   2.014511 S    
C108  C109  1.418910 A    
C32   H8    1.085905 S    
C43   C44   1.405202 A    
C73   C102  1.439199 S    
C24   H5    1.083824 S    
N7    O38   1.301198 A    
O20   Zn6   2.008624 S    
C91   N22   1.430792 S    
C53   C58   1.403045 A    
C103  C104  1.395598 A    
C23   C28   1.417544 A    
N2    O27   1.301335 A    
N14   O51   1.301349 A    
C75   C84   1.435744 S    
C109  N30   1.437485 S    
N13   O49   1.300638 A    
N28   O79   1.300456 A    
N5    O34   1.301320 A    
O2    C1    1.285885 A    
C48   C49   1.410759 A    
C61   H1    1.082794 S    
N21   O66   1.301182 A    
C6    N11   1.436487 S    
C86   C87   1.410525 A    
C13   C22   1.489628 S    
C9    H25   1.076015 S    
C65   C66   1.400127 A    
N18   O59   1.300781 A    
N30   O83   1.301238 A    
C35   C40   1.421840 A    
C5    C6    1.400549 A    
C54   H15   1.082015 S    
C54   C55   1.397526 A    
N22   O67   1.299912 A    
C89   C94   1.398754 A    
C23   C24   1.408358 A    
C59   C64   1.434354 A    
O22   C75   1.288688 A    
C23   N3    1.438141 S    
C55   C56   1.396518 A    
C104  N28   1.437037 S    
C51   C52   1.417167 A    
C66   H19   1.084250 S    
C59   C60   1.401764 A    
C36   C37   1.397076 A    
C107  C108  1.406635 A    
C13   C14   1.391463 A    
C53   C54   1.397460 A    
C29   C30   1.407004 A    
Zn1   O5    2.009323 S    
N17   O57   1.300546 A    
O11   Zn3   2.013666 S    
C63   C64   1.414134 A    
N10   O44   1.301044 A    
N19   O62   1.299117 A    
C39   C40   1.413224 A    
O21   C75   1.275803 A    
N29   O81   1.300969 A    
C17   C18   1.394232 A    
C111  C112  1.397319 A    
C42   H12   1.081635 S    
C81   N18   1.436303 S    
C89   C90   1.400491 A    
C86   N20   1.440986 S    
C30   C31   1.411638 A    
C101  C106  1.380887 A    
N11   O45   1.300297 A    
C11   C12   1.398222 A    
C28   N2    1.436882 S    
O23   C76   1.284185 A    
O18   Zn6   2.034158 S    
C93   C94   1.396495 A    
N3    O29   1.301151 A    
C98   H28   1.082508 S    
