data_mof_unit_25533.cif
_audit_creation_date              2012-12-10T17:22:54-0500
_audit_creation_method            fapswitch 2.2
_symmetry_space_group_name_H-M    P1
_symmetry_Int_Tables_number       1
_space_group_crystal_system       triclinic
_cell_length_a                    10.332776
_cell_length_b                    10.507543
_cell_length_c                    10.64017
_cell_angle_alpha                 90.923632
_cell_angle_beta                  92.87045
_cell_angle_gamma                 81.881487
_cell_volume                      1142.16515818

loop_
_atom_site_label
_atom_site_type_symbol
_atom_type_description
_atom_site_fract_x
_atom_site_fract_y
_atom_site_fract_z
_atom_type_partial_charge
C1    C     C_R   0.448111 0.516737 0.267381 0.945017
C2    C     C_R   0.552593 0.498146 0.732970 0.941601
C3    C     C_R   0.499808 0.257937 0.501029 0.873754
C4    C     C_R   0.499957 0.742440 0.497964 0.958602
C5    C     C_3   0.621767 0.025033 0.483145 -0.124758
C6    C     C_3   0.377468 0.976452 0.515842 -0.116331
C7    C     C_3   0.540158 0.953302 0.387920 -0.163850
C8    C     C_3   0.459029 0.048602 0.611085 -0.186000
C9    C     C_3   0.499669 0.878125 0.497624 0.008837
C10   C     C_3   0.499746 0.123000 0.501192 0.003590
C11   C     C_3   0.580919 0.947773 0.592978 -0.123967
C12   C     C_3   0.418379 0.053778 0.406157 -0.157340
C13   C     C_2   0.427097 0.546186 0.134577 -0.360399
C14   C     C_2   0.576432 0.515061 0.866916 -0.309843
C15   C     C_2   0.515948 0.598206 0.069481 -0.098770
C16   C     C_2   0.497495 0.600980 0.933995 -0.083282
C17   C     C_2   0.073100 0.483377 0.498273 0.226531
C18   C     C_2   0.925364 0.510415 0.512832 0.216011
H1    H     H_    0.572464 0.917653 0.294722 0.203534
H2    H     H_    0.425947 0.092138 0.701808 0.164087
H3    H     H_    0.721817 0.048015 0.469919 0.188561
H4    H     H_    0.277381 0.953441 0.528803 0.188911
H5    H     H_    0.647097 0.900480 0.669115 0.203771
H6    H     H_    0.352379 0.100957 0.329853 0.189259
H7    H     H_    0.655551 0.451029 0.913642 0.175972
H8    H     H_    0.340228 0.518039 0.086081 0.186285
N1    N     N_2   0.157310 0.552180 0.551120 -0.193665
N2    N     N_2   0.842690 0.447820 0.448880 -0.193221
O1    O     O_R   0.568940 0.489500 0.307530 -0.589080
O2    O     O_R   0.431060 0.510500 0.692470 -0.621565
O3    O     O_R   0.348880 0.522990 0.340350 -0.574445
O4    O     O_R   0.651120 0.477010 0.659650 -0.570426
O5    O     O_R   0.610000 0.297210 0.483560 -0.618146
O6    O     O_R   0.390000 0.702790 0.516440 -0.615403
O7    O     O_R   0.389940 0.330700 0.516390 -0.580658
O8    O     O_R   0.610060 0.669300 0.483610 -0.554352
Zn1   Zn    Zn3+2 0.646930 0.477640 0.478080 1.060012
Zn2   Zn    Zn3+2 0.353070 0.522360 0.521920 1.043246
C19   C     C_2   0.402235 0.707358 0.879779 0.994391
O9    O     O_2   0.302717 0.746037 0.934550 -0.602865
O10   O     O_R   0.430638 0.769703 0.772042 -0.807284
H9    H     H_    0.360669 0.844222 0.748595 0.355813
C20   C     C_2   0.630595 0.657084 0.122666 0.961747
O11   O     O_2   0.633989 0.697429 0.230561 -0.640961
O12   O     O_R   0.732084 0.673643 0.044851 -0.777754
H10   H     H_    0.802422 0.718278 0.089469 0.369475
Br1   Br    Br    0.852518 0.640355 0.629898 -0.421618
Br2   Br    Br    0.141389 0.341185 0.392397 -0.471218
C21   C     C_2   0.860295 0.423554 0.318366 1.081799
O13   O     O_2   0.817790 0.331584 0.268123 -0.607293
O14   O     O_R   0.918581 0.508153 0.246220 -0.794031
H11   H     H_    0.924184 0.480035 0.154845 0.360009
C22   C     C_2   0.137889 0.605136 0.673138 1.078023
O15   O     O_2   0.148083 0.718270 0.692454 -0.595452
O16   O     O_R   0.114515 0.526435 0.771998 -0.791237
H12   H     H_    0.105094 0.574995 0.854911 0.366374

loop_
_geom_bond_atom_site_label_1
_geom_bond_atom_site_label_2
_ccdc_geom_bond_type
C20   O11   D    
C4    O8    A    
C22   O15   D    
C14   C16   D    
C9    C11   S    
O10   H9    S    
C12   H6    S    
O3    Zn2   S    
C3    O7    A    
C2    O2    A    
C17   Br2   S    
C18   Br1   S    
C6    C9    S    
N1    C22   S    
C17   C18   S    
C15   C20   S    
C5    C10   S    
C19   O10   S    
C3    C10   S    
O12   H10   S    
C20   O12   S    
C8    H2    S    
C10   C12   S    
N2    Zn1   S    
C8    C11   S    
C1    O1    A    
O8    Zn1   S    
C5    C11   S    
C7    H1    S    
C22   O16   S    
C13   C15   D    
C6    C12   S    
C7    C12   S    
C2    C14   S    
C4    O6    A    
C13   H8    S    
C1    C13   S    
C3    O5    A    
N1    Zn2   S    
O1    Zn1   S    
C15   C16   S    
C17   N1    D    
C7    C9    S    
C1    O3    A    
O7    Zn2   S    
C18   N2    D    
C14   H7    S    
O2    Zn2   S    
C2    O4    A    
C21   O13   D    
N2    C21   S    
C11   H5    S    
C19   O9    D    
C5    C7    S    
C6    C8    S    
O4    Zn1   S    
C16   C19   S    
O16   H12   S    
C4    C9    S    
O6    Zn2   S    
C8    C10   S    
O5    Zn1   S    
O14   H11   S    
C21   O14   S    
C5    H3    S    
C6    H4    S    
