data_mof_unit_33976.cif
_audit_creation_date              2013-03-05T15:42:04-0500
_audit_creation_method            fapswitch 2.2
_symmetry_space_group_name_H-M    P1
_symmetry_Int_Tables_number       1
_space_group_crystal_system       triclinic
_cell_length_a                    7.825617
_cell_length_b                    8.574199
_cell_length_c                    15.728675
_cell_angle_alpha                 90.577012
_cell_angle_beta                  86.361052
_cell_angle_gamma                 93.721719
_cell_volume                      1051.00110711

loop_
_atom_site_label
_atom_site_type_symbol
_atom_site_description
_atom_site_fract_x
_atom_site_fract_y
_atom_site_fract_z
_atom_type_partial_charge
O1    O     O_R   0.389250 0.738570 0.505570 -0.601387
O2    O     O_R   0.610750 0.261430 0.494430 -0.601388
O3    O     O_R   0.678390 0.711630 0.491020 -0.581027
O4    O     O_R   0.321610 0.288370 0.508980 -0.581026
C1    C     C_R   0.545589 0.794439 0.497716 0.944136
C2    C     C_R   0.454411 0.205561 0.502283 0.944138
O5    O     O_R   0.355460 0.513480 0.630490 -0.595446
O6    O     O_R   0.644540 0.486520 0.369510 -0.595447
O7    O     O_R   0.644600 0.486540 0.615950 -0.595661
O8    O     O_R   0.355400 0.513460 0.384050 -0.595652
C3    C     C_R   0.502902 0.498722 0.661594 0.869176
C4    C     C_R   0.497098 0.501278 0.338406 0.869179
Zn1   Zn    Zn3+2 0.306940 0.517990 0.509710 1.138655
Zn2   Zn    Zn3+2 0.693060 0.482010 0.490290 1.138651
C5    C     C_2   0.569229 0.958133 0.495831 -0.293990
C6    C     C_2   0.430771 0.041867 0.504168 -0.293986
C7    C     C_3   0.434032 0.634065 0.024454 0.139630
C8    C     C_3   0.565966 0.365934 0.975546 0.139630
C9    C     C_3   0.602755 0.622105 0.969381 0.305746
C10   C     C_3   0.397244 0.377895 0.030618 0.305746
C11   C     C_1   0.510321 0.494108 0.749937 -0.035608
C12   C     C_1   0.489679 0.505892 0.250063 -0.035605
C13   C     C_3   0.345432 0.505995 0.970819 0.131983
C14   C     C_3   0.654567 0.494004 0.029181 0.131982
C15   C     C_3   0.513189 0.492584 0.915674 -0.269575
C16   C     C_3   0.486810 0.507415 0.084326 -0.269575
N1    N     N_2   0.950320 0.457950 0.477300 0.038129
N2    N     N_2   0.049680 0.542050 0.522700 0.038128
H1    H     H_    0.699898 0.009102 0.487197 0.246005
H2    H     H_    0.300102 0.990898 0.512802 0.246004
C17   C     C_1   0.515224 0.491253 0.824871 0.232299
C18   C     C_1   0.484775 0.508747 0.175129 0.232299
Cl1   Cl    Cl    0.738142 0.781343 0.927119 -0.286865
Cl2   Cl    Cl    0.261857 0.218656 0.072881 -0.286864
N3    N     N_R   0.361547 0.780749 0.050260 0.303607
O9    O     O_R   0.332905 0.882242 0.992837 -0.202867
O10   O     O_R   0.329884 0.813054 0.130433 -0.279562
N4    N     N_R   0.638452 0.219250 0.949740 0.303607
O11   O     O_R   0.667092 0.117757 0.007163 -0.202868
O12   O     O_R   0.670116 0.186945 0.869568 -0.279562
N5    N     N_R   0.821425 0.490206 0.064967 0.269429
O13   O     O_R   0.902638 0.362675 0.061702 -0.236317
O14   O     O_R   0.881823 0.609980 0.107606 -0.271842
N6    N     N_R   0.178574 0.509794 0.935033 0.269430
O15   O     O_R   0.118176 0.390019 0.892395 -0.271842
O16   O     O_R   0.097364 0.637326 0.938296 -0.236317
N7    N     N_R   0.000323 0.307324 0.463973 0.302423
O17   O     O_R   0.970363 0.204770 0.524383 -0.347624
O18   O     O_R   0.037880 0.259788 0.386681 -0.323456
N8    N     N_R   0.999682 0.692678 0.536024 0.302419
O19   O     O_R   0.029628 0.795221 0.475607 -0.347618
O20   O     O_R   0.962157 0.740231 0.613316 -0.323456

loop_
_geom_bond_atom_site_label_1
_geom_bond_atom_site_label_2
_geom_bond_distance
_ccdc_geom_bond_type
C15   C17   1.427229 S    
N8    O20   1.300260 A    
O7    Zn2   1.989211 S    
Zn1   N2    2.034258 S    
C16   C18   1.427229 S    
C5    H1    1.086562 S    
Zn2   N1    2.034257 S    
C11   C17   1.182223 T    
N5    O13   1.298916 A    
N7    O17   1.301072 A    
C10   C13   1.543532 S    
O6    C4    1.295581 A    
C10   C16   1.547049 S    
C10   Cl2   1.780342 S    
C13   C15   1.536882 S    
C9    C14   1.543531 S    
C8    N4    1.456514 S    
N7    O18   1.300251 A    
C7    C13   1.534588 S    
O5    C3    1.295581 A    
C14   N5    1.456741 S    
N5    O14   1.300453 A    
O2    C2    1.283541 A    
O3    Zn2   1.979453 S    
C12   C18   1.182221 T    
O1    C1    1.283541 A    
C7    C16   1.537797 S    
O8    C4    1.291666 A    
N4    O12   1.300179 A    
N6    O16   1.298915 A    
N8    O19   1.301081 A    
C8    C10   1.541037 S    
O7    C3    1.291666 A    
N4    O11   1.300057 A    
O2    Zn2   1.958352 S    
C8    C15   1.537796 S    
C8    C14   1.534589 S    
C1    C5    1.404096 S    
O1    Zn1   1.958354 S    
C9    C15   1.547049 S    
C6    H2    1.086563 S    
C5    C6    1.337054 D    
C4    C12   1.395467 S    
O5    Zn1   1.962017 S    
N6    O15   1.300452 A    
N3    O10   1.300179 A    
O4    C2    1.294470 A    
C9    Cl1   1.780342 S    
N1    N7    1.383750 S    
N1    N2    1.273497 D    
N2    N8    1.383748 S    
O6    Zn2   1.962017 S    
C7    N3    1.456514 S    
C7    C9    1.541037 S    
C2    C6    1.404097 S    
C3    C11   1.395467 S    
C13   N6    1.456741 S    
N3    O9    1.300056 A    
O4    Zn1   1.979452 S    
C14   C16   1.536883 S    
O3    C1    1.294471 A    
O8    Zn1   1.989211 S    
