data_mof_unit_55654.cif
_audit_creation_date              2013-03-05T16:18:22-0500
_audit_creation_method            fapswitch 2.2
_symmetry_space_group_name_H-M    P1
_symmetry_Int_Tables_number       1
_space_group_crystal_system       triclinic
_cell_length_a                    10.611322
_cell_length_b                    9.749123
_cell_length_c                    10.518024
_cell_angle_alpha                 89.834955
_cell_angle_beta                  88.877793
_cell_angle_gamma                 90.013102
_cell_volume                      1087.88771827

loop_
_atom_site_label
_atom_site_type_symbol
_atom_site_description
_atom_site_fract_x
_atom_site_fract_y
_atom_site_fract_z
_atom_type_partial_charge
O1    O     O_R   0.314910 0.616040 0.499970 -0.643331
O2    O     O_R   0.314910 0.383960 0.499970 -0.643213
C1    C     C_R   0.257980 0.499868 0.507158 0.825169
O3    O     O_R   0.500080 0.616020 0.313900 -0.600012
O4    O     O_R   0.500080 0.383980 0.313900 -0.601993
C2    C     C_R   0.500564 0.500248 0.257206 0.943701
Zn1   Zn    Zn3+2 0.500150 0.654960 0.499940 0.954137
Zn2   Zn    Zn3+2 0.500150 0.345040 0.499940 0.951407
O5    O     O_R   0.685320 0.616040 0.499930 -0.594449
O6    O     O_R   0.685320 0.383960 0.499930 -0.601642
O7    O     O_R   0.500150 0.616060 0.686000 -0.637904
O8    O     O_R   0.500150 0.383940 0.686000 -0.638069
C3    C     C_R   0.742120 0.499891 0.507064 0.863752
C4    C     C_R   0.498974 0.499770 0.742440 0.879931
C5    C     C_3   0.446132 0.617724 0.041212 -0.154430
C6    C     C_3   0.431848 0.391911 0.043260 -0.181762
C7    C     C_3   0.378931 0.508828 0.959980 -0.189565
H1    H     H_    0.281828 0.515761 0.923013 0.147131
H2    H     H_    0.402963 0.713265 0.079290 0.166827
H3    H     H_    0.377064 0.304303 0.083321 0.163533
C8    C     C_3   0.498602 0.499257 0.876946 -0.088678
C9    C     C_3   0.565653 0.608639 0.954796 -0.179968
C10   C     C_3   0.551429 0.381754 0.956895 -0.171203
C11   C     C_3   0.615386 0.491544 0.036652 0.381738
C12   C     C_3   0.499152 0.500870 0.122190 -0.085361
H4    H     H_    0.621555 0.695643 0.915120 0.174784
H5    H     H_    0.595403 0.286585 0.918899 0.180499
C13   C     C_3   0.070736 0.616659 0.598030 -0.388167
C14   C     C_3   0.071041 0.360741 0.564585 -0.392036
H6    H     H_    0.105195 0.718194 0.563285 0.184257
H7    H     H_    0.105244 0.273688 0.504910 0.187923
H8    H     H_    0.104612 0.602753 0.696754 0.164049
H9    H     H_    0.105003 0.343727 0.662890 0.170864
C15   C     C_3   0.926094 0.616542 0.598419 -0.394997
C16   C     C_3   0.927244 0.361040 0.565212 -0.388209
H10   H     H_    0.888805 0.602242 0.697257 0.173803
H11   H     H_    0.890103 0.344610 0.663841 0.176010
H12   H     H_    0.892687 0.718103 0.564177 0.210288
H13   H     H_    0.895033 0.273808 0.506514 0.235604
H14   H     H_    0.111105 0.619280 0.334654 0.183386
H15   H     H_    0.110800 0.436745 0.311567 0.180297
H16   H     H_    0.897776 0.621212 0.337290 0.249295
H17   H     H_    0.896543 0.438357 0.311687 0.234908
C17   C     C_3   0.075023 0.520465 0.374423 -0.419196
C18   C     C_3   0.121556 0.499484 0.511326 0.166024
C19   C     C_3   0.878653 0.499570 0.511663 0.106405
C20   C     C_3   0.930896 0.521121 0.374969 -0.293308
C21   C     C_3   0.373551 0.081125 0.533398 -0.347845
C22   C     C_3   0.373711 0.918546 0.534095 -0.348485
H18   H     H_    0.301369 0.118330 0.466260 0.162508
H19   H     H_    0.300867 0.880785 0.468095 0.164901
H20   H     H_    0.343606 0.119804 0.628741 0.183896
H21   H     H_    0.344759 0.880166 0.630056 0.183025
H22   H     H_    0.453552 0.113693 0.304077 0.055297
H23   H     H_    0.451232 0.888848 0.304987 0.049070
C23   C     C_3   0.530951 0.081651 0.368140 0.213623
C24   C     C_3   0.529977 0.919146 0.367974 0.215237
C25   C     C_3   0.587957 0.080520 0.591801 -0.244218
C26   C     C_3   0.588379 0.919245 0.591433 -0.242567
N1    N     N_3   0.499750 0.138610 0.497240 -0.098935
N2    N     N_3   0.499750 0.861390 0.497240 -0.097700
H24   H     H_    0.684526 0.120881 0.577549 0.199610
H25   H     H_    0.685170 0.880086 0.576544 0.200242
H26   H     H_    0.560022 0.116490 0.688640 0.154727
H27   H     H_    0.561360 0.882051 0.688319 0.155209
N3    N     N_R   0.647039 0.140078 0.311299 0.261638
O9    O     O_R   0.645859 0.182365 0.193913 -0.362175
O10   O     O_R   0.755094 0.130017 0.366522 -0.384378
N4    N     N_R   0.644162 0.859407 0.308700 0.267083
O11   O     O_R   0.643084 0.829275 0.188303 -0.362974
O12   O     O_R   0.751301 0.855992 0.366422 -0.375102
N5    N     N_R   0.744843 0.485123 0.079303 0.191663
O13   O     O_R   0.813125 0.377112 0.055560 -0.374952
O14   O     O_R   0.798548 0.595750 0.120459 -0.386626

loop_
_geom_bond_atom_site_label_1
_geom_bond_atom_site_label_2
_geom_bond_distance
_ccdc_geom_bond_type
C25   H24   1.104910 S    
N3    O10   1.299046 A    
C5    H2    1.110399 S    
C4    C8    1.414658 S    
C16   H11   1.113621 S    
C3    C19   1.450555 S    
O7    C4    1.278171 A    
C22   H21   1.112990 S    
C5    C12   1.534037 S    
C2    C12   1.420474 S    
C25   N1    1.489789 S    
C14   H9    1.113609 S    
C23   C24   1.584322 S    
C5    C7    1.547363 S    
N4    O12   1.299674 A    
O5    C3    1.285585 A    
Zn1   N2    2.012638 S    
C5    C9    1.548507 S    
C6    C7    1.547778 S    
C22   H19   1.112327 S    
C10   C11   1.528770 S    
C21   N1    1.493478 S    
C15   C19   1.552500 S    
C10   H5    1.110552 S    
C17   C20   1.529288 S    
C6    H3    1.110443 S    
C21   H18   1.112089 S    
N3    O9    1.300845 A    
C13   C15   1.534777 S    
C15   H12   1.113031 S    
C8    C9    1.530156 S    
O3    Zn1   1.994346 S    
Zn1   O7    1.992319 S    
C8    C10   1.531934 S    
C25   H26   1.112918 S    
H22   C23   1.116580 S    
C13   C18   1.553858 S    
C26   N2    1.491187 S    
C22   N2    1.493578 S    
C13   H8    1.113403 S    
C11   C12   1.515266 S    
N5    O14   1.299007 A    
C25   C26   1.572320 S    
C1    C18   1.447445 S    
C7    C8    1.530072 S    
C23   N1    1.499539 S    
C14   C18   1.553784 S    
O1    C1    1.284832 A    
C16   H13   1.110128 S    
C21   H20   1.112910 S    
Zn2   O8    1.994464 S    
C7    H1    1.110418 S    
O3    C2    1.278000 A    
C21   C22   1.584996 S    
O8    C4    1.277236 A    
C6    C10   1.549368 S    
H23   C24   1.116714 S    
H15   C17   1.113921 S    
C9    C11   1.528191 S    
C17   C18   1.544444 S    
C11   N5    1.454736 S    
C6    C12   1.534792 S    
Zn1   O5    2.001281 S    
C19   C20   1.544533 S    
O1    Zn1   2.001837 S    
O2    Zn2   2.002008 S    
N5    O13   1.300377 A    
O6    C3    1.283845 A    
O4    Zn2   1.992199 S    
C24   N2    1.498981 S    
C14   C16   1.525766 S    
C26   H25   1.104254 S    
C13   H6    1.113380 S    
O2    C1    1.283189 A    
C14   H7    1.113660 S    
Zn2   N1    2.012799 S    
O4    C2    1.279231 A    
C23   N3    1.472480 S    
C15   H10   1.113440 S    
H16   C20   1.111819 S    
N4    O11   1.301058 A    
H14   C17   1.113938 S    
Zn2   O6    2.001111 S    
C9    H4    1.110638 S    
C24   N4    1.472683 S    
C16   C19   1.553826 S    
H17   C20   1.113286 S    
C26   H27   1.112883 S    
