data_mof_unit_53927.cif
_audit_creation_date              2012-12-10T16:43:25-0500
_audit_creation_method            fapswitch 2.2
_symmetry_space_group_name_H-M    P1
_symmetry_Int_Tables_number       1
_space_group_crystal_system       monoclinic
_cell_length_a                    12.214198
_cell_length_b                    12.214198
_cell_length_c                    23.117953
_cell_angle_alpha                 90.0
_cell_angle_beta                  90.0
_cell_angle_gamma                 90.000014
_cell_volume                      3448.88956491

loop_
_atom_site_label
_atom_site_type_symbol
_atom_type_description
_atom_site_fract_x
_atom_site_fract_y
_atom_site_fract_z
_atom_type_partial_charge
C1    C     C_3   1.000000 0.000000 0.250000 -0.103647
C2    C     C_R   0.901897 0.000000 0.291555 0.116156
C3    C     C_R   0.000000 0.652014 0.922100 0.792915
C4    C     C_R   0.000000 0.347986 0.077900 0.792915
C5    C     C_R   0.347986 0.000000 0.422100 0.792915
C6    C     C_R   0.652014 0.000000 0.577900 0.792915
C7    C     C_R   0.000000 0.347986 0.922100 0.792915
C8    C     C_R   0.000000 0.652014 0.077900 0.792915
C9    C     C_R   0.652014 0.000000 0.422100 0.792915
C10   C     C_R   0.347986 1.000000 0.577900 0.792915
C11   C     C_R   0.099039 0.137617 0.185016 -0.164500
C12   C     C_3   0.000000 1.000000 0.750000 -0.103647
C13   C     C_R   0.900961 0.862383 0.814984 -0.164500
C14   C     C_R   0.862384 0.099039 0.685015 -0.164499
C15   C     C_R   0.137616 0.900961 0.314984 -0.164499
C16   C     C_R   0.900961 0.862383 0.185016 -0.164500
C17   C     C_R   0.099039 0.137617 0.814984 -0.164500
C18   C     C_R   0.137616 0.900961 0.685015 -0.164499
C19   C     C_R   0.862384 0.099039 0.314984 -0.164499
C20   C     C_R   0.099039 0.862384 0.814984 -0.164499
C21   C     C_R   0.900961 0.137616 0.185016 -0.164499
C22   C     C_R   0.862383 0.900961 0.314984 -0.164500
C23   C     C_R   1.000000 0.098103 0.208445 0.116156
C24   C     C_R   0.137617 0.099039 0.685016 -0.164500
C25   C     C_R   0.900961 0.137616 0.814984 -0.164499
C26   C     C_R   0.099039 0.862384 0.185016 -0.164499
C27   C     C_R   0.137617 0.099039 0.314984 -0.164500
C28   C     C_R   0.862383 0.900961 0.685016 -0.164500
C29   C     C_R   0.099041 0.219674 0.143282 -0.190655
C30   C     C_R   0.900959 0.780326 0.856718 -0.190655
C31   C     C_R   0.780327 0.099041 0.643281 -0.190655
C32   C     C_R   0.219673 0.900959 0.356718 -0.190655
C33   C     C_R   0.900959 0.780326 0.143282 -0.190655
C34   C     C_R   0.000000 0.901897 0.791555 0.116156
C35   C     C_R   0.099041 0.219674 0.856718 -0.190655
C36   C     C_R   0.219673 0.900959 0.643281 -0.190656
C37   C     C_R   0.780326 0.099041 0.356718 -0.190656
C38   C     C_R   0.099041 0.780326 0.856719 -0.190656
C39   C     C_R   0.900959 0.219673 0.143281 -0.190656
C40   C     C_R   0.780326 0.900959 0.356718 -0.190655
C41   C     C_R   0.219674 0.099041 0.643282 -0.190655
C42   C     C_R   0.900959 0.219673 0.856719 -0.190655
C43   C     C_R   0.099041 0.780327 0.143281 -0.190655
C44   C     C_R   0.219674 0.099041 0.356718 -0.190655
C45   C     C_R   0.901897 0.000000 0.708445 0.116156
C46   C     C_R   0.780326 0.900959 0.643282 -0.190655
C47   C     C_R   1.000000 0.261882 0.122300 -0.028510
C48   C     C_R   0.000000 0.738118 0.877700 -0.028510
C49   C     C_R   0.738118 0.000000 0.622300 -0.028510
C50   C     C_R   0.261882 1.000000 0.377700 -0.028510
C51   C     C_R   0.000000 0.738118 0.122300 -0.028510
C52   C     C_R   1.000000 0.261882 0.877700 -0.028510
C53   C     C_R   0.261882 1.000000 0.622300 -0.028510
C54   C     C_R   0.738118 0.000000 0.377700 -0.028510
C55   C     C_R   0.098103 0.000000 0.291555 0.116156
C56   C     C_R   0.000000 0.901897 0.208445 0.116156
C57   C     C_R   0.000000 0.098103 0.791555 0.116156
C58   C     C_R   0.098103 1.000000 0.708445 0.116156
Cu1   Cu    Cu3+1 0.889520 0.500000 0.000000 0.931606
Cu2   Cu    Cu3+1 0.110480 0.500000 0.000000 0.931606
Cu3   Cu    Cu3+1 0.500000 0.889520 0.500000 0.931606
Cu4   Cu    Cu3+1 0.500000 0.110480 0.500000 0.931606
H1    H     H_    0.176813 0.248851 0.126903 0.152443
H2    H     H_    0.823187 0.248850 0.126903 0.152443
H3    H     H_    0.751149 0.823187 0.373097 0.152443
H4    H     H_    0.248851 0.176813 0.626903 0.152443
H5    H     H_    0.823187 0.248850 0.873097 0.152443
H6    H     H_    0.176813 0.751150 0.126903 0.152443
H7    H     H_    0.248851 0.176813 0.373097 0.152443
H8    H     H_    0.751149 0.823187 0.626903 0.152443
H9    H     H_    0.177011 0.104077 0.198404 0.132772
H10   H     H_    0.822989 0.895923 0.801596 0.132772
H11   H     H_    0.895924 0.177011 0.698403 0.132772
H12   H     H_    0.823187 0.751149 0.873097 0.152443
H13   H     H_    0.104076 0.822989 0.301596 0.132772
H14   H     H_    0.822989 0.895923 0.198404 0.132772
H15   H     H_    0.177011 0.104077 0.801596 0.132772
H16   H     H_    0.104076 0.822989 0.698403 0.132772
H17   H     H_    0.895924 0.177011 0.301596 0.132772
H18   H     H_    0.177011 0.895924 0.801596 0.132772
H19   H     H_    0.822989 0.104076 0.198404 0.132772
H20   H     H_    0.895923 0.822989 0.301596 0.132772
H21   H     H_    0.104077 0.177011 0.698404 0.132772
H22   H     H_    0.822989 0.104076 0.801596 0.132772
H23   H     H_    0.751150 0.176813 0.626903 0.152443
H24   H     H_    0.177011 0.895924 0.198404 0.132772
H25   H     H_    0.104077 0.177011 0.301596 0.132772
H26   H     H_    0.895923 0.822989 0.698404 0.132772
H27   H     H_    0.248850 0.823187 0.373097 0.152443
H28   H     H_    0.823187 0.751149 0.126903 0.152443
H29   H     H_    0.176813 0.248851 0.873097 0.152443
H30   H     H_    0.248850 0.823187 0.626903 0.152443
H31   H     H_    0.751150 0.176813 0.373097 0.152443
H32   H     H_    0.176813 0.751150 0.873097 0.152443
O1    O     O_R   0.907020 0.615090 0.941240 -0.590287
O2    O     O_R   0.092980 0.615090 0.941240 -0.590287
O3    O     O_R   0.384910 0.092980 0.558760 -0.590287
O4    O     O_R   0.615090 0.907020 0.441240 -0.590287
O5    O     O_R   0.092980 0.615090 0.058760 -0.590287
O6    O     O_R   0.907020 0.384910 0.941240 -0.590287
O7    O     O_R   0.615090 0.907020 0.558760 -0.590287
O8    O     O_R   0.384910 0.092980 0.441240 -0.590287
O9    O     O_R   0.092980 0.384910 0.058760 -0.590287
O10   O     O_R   0.384910 0.907020 0.441240 -0.590287
O11   O     O_R   0.615090 0.092980 0.558760 -0.590287
O12   O     O_R   0.092980 0.384910 0.941240 -0.590287
O13   O     O_R   0.907020 0.615090 0.058760 -0.590287
O14   O     O_R   0.615090 0.092980 0.441240 -0.590287
O15   O     O_R   0.384910 0.907020 0.558760 -0.590287
O16   O     O_R   0.907020 0.384910 0.058760 -0.590287

loop_
_geom_bond_atom_site_label_1
_geom_bond_atom_site_label_2
_ccdc_geom_bond_type
C15   H13   S    
C29   H1    S    
C9    O4    A    
C31   H23   S    
Cu3   O4    S    
C14   C31   A    
Cu2   O5    S    
Cu3   O15   S    
C15   C32   A    
Cu4   O11   S    
C9    O14   A    
C39   H2    S    
C46   C49   A    
C28   C46   A    
Cu1   O1    S    
C29   C47   A    
C22   H20   S    
C30   C48   A    
C1    C56   S    
C7    C52   S    
Cu1   O6    S    
C30   H12   S    
C11   H9    S    
Cu4   O14   S    
C4    O9    A    
C3    C48   S    
Cu1   O16   S    
C10   O15   A    
C1    C2    S    
C6    O7    A    
C10   C53   S    
C36   C53   A    
C19   C37   A    
C27   C44   A    
C18   C58   A    
C43   H6    S    
C28   H26   S    
C25   H22   S    
C3    O2    A    
Cu2   O9    S    
C38   C48   A    
C26   H24   S    
C12   C58   S    
C36   H30   S    
C5    O10   A    
Cu1   Cu2   S    
C24   C41   A    
C25   C57   A    
C31   C49   A    
C26   C43   A    
C14   C45   A    
C8    O5    A    
C28   C45   A    
C7    O6    A    
C20   H18   S    
C14   H11   S    
C13   C30   A    
Cu3   O10   S    
Cu1   O13   S    
C15   C55   A    
C10   O3    A    
Cu3   O7    S    
C16   C56   A    
C2    C22   A    
C16   C33   A    
Cu4   O3    S    
C20   C38   A    
C32   H27   S    
C21   C39   A    
C18   H16   S    
C22   C40   A    
C38   H32   S    
C17   H15   S    
C7    O12   A    
C37   H31   S    
C44   H7    S    
C19   H17   S    
C8    C51   S    
C41   C53   A    
C37   C54   A    
Cu2   O2    S    
C21   H19   S    
C1    C23   S    
C40   C54   A    
C40   H3    S    
C21   C23   A    
C42   H5    S    
C5    C50   S    
C12   C57   S    
C12   C34   S    
C8    O13   A    
Cu2   O12   S    
C39   C47   A    
C44   C50   A    
C4    O16   A    
C5    O8    A    
C2    C19   A    
C16   H14   S    
C24   H21   S    
C12   C45   S    
C26   C56   A    
C25   C42   A    
C41   H4    S    
C13   H10   S    
C33   C51   A    
C1    C55   S    
C20   C34   A    
C13   C34   A    
C33   H28   S    
C27   H25   S    
C43   C51   A    
C11   C23   A    
C6    O11   A    
C32   C50   A    
C27   C55   A    
C6    C49   S    
Cu3   Cu4   S    
C46   H8    S    
C11   C29   A    
C24   C58   A    
C17   C57   A    
C35   C52   A    
C3    O1    A    
C9    C54   S    
C17   C35   A    
C18   C36   A    
C42   C52   A    
Cu4   O8    S    
C4    C47   S    
C35   H29   S    
