data_mof_unit_57394.cif
_audit_creation_date              2012-12-10T20:43:41-0500
_audit_creation_method            fapswitch 2.2
_symmetry_space_group_name_H-M    P1
_symmetry_Int_Tables_number       1
_space_group_crystal_system       triclinic
_cell_length_a                    18.590776
_cell_length_b                    18.503342
_cell_length_c                    19.132555
_cell_angle_alpha                 109.800653
_cell_angle_beta                  110.01607
_cell_angle_gamma                 108.567684
_cell_volume                      5067.51532559

loop_
_atom_site_label
_atom_site_type_symbol
_atom_type_description
_atom_site_fract_x
_atom_site_fract_y
_atom_site_fract_z
_atom_type_partial_charge
C1    C     C_R   0.381931 0.503210 0.381044 0.879490
C2    C     C_R   0.305928 0.458810 0.021038 -0.136965
C3    C     C_R   0.120542 0.117696 0.498244 0.866647
C4    C     C_R   0.001536 0.379513 0.881470 0.865663
C5    C     C_R   0.120162 0.499207 0.119261 0.892586
C6    C     C_R   0.999522 0.620902 0.118709 0.917631
C7    C     C_R   0.879362 0.498093 0.878217 0.879825
C8    C     C_R   0.120230 0.769691 0.545779 -0.059281
C9    C     C_R   0.105218 0.787814 0.478440 -0.077650
C10   C     C_R   0.026151 0.731238 0.399247 0.094327
C11   C     C_R   0.965011 0.653386 0.387121 -0.164268
C12   C     C_R   0.980164 0.635114 0.454334 -0.178377
C13   C     C_R   0.337241 0.540886 0.026112 -0.083248
C14   C     C_R   0.830317 0.896849 0.813989 -0.060881
C15   C     C_R   0.057541 0.693499 0.533776 -0.141719
C16   C     C_R   0.009011 0.680090 0.256274 -0.250066
C17   C     C_R   0.003932 0.689631 0.186249 -0.068195
C18   C     C_R   0.008044 0.765843 0.183819 0.006442
C19   C     C_R   0.007569 0.828632 0.249215 0.065692
C20   C     C_R   0.007934 0.816378 0.318025 -0.081326
C21   C     C_R   0.014269 0.744205 0.324427 -0.037984
C22   C     C_R   0.084611 0.816252 0.110462 -0.140455
C23   C     C_R   0.082049 0.828479 0.041675 -0.227242
C24   C     C_R   0.081782 0.265690 0.749898 0.067386
C25   C     C_R   0.001684 0.804325 0.973414 0.051305
C26   C     C_R   0.815138 0.829202 0.571293 -0.240500
C27   C     C_R   0.000775 0.190831 0.682250 -0.160539
C28   C     C_R   0.920243 0.182029 0.675799 -0.049134
C29   C     C_R   0.920769 0.242150 0.743285 0.027943
C30   C     C_R   0.001860 0.313792 0.814713 -0.176811
C31   C     C_R   0.082604 0.326520 0.817801 -0.050559
C32   C     C_R   0.786857 0.135021 0.541982 -0.106711
C33   C     C_R   0.758771 0.906702 0.813507 -0.070825
C34   C     C_R   0.710092 0.069222 0.463892 -0.102190
C35   C     C_R   0.681111 0.980612 0.440184 -0.121612
C36   C     C_R   0.727816 0.957859 0.495412 -0.074227
C37   C     C_R   0.803794 0.023490 0.574141 -0.017044
C38   C     C_R   0.812144 0.809181 0.493202 -0.083584
C39   C     C_R   0.834685 0.112324 0.597040 0.173071
C40   C     C_R   0.742304 0.731452 0.416448 0.010714
C41   C     C_R   0.679235 0.672229 0.421542 -0.253125
C42   C     C_R   0.683449 0.690843 0.500399 -0.087303
C43   C     C_R   0.748811 0.773381 0.575703 0.016981
C44   C     C_R   0.923482 0.766104 0.974574 0.501844
C45   C     C_R   0.712279 0.752983 0.289524 -0.220682
C46   C     C_R   0.704156 0.730778 0.208747 -0.200593
C47   C     C_R   0.717924 0.662209 0.167870 0.433206
C48   C     C_R   0.620320 0.621552 0.500996 0.867705
C49   C     C_R   0.738551 0.614990 0.207836 -0.243176
C50   C     C_R   0.745649 0.635908 0.288311 0.061774
C51   C     C_R   0.735316 0.707637 0.331189 0.061714
C52   C     C_R   0.441255 0.797062 0.540432 -0.262382
C53   C     C_R   0.380786 0.708897 0.475063 0.101761
C54   C     C_R   0.389064 0.672565 0.402238 0.121175
C55   C     C_R   0.926849 0.752840 0.043030 -0.272339
C56   C     C_R   0.457381 0.725050 0.396144 -0.322403
C57   C     C_R   0.514319 0.813521 0.459537 -0.253108
C58   C     C_R   0.506441 0.850145 0.531667 0.497991
C59   C     C_R   0.253632 0.582014 0.258764 0.029847
C60   C     C_R   0.616212 0.495617 0.619097 0.858784
C61   C     C_R   0.186128 0.499864 0.186329 -0.081781
C62   C     C_R   0.179508 0.419871 0.181556 -0.041636
C63   C     C_R   0.246058 0.424200 0.246859 -0.273350
C64   C     C_R   0.315265 0.505292 0.317350 -0.092867
C65   C     C_R   0.318648 0.585185 0.325830 -0.007566
C66   C     C_R   0.006693 0.777841 0.110918 0.015947
C67   C     C_R   0.060269 0.270223 0.130107 -0.152604
C68   C     C_R   0.991357 0.185810 0.064186 -0.134889
C69   C     C_R   0.966382 0.160961 0.978415 -0.117586
C70   C     C_R   0.010221 0.220461 0.958446 -0.116101
C71   C     C_R   0.078916 0.304984 0.024220 -0.109996
C72   C     C_R   0.378023 0.379345 0.497856 0.854177
C73   C     C_R   0.104692 0.330881 0.110698 0.141542
C74   C     C_R   0.185787 0.506769 0.556929 -0.104529
C75   C     C_R   0.213350 0.446586 0.565091 -0.092911
C76   C     C_R   0.223699 0.394584 0.500203 0.131891
C77   C     C_R   0.285952 0.553068 0.962940 -0.087636
C78   C     C_R   0.206420 0.403987 0.427268 -0.131504
C79   C     C_R   0.177758 0.463418 0.418829 -0.110200
C80   C     C_R   0.167042 0.514452 0.483416 -0.118615
C81   C     C_R   0.180778 0.257889 0.505932 -0.260238
C82   C     C_R   0.187540 0.183212 0.498685 -0.066449
C83   C     C_R   0.254855 0.170980 0.488094 0.032568
C84   C     C_R   0.682252 0.868920 0.735544 -0.085791
C85   C     C_R   0.316166 0.236309 0.486848 -0.222942
C86   C     C_R   0.310088 0.311897 0.495211 -0.087355
C87   C     C_R   0.240948 0.322534 0.503172 0.013763
C88   C     C_R   0.202753 0.483610 0.895408 -0.090380
C89   C     C_R   0.291550 0.076746 0.545174 -0.173793
C90   C     C_R   0.301820 0.002883 0.534908 0.397736
C91   C     C_R   0.281571 0.941622 0.453954 -0.201698
C92   C     C_R   0.251609 0.954834 0.384103 -0.189784
C93   C     C_R   0.242410 0.029412 0.394917 -0.164087
C94   C     C_R   0.261472 0.090381 0.475508 0.036469
C95   C     C_R   0.475535 0.495427 0.768621 0.485057
C96   C     C_R   0.677844 0.822541 0.658070 -0.042874
C97   C     C_R   0.552293 0.515890 0.763697 -0.081711
C98   C     C_R   0.581029 0.453652 0.745974 -0.039599
C99   C     C_R   0.169438 0.401860 0.891650 0.132399
C100  C     C_R   0.533851 0.372029 0.737640 -0.185018
C101  C     C_R   0.458870 0.352324 0.745794 0.100993
C102  C     C_R   0.428737 0.413569 0.759358 -0.222722
C103  C     C_R   0.732119 0.477052 0.808254 -0.140634
C104  C     C_R   0.811537 0.494242 0.809358 -0.111274
C105  C     C_R   0.824408 0.507276 0.745255 0.044409
C106  C     C_R   0.758145 0.506499 0.682875 -0.185311
C107  C     C_R   0.680113 0.492229 0.683631 -0.065471
C108  C     C_R   0.748098 0.809361 0.657586 0.083238
C109  C     C_R   0.665333 0.475944 0.745739 0.084500
C110  C     C_R   0.222927 0.389109 0.953303 -0.160699
C111  C     C_R   0.965486 0.601277 0.760142 -0.232820
C112  C     C_R   0.042335 0.612835 0.756978 0.427335
C113  C     C_R   0.057705 0.541242 0.732870 -0.214077
C114  C     C_R   0.996426 0.458629 0.711690 -0.202960
C115  C     C_R   0.919991 0.447320 0.715137 -0.136671
C116  C     C_R   0.904447 0.518745 0.739969 0.070270
C117  C     C_R   0.000507 0.878793 0.380932 0.901091
C118  C     C_R   0.879711 0.874968 0.494493 0.864754
C119  C     C_R   0.000229 0.121328 0.618921 0.859755
C120  C     C_R   0.824782 0.847427 0.736684 -0.165241
H1    H     H_    0.763034 0.944422 0.873523 0.153394
H2    H     H_    0.913050 0.095709 0.927444 0.131286
H3    H     H_    0.990866 0.201081 0.891982 0.139773
H4    H     H_    0.111496 0.350624 0.007934 0.098706
H5    H     H_    0.144352 0.560087 0.476563 0.138195
H6    H     H_    0.177512 0.546339 0.606902 0.156817
H7    H     H_    0.225020 0.439210 0.621097 0.158301
H8    H     H_    0.212147 0.363176 0.375706 0.100955
H9    H     H_    0.163067 0.469354 0.361840 0.141503
H10   H     H_    0.620303 0.798291 0.598218 0.146643
H11   H     H_    0.126735 0.264540 0.511493 0.145657
H12   H     H_    0.746930 0.560313 0.175479 0.183152
H13   H     H_    0.369465 0.228695 0.480414 0.164429
H14   H     H_    0.306851 0.123492 0.607465 0.193289
H15   H     H_    0.289078 0.884003 0.444829 0.170036
H16   H     H_    0.236256 0.907612 0.321754 0.150588
H17   H     H_    0.220729 0.039822 0.340753 0.140314
H18   H     H_    0.370259 0.398218 0.764689 0.182556
H19   H     H_    0.590018 0.581088 0.775517 0.224171
H20   H     H_    0.881272 0.841243 0.738317 0.165456
H21   H     H_    0.556652 0.324366 0.726870 0.162878
H22   H     H_    0.722722 0.466362 0.857581 0.190071
H23   H     H_    0.435625 0.824922 0.596638 0.232363
H24   H     H_    0.767561 0.517670 0.633736 0.145165
H25   H     H_    0.953580 0.656463 0.779245 0.205481
H26   H     H_    0.117041 0.549306 0.730668 0.161031
H27   H     H_    0.008330 0.403392 0.692923 0.151940
H28   H     H_    0.872801 0.383046 0.698161 0.116706
H29   H     H_    0.069621 0.678732 0.585345 0.181053
H30   H     H_    0.890244 0.927974 0.874449 0.144678
H31   H     H_    0.181098 0.813803 0.606747 0.215985
H32   H     H_    0.155757 0.844912 0.487330 0.170471
H33   H     H_    0.906744 0.605758 0.324680 0.165822
H34   H     H_    0.463378 0.698710 0.339776 0.164902
H35   H     H_    0.932519 0.575001 0.444372 0.146968
H36   H     H_    0.011450 0.623097 0.258778 0.157112
H37   H     H_    0.147059 0.836266 0.163052 0.141327
H38   H     H_    0.142945 0.858104 0.042350 0.177469
H39   H     H_    0.867166 0.891851 0.628447 0.149615
H40   H     H_    0.867331 0.724682 0.044725 0.253180
H41   H     H_    0.401655 0.594687 0.078377 0.136066
H42   H     H_    0.310827 0.616172 0.966024 0.150686
H43   H     H_    0.164205 0.493418 0.846178 0.135115
H44   H     H_    0.200349 0.325154 0.948744 0.141946
H45   H     H_    0.562997 0.853955 0.451180 0.177236
H46   H     H_    0.346272 0.448969 0.069169 0.141549
H47   H     H_    0.810087 0.203458 0.558831 0.119039
H48   H     H_    0.673776 0.086856 0.421258 0.134144
H49   H     H_    0.625803 0.611335 0.363301 0.158001
H50   H     H_    0.622373 0.929587 0.379128 0.119190
H51   H     H_    0.705280 0.889266 0.477025 0.124320
H52   H     H_    0.839864 0.005472 0.616394 0.093650
H53   H     H_    0.699411 0.804951 0.319145 0.166214
H54   H     H_    0.686133 0.766486 0.177720 0.186941
H55   H     H_    0.590569 0.502725 0.996607 0.343100
H56   H     H_    0.243546 0.363528 0.243203 0.162766
H57   H     H_    0.702500 0.543718 0.320153 0.197383
H58   H     H_    0.809186 0.622102 0.388598 0.202388
H59   H     H_    0.608848 0.049409 0.737672 0.387165
H60   H     H_    0.251740 0.648966 0.434965 0.168130
H61   H     H_    0.315946 0.691224 0.540672 0.213633
H62   H     H_    0.310319 0.702262 0.269683 0.204528
H63   H     H_    0.250914 0.694279 0.320140 0.177977
H64   H     H_    0.473412 0.081182 0.664447 0.369982
H65   H     H_    0.331744 0.581409 0.803167 0.382077
H66   H     H_    0.360061 0.264912 0.747822 0.194053
H67   H     H_    0.627228 0.877600 0.735000 0.181063
H68   H     H_    0.458618 0.272571 0.795833 0.223976
H69   H     H_    0.022434 0.727604 0.693462 0.331466
H70   H     H_    0.062400 0.938958 0.243151 0.176856
H71   H     H_    0.951022 0.885962 0.192338 0.222605
H72   H     H_    0.061216 0.840226 0.909142 0.241167
H73   H     H_    0.987441 0.872613 0.912297 0.190471
H74   H     H_    0.756130 0.695628 0.759430 0.385978
H75   H     H_    0.191613 0.345252 0.756846 0.190651
H76   H     H_    0.153497 0.241352 0.690642 0.182785
H77   H     H_    0.832847 0.212895 0.783668 0.233572
H78   H     H_    0.078704 0.288484 0.196276 0.125269
H79   H     H_    0.833682 0.286232 0.748063 0.180128
H80   H     H_    0.957361 0.139632 0.079622 0.143609
N1    N     N_3   0.760360 0.581593 0.323725 -0.474002
N2    N     N_3   0.309124 0.657152 0.480583 -0.418449
N3    N     N_3   0.252871 0.661470 0.264891 -0.445434
N4    N     N_3   0.415405 0.270736 0.742245 -0.441754
N5    N     N_3   0.008159 0.905845 0.247238 -0.431159
N6    N     N_3   0.999598 0.819878 0.904372 -0.383695
N7    N     N_3   0.163515 0.282744 0.750000 -0.427170
N8    N     N_3   0.837889 0.228908 0.737538 -0.410017
O1    O     O_R   0.408360 0.551710 0.460090 -0.592837
O2    O     O_R   0.948290 0.356630 0.908390 -0.635143
O3    O     O_R   0.143340 0.551690 0.091580 -0.603111
O4    O     O_R   0.408400 0.448280 0.356670 -0.630281
O5    O     O_R   0.039900 0.448270 0.091610 -0.625232
O6    O     O_R   0.051710 0.643320 0.091560 -0.620102
O7    O     O_R   0.948270 0.539900 0.091590 -0.608030
O8    O     O_R   0.960100 0.551680 0.908340 -0.597696
O9    O     O_R   0.856660 0.448270 0.908370 -0.627030
O10   O     O_R   0.591600 0.643340 0.551710 -0.632965
O11   O     O_R   0.591630 0.539900 0.448290 -0.625221
O12   O     O_R   0.948280 0.908380 0.356650 -0.593636
O13   O     O_R   0.591600 0.551720 0.643330 -0.626853
O14   O     O_R   0.591640 0.448290 0.539910 -0.623810
O15   O     O_R   0.408370 0.460100 0.551710 -0.582877
O16   O     O_R   0.408400 0.356660 0.448290 -0.631463
O17   O     O_R   0.051730 0.908360 0.460060 -0.633125
O18   O     O_2   0.725823 0.711160 0.052997 -0.232790
O19   O     O_2   0.763061 0.595117 0.052404 -0.347516
O20   O     O_3   0.598959 0.555175 0.990064 -0.504379
O21   O     O_2   0.670489 0.984771 0.637042 -0.345103
O22   O     O_2   0.555497 0.016618 0.570332 -0.304548
O23   O     O_R   0.960110 0.908350 0.551690 -0.605579
O24   O     O_3   0.563504 0.986854 0.695609 -0.536333
O25   O     O_2   0.284397 0.993250 0.664178 -0.292390
O26   O     O_2   0.340223 0.902691 0.599160 -0.322192
O27   O     O_3   0.444610 0.072359 0.698142 -0.488424
O28   O     O_2   0.512864 0.656724 0.873167 -0.212260
O29   O     O_2   0.421341 0.595216 0.718354 -0.313785
O30   O     O_3   0.349681 0.535628 0.796718 -0.609766
O31   O     O_2   0.178284 0.770140 0.881738 -0.271308
O32   O     O_2   0.175497 0.709158 0.744992 -0.312520
O33   O     O_3   0.068931 0.770658 0.754287 -0.541093
O34   O     O_R   0.856660 0.908370 0.448270 -0.634156
O35   O     O_2   0.749926 0.664297 0.888295 -0.275823
O36   O     O_2   0.807754 0.817335 0.921847 -0.314618
O37   O     O_3   0.815109 0.708167 0.799023 -0.580863
O38   O     O_R   0.051720 0.091580 0.643310 -0.600944
O39   O     O_R   0.948270 0.091600 0.539890 -0.627133
O40   O     O_R   0.143340 0.091590 0.551680 -0.627977
O41   O     O_R   0.039890 0.091610 0.448270 -0.615542
O42   O     O_R   0.051730 0.460050 0.908360 -0.616676
S1    S     S_3+6 0.704191 0.632034 0.064516 0.026102
S2    S     S_3+6 0.576733 0.962834 0.609427 -0.013197
S3    S     S_3+6 0.341433 0.989477 0.624740 0.029734
S4    S     S_3+6 0.440541 0.574210 0.789756 0.036010
S5    S     S_3+6 0.120011 0.717543 0.785573 0.002785
S6    S     S_3+6 0.820701 0.738454 0.894869 0.012241
Zn1   Zn    Zn3+2 0.499980 0.569060 0.569060 1.049665
Zn2   Zn    Zn3+2 0.500020 0.430940 0.430940 0.955985
Zn3   Zn    Zn3+2 0.069070 0.999960 0.569030 1.034833
Zn4   Zn    Zn3+2 0.930930 0.999990 0.430930 0.972713
Zn5   Zn    Zn3+2 0.069070 0.569030 0.999960 0.997499
Zn6   Zn    Zn3+2 0.930930 0.430930 0.000000 0.984607

loop_
_geom_bond_atom_site_label_1
_geom_bond_atom_site_label_2
_ccdc_geom_bond_type
O2    Zn6   S    
C38   C40   A    
C103  H22   S    
C9    H32   S    
C40   C41   A    
C101  C102  A    
C41   C42   A    
C108  C120  A    
C105  C116  S    
C58   S2    S    
H61   N2    S    
C24   C27   A    
C67   H78   S    
C78   H8    S    
C60   O13   A    
C37   H52   S    
C97   C98   A    
C57   C58   A    
C4    C30   S    
C63   H56   S    
C47   C49   A    
C54   C65   S    
C48   O10   A    
C85   C86   A    
C99   C110  A    
C117  O17   A    
C93   C94   A    
C29   N8    S    
O30   S4    S    
O19   S1    D    
C28   C29   A    
O12   Zn4   S    
C119  O38   A    
C76   C78   A    
C114  H27   S    
C34   C35   A    
H60   N2    S    
C100  H21   S    
C111  H25   S    
C102  H18   S    
C30   C31   A    
C34   H48   S    
C81   H11   S    
C57   H45   S    
C80   H5    S    
C45   C51   A    
C115  C116  A    
C72   O16   A    
C23   H38   S    
C4    O2    A    
C56   C57   A    
C117  O12   A    
C18   C19   A    
H71   N5    S    
C32   C39   A    
C89   C94   A    
C2    C13   A    
C119  O39   A    
C22   C66   A    
O38   Zn3   S    
O6    Zn5   S    
C68   C69   A    
C70   H3    S    
C6    O7    A    
C111  C112  A    
C77   C88   A    
C8    C9    A    
O32   S5    D    
H74   O37   S    
C16   H36   S    
C46   H54   S    
C62   C73   S    
C70   C71   A    
O33   S5    S    
C31   C99   S    
C103  C104  A    
C9    C10   A    
C2    H46   S    
C96   H10   S    
C47   S1    S    
C7    O8    A    
C95   C102  A    
O25   S3    D    
O20   S1    S    
C12   H35   S    
C96   C108  A    
C98   C109  S    
C74   C80   A    
C1    O4    A    
C33   H1    S    
C107  C109  A    
O7    Zn6   S    
C92   H16   S    
H72   N6    S    
C14   C33   A    
O13   Zn1   S    
C25   C44   A    
C112  C113  A    
O37   S6    S    
C26   C43   A    
C114  C115  A    
C13   C77   A    
C10   C21   S    
O18   S1    D    
C5    O3    A    
C49   H12   S    
C54   C56   A    
C59   C61   A    
C52   H23   S    
O3    Zn5   S    
C74   C75   A    
C1    O1    A    
H62   N3    S    
C88   C99   A    
C71   H4    S    
C8    H31   S    
C79   C80   A    
O27   S3    S    
C56   H34   S    
C89   C90   A    
C91   C92   A    
C71   C73   A    
C110  H44   S    
C86   C87   A    
C26   C38   A    
C112  S5    S    
O22   S2    D    
C28   C39   S    
C50   C51   A    
C53   C54   A    
C83   C94   S    
O23   Zn3   S    
C115  H28   S    
H68   N4    S    
C81   C82   A    
H55   O20   S    
C67   C68   A    
C7    O9    A    
C35   C36   A    
C32   C34   A    
C113  H26   S    
C75   C76   A    
H64   O27   S    
C29   C30   A    
C45   H53   S    
O40   Zn3   S    
O29   S4    D    
H70   N5    S    
O1    Zn1   S    
H65   O30   S    
C6    O6    A    
C12   C15   A    
C118  O23   A    
C5    O5    A    
C14   H30   S    
C3    C82   S    
C17   C18   A    
H66   N4    S    
C26   H39   S    
O11   Zn2   S    
C42   C48   S    
C91   H15   S    
C106  H24   S    
C92   C93   A    
C95   S4    S    
O17   Zn3   S    
C81   C87   A    
C60   C107  S    
C52   C58   A    
C120  H20   S    
C67   C73   A    
C55   H40   S    
O14   Zn2   S    
C90   S3    S    
C82   C83   A    
C8    C15   A    
C98   C100  A    
C7    C104  S    
H69   O33   S    
H57   N1    S    
H58   N1    S    
C42   C43   A    
O41   Zn4   S    
C25   N6    S    
C88   H43   S    
C1    C64   S    
C84   C96   A    
C15   H29   S    
C55   C66   A    
C52   C53   A    
C118  O34   A    
O16   Zn2   S    
C113  C114  A    
C50   N1    S    
O15   Zn1   S    
C77   H42   S    
C6    C17   S    
O39   Zn4   S    
C46   C47   A    
C2    C110  A    
C36   H51   S    
H79   N8    S    
C89   H14   S    
C83   C85   A    
C78   C79   A    
O10   Zn1   S    
O34   Zn4   S    
C44   S6    S    
C3    O41   A    
H77   N8    S    
C101  N4    S    
C60   O14   A    
C104  C105  A    
O8    Zn5   S    
C76   C87   S    
C11   C12   A    
C95   C97   A    
C16   C21   A    
C13   H41   S    
C22   H37   S    
C27   C119  S    
C72   C86   S    
C18   C66   S    
C40   C51   S    
C105  C106  A    
C24   N7    S    
C14   C120  A    
C53   N2    S    
C103  C109  A    
O5    Zn6   S    
C68   H80   S    
C111  C116  A    
H63   N3    S    
C64   C65   A    
C19   C20   A    
H59   O24   S    
C24   C31   A    
O26   S3    D    
C37   C39   A    
C59   N3    S    
O9    Zn6   S    
O31   S5    D    
C72   O15   A    
C44   C55   A    
C90   C91   A    
C74   H6    S    
C41   H49   S    
C69   H2    S    
H76   N7    S    
O4    Zn2   S    
C100  C101  A    
C3    O40   A    
C75   H7    S    
C43   C108  S    
C23   C25   A    
C61   C62   A    
C33   C84   A    
C69   C70   A    
O21   S2    D    
C93   H17   S    
C10   C11   A    
C11   H33   S    
C4    O42   A    
C63   C64   A    
C38   C118  S    
C45   C46   A    
O24   S2    S    
H75   N7    S    
C20   C21   A    
C36   C37   A    
C49   C50   A    
C106  C107  A    
C32   H47   S    
C27   C28   A    
C19   N5    S    
C35   H50   S    
C22   C23   A    
C84   H67   S    
H73   N6    S    
O36   S6    D    
O28   S4    D    
C62   C63   A    
O42   Zn5   S    
C20   C117  S    
C97   H19   S    
C59   C65   A    
C5    C61   S    
C16   C17   A    
C85   H13   S    
O35   S6    D    
C48   O11   A    
C79   H9    S    
