data_mof_unit_44761.cif
_audit_creation_date              2012-12-11T16:56:07-0500
_audit_creation_method            fapswitch 2.2
_symmetry_space_group_name_H-M    P1
_symmetry_Int_Tables_number       1
_space_group_crystal_system       triclinic
_cell_length_a                    6.967088
_cell_length_b                    14.530011
_cell_length_c                    16.181191
_cell_angle_alpha                 90.455165
_cell_angle_beta                  89.961878
_cell_angle_gamma                 89.998222
_cell_volume                      1638.00009592

loop_
_atom_site_label
_atom_site_type_symbol
_atom_type_description
_atom_site_fract_x
_atom_site_fract_y
_atom_site_fract_z
_atom_type_partial_charge
O1    O     O_R   0.505830 0.583360 0.413880 -0.537561
O2    O     O_R   0.175830 0.595460 0.585520 -0.519567
O3    O     O_R   0.005520 0.416640 0.586120 -0.543920
C1    C     C_R   0.344511 0.617189 0.614577 0.697668
O4    O     O_R   0.176120 0.594390 0.414490 -0.544534
O5    O     O_R   0.005810 0.415570 0.413870 -0.542576
C2    C     C_R   0.344890 0.616304 0.385987 0.686696
O6    O     O_R   0.505540 0.584430 0.586130 -0.539041
O7    O     O_3   0.339200 0.441330 0.500000 -0.375724
V1    V     V_3+5 0.064350 0.510880 0.500000 1.423777
O8    O     O_R   0.676100 0.404540 0.414480 -0.541246
C3    C     C_R   0.845166 0.382174 0.386103 0.686158
O9    O     O_R   0.675810 0.405610 0.585510 -0.541721
C4    C     C_R   0.844981 0.383743 0.613629 0.737225
V2    V     V_3+5 0.564340 0.489120 0.500000 1.404442
O10   O     O_3   0.839360 0.558670 0.500000 -0.355941
C5    C     C_2   0.721206 0.208664 0.785922 -0.133171
C6    C     C_2   0.885668 0.181730 0.822559 -0.315116
H1    H     H_    0.585925 0.179789 0.806738 0.136986
H2    H     H_    0.022623 0.209898 0.803843 0.127047
C7    C     C_2   0.708743 0.277207 0.717971 -0.139596
C8    C     C_2   0.861470 0.315448 0.680443 -0.314356
H3    H     H_    0.565335 0.296126 0.698039 0.133656
H4    H     H_    0.006007 0.297168 0.698489 0.128833
C9    C     C_R   0.725978 0.245361 0.191614 0.102364
C10   C     C_R   0.882480 0.185468 0.183484 -0.110620
C11   C     C_R   0.034883 0.196519 0.239814 -0.179640
H5    H     H_    0.158138 0.151602 0.236163 0.131505
C12   C     C_R   0.023171 0.260896 0.305222 -0.180458
H6    H     H_    0.138849 0.264513 0.349620 0.130344
C13   C     C_R   0.858070 0.315578 0.316533 -0.107078
C14   C     C_R   0.713986 0.308777 0.256534 0.097530
C15   C     C_3   0.504536 0.292300 0.267304 -0.415709
C16   C     C_3   0.517520 0.223548 0.196312 -0.395749
H7    H     H_    0.471669 0.259794 0.327626 0.170828
H8    H     H_    0.438628 0.245753 0.140209 0.174504
C17   C     C_R   0.510031 0.745921 0.691531 -0.027834
C18   C     C_R   0.352896 0.686683 0.682243 -0.130311
C19   C     C_R   0.201976 0.695860 0.739642 -0.091111
H9    H     H_    0.079580 0.650412 0.735852 0.130142
C20   C     C_R   0.213600 0.759074 0.806045 -0.190432
C21   C     C_R   0.378240 0.813895 0.818081 -0.086602
C22   C     C_R   0.522868 0.807906 0.758006 0.020774
C23   C     C_3   0.732064 0.790895 0.769881 -0.449222
C24   C     C_3   0.719022 0.721797 0.699004 0.309533
H10   H     H_    0.762793 0.758358 0.830375 0.137049
H11   H     H_    0.819780 0.852780 0.755959 0.182736
H12   H     H_    0.738922 0.649671 0.719865 0.069442
C25   C     C_R   0.510435 0.745554 0.311241 0.101011
C26   C     C_R   0.352968 0.686498 0.319912 -0.111309
C27   C     C_R   0.200000 0.697421 0.263984 -0.180451
H13   H     H_    0.076283 0.652923 0.267801 0.132055
C28   C     C_R   0.211695 0.760902 0.198662 -0.180451
H14   H     H_    0.095479 0.764238 0.154574 0.130158
C29   C     C_R   0.377338 0.814943 0.186942 -0.109256
C30   C     C_R   0.522333 0.808223 0.246486 0.100495
C31   C     C_3   0.730983 0.790374 0.234668 -0.416143
C32   C     C_3   0.717900 0.722255 0.305119 -0.401434
H15   H     H_    0.819831 0.851789 0.249757 0.172651
H16   H     H_    0.761681 0.757226 0.173941 0.170115
H17   H     H_    0.799005 0.744230 0.360864 0.176140
H18   H     H_    0.741228 0.649638 0.285367 0.166571
O11   O     O_R   0.229930 0.912420 0.917160 -0.539958
O12   O     O_R   0.559420 0.902500 0.088780 -0.539989
O13   O     O_R   0.729660 0.081330 0.089380 -0.537026
C33   C     C_R   0.390335 0.880523 0.117248 0.689175
O14   O     O_R   0.559650 0.901420 0.917750 -0.538579
O15   O     O_R   0.729880 0.080250 0.917130 -0.536214
C34   C     C_R   0.390742 0.879395 0.888888 0.700046
O16   O     O_R   0.229700 0.913500 0.089410 -0.540662
O17   O     O_3   0.396250 0.055540 0.003280 -0.370264
V3    V     V_3+5 0.671130 0.986010 0.003260 1.394707
O18   O     O_R   0.059600 0.091310 0.917720 -0.543806
C35   C     C_R   0.890939 0.113149 0.889547 0.747137
O19   O     O_R   0.059370 0.092380 0.088750 -0.543092
C36   C     C_R   0.890602 0.114514 0.117336 0.695085
V4    V     V_3+5 0.171120 0.007820 0.003230 1.389046
O20   O     O_3   0.896130 0.938240 0.003240 -0.372642
H19   H     H_    0.491452 0.151250 0.215323 0.166417
H20   H     H_    0.098151 0.761558 0.850680 0.122381
O21   O     O_3   0.844682 0.742562 0.632052 -0.535168
C37   C     C_3   0.772451 0.808035 0.575946 0.162752
H21   H     H_    0.722492 0.871447 0.608432 0.106463
H22   H     H_    0.652903 0.777594 0.539254 0.112900
C38   C     C_3   0.932457 0.834955 0.516894 -0.732005
H23   H     H_    0.990545 0.772760 0.485322 0.227636
H24   H     H_    0.876382 0.883146 0.469769 0.166958
H25   H     H_    0.050372 0.869141 0.551638 0.216262
H26   H     H_    0.417571 0.354117 0.252386 0.171884

loop_
_geom_bond_atom_site_label_1
_geom_bond_atom_site_label_2
_ccdc_geom_bond_type
C32   H18   S    
C29   C30   A    
C11   C12   A    
C20   C21   A    
O19   C36   A    
C20   H20   S    
O21   C37   S    
C19   C20   A    
V4    O20   S    
C10   C11   A    
C17   C18   A    
O13   C36   A    
C38   H23   S    
C18   C19   A    
C31   H15   S    
O15   C35   A    
V2    O10   S    
C30   C31   S    
O14   V3    S    
O18   C35   A    
V3    O20   S    
C15   H7    S    
O8    V2    S    
O11   C34   A    
C10   C36   S    
O1    V2    S    
O7    V1    S    
C16   H8    S    
C23   H11   S    
C1    O6    A    
C9    C16   S    
C32   H17   S    
C38   H24   S    
C6    C35   S    
C7    C8    D    
O16   V4    S    
C23   H10   S    
C15   C16   S    
C28   C29   A    
C27   H13   S    
C19   H9    S    
O4    C2    A    
C31   H16   S    
C24   H12   S    
C26   C27   A    
C9    C10   A    
C28   H14   S    
C21   C34   S    
C5    C7    S    
C25   C32   S    
O14   C34   A    
O12   C33   A    
C17   C22   A    
O2    C1    A    
C22   C23   S    
O13   V3    S    
C12   H6    S    
C15   H26   S    
C16   H19   S    
C13   C14   A    
O15   V3    S    
C5    C6    D    
O19   V4    S    
O3    C4    A    
C1    C18   S    
C37   H21   S    
O6    V2    S    
C37   H22   S    
O9    V2    S    
C3    C13   S    
C8    H4    S    
C21   C22   A    
C17   C24   S    
O2    V1    S    
O17   V4    S    
C29   C33   S    
C23   C24   S    
O11   V4    S    
C38   H25   S    
O1    C2    A    
C24   O21   S    
C2    C26   S    
O5    V1    S    
O8    C3    A    
C37   C38   S    
C14   C15   S    
C4    C8    S    
C7    H3    S    
O7    V2    S    
O4    V1    S    
C12   C13   A    
C25   C30   A    
V1    O10   S    
O5    C3    A    
C31   C32   S    
C33   O16   A    
C9    C14   A    
C5    H1    S    
C6    H2    S    
O12   V3    S    
O17   V3    S    
C25   C26   A    
C11   H5    S    
O3    V1    S    
O18   V4    S    
C27   C28   A    
O9    C4    A    
