data_mof_unit_45739.cif
_audit_creation_date              2013-03-05T16:12:31-0500
_audit_creation_method            fapswitch 2.2
_symmetry_space_group_name_H-M    P1
_symmetry_Int_Tables_number       1
_space_group_crystal_system       triclinic
_cell_length_a                    23.743856
_cell_length_b                    7.215712
_cell_length_c                    20.661107
_cell_angle_alpha                 89.993434
_cell_angle_beta                  105.347726
_cell_angle_gamma                 89.997305
_cell_volume                      3413.60276301

loop_
_atom_site_label
_atom_site_type_symbol
_atom_site_description
_atom_site_fract_x
_atom_site_fract_y
_atom_site_fract_z
_atom_type_partial_charge
O1    O     O_R   0.449110 0.494310 0.552140 -0.590585
O2    O     O_R   0.550890 0.994310 0.447860 -0.590575
O3    O     O_R   0.440010 0.824420 0.415850 -0.582652
O4    O     O_R   0.559990 0.324420 0.584150 -0.582631
C1    C     C_R   0.425396 0.655823 0.390964 0.908518
C2    C     C_R   0.574601 0.155795 0.609037 0.908522
O5    O     O_R   0.442260 0.824040 0.549660 -0.593028
O6    O     O_R   0.557740 0.324040 0.450340 -0.593036
O7    O     O_R   0.553160 0.993960 0.582620 -0.580599
O8    O     O_R   0.446840 0.493960 0.417380 -0.580612
C3    C     C_R   0.428651 0.655425 0.567675 0.901775
C4    C     C_R   0.571348 0.155432 0.432324 0.901749
O9    O     O_3   0.536380 0.660670 0.510660 -0.281764
O10   O     O_3   0.463620 0.160670 0.489340 -0.281784
V1    V     V_3+5 0.493250 0.935680 0.498020 1.149586
V2    V     V_3+5 0.506750 0.435680 0.501980 1.149577
C5    C     C_R   0.805640 0.928071 0.149515 -0.301784
C6    C     C_R   0.194348 0.427998 0.850500 -0.301820
H1    H     H_    0.773918 0.819490 0.148743 0.152157
H2    H     H_    0.226071 0.319386 0.851302 0.151921
C7    C     C_R   0.842831 0.915703 0.106631 0.355747
C8    C     C_R   0.157149 0.415699 0.893374 0.355664
C9    C     C_R   0.884227 0.058637 0.107109 -0.300670
C10   C     C_R   0.115751 0.558634 0.892868 -0.300738
C11   C     C_R   0.885298 0.212623 0.149438 -0.103973
C12   C     C_R   0.114660 0.712557 0.850497 -0.103735
H3    H     H_    0.916300 0.323969 0.151425 0.154490
H4    H     H_    0.083644 0.823887 0.848480 0.154606
C13   C     C_R   0.847213 0.224612 0.190655 -0.106441
C14   C     C_R   0.152746 0.724488 0.809277 -0.107044
H5    H     H_    0.848967 0.345268 0.222338 0.122190
H6    H     H_    0.150981 0.845104 0.777562 0.122276
C15   C     C_R   0.807448 0.082239 0.191213 0.102524
C16   C     C_R   0.192526 0.582114 0.808759 0.102423
C17   C     C_1   0.767321 0.096908 0.233084 -0.042687
C18   C     C_1   0.232659 0.596760 0.766894 -0.042627
C19   C     C_1   0.733622 0.109129 0.267890 -0.090196
C20   C     C_1   0.266362 0.608995 0.732092 -0.090203
C21   C     C_R   0.670057 0.960620 0.330004 -0.156152
C22   C     C_R   0.329929 0.460538 0.669974 -0.156158
H7    H     H_    0.682278 0.825751 0.315041 0.107863
H8    H     H_    0.317705 0.325656 0.684926 0.107861
C23   C     C_R   0.630833 0.971677 0.369980 -0.164891
C24   C     C_R   0.369158 0.471627 0.630002 -0.164882
H9    H     H_    0.613799 0.843844 0.384725 0.135145
H10   H     H_    0.386189 0.343804 0.615250 0.135148
C25   C     C_R   0.613826 0.144851 0.390370 -0.123502
C26   C     C_R   0.386169 0.644819 0.609625 -0.123494
C27   C     C_R   0.637415 0.306521 0.369459 -0.164672
C28   C     C_R   0.362582 0.806474 0.630545 -0.164656
H11   H     H_    0.625455 0.442260 0.383807 0.131114
H12   H     H_    0.374547 0.942224 0.616207 0.131097
C29   C     C_R   0.676701 0.294949 0.329380 -0.153799
C30   C     C_R   0.323293 0.794868 0.670620 -0.153774
H13   H     H_    0.694139 0.421169 0.313863 0.107738
H14   H     H_    0.305856 0.921077 0.686143 0.107725
C31   C     C_R   0.693189 0.121941 0.309448 0.181934
C32   C     C_R   0.306800 0.621842 0.690538 0.181938
C33   C     C_R   0.637514 0.177663 0.796432 0.012734
C34   C     C_R   0.362443 0.678999 0.203597 0.012706
H15   H     H_    0.551865 0.192099 0.727474 0.114436
H16   H     H_    0.448085 0.693593 0.272563 0.114427
C35   C     C_R   0.617502 0.149967 0.675428 -0.096724
C36   C     C_R   0.382494 0.650120 0.324572 -0.096786
C37   C     C_R   0.899588 0.002587 0.769545 -0.160463
C38   C     C_R   0.100464 0.501858 0.230423 -0.160391
C39   C     C_R   0.860483 0.992473 0.706474 -0.095042
C40   C     C_R   0.139590 0.491428 0.293473 -0.095080
C41   C     C_R   0.801498 0.030915 0.697940 -0.173238
C42   C     C_R   0.198558 0.530113 0.302014 -0.173273
C43   C     C_R   0.779674 0.083184 0.752860 0.097421
C44   C     C_R   0.220346 0.582955 0.247123 0.097410
C45   C     C_R   0.820321 0.094417 0.817591 0.076135
C46   C     C_R   0.179677 0.594517 0.182415 0.076274
C47   C     C_R   0.718810 0.120249 0.745494 0.078080
C48   C     C_R   0.281194 0.620313 0.254499 0.078104
C49   C     C_R   0.699049 0.161472 0.803677 0.031679
C50   C     C_R   0.300917 0.662287 0.196344 0.031671
C51   C     C_R   0.741403 0.186770 0.866428 -0.040564
C52   C     C_R   0.258534 0.687800 0.133620 -0.040660
C53   C     C_R   0.800308 0.147981 0.872736 -0.198540
C54   C     C_R   0.199652 0.648628 0.127300 -0.198766
C55   C     C_R   0.676879 0.118723 0.681715 -0.227783
C56   C     C_R   0.323141 0.618388 0.318266 -0.227829
C57   C     C_R   0.598322 0.176916 0.732599 -0.215810
C58   C     C_R   0.401641 0.677953 0.267427 -0.215761
C59   C     C_R   0.880616 0.053417 0.825529 -0.149980
C60   C     C_R   0.119398 0.553261 0.174466 -0.150042
H17   H     H_    0.688858 0.098047 0.635499 0.098741
H18   H     H_    0.311194 0.597073 0.364468 0.098785
H19   H     H_    0.945092 0.969026 0.774867 0.102646
H20   H     H_    0.054977 0.468069 0.225092 0.102642
H21   H     H_    0.774182 0.015207 0.647625 0.112147
H22   H     H_    0.225888 0.514150 0.352311 0.112154
H23   H     H_    0.875926 0.952040 0.663695 0.115395
H24   H     H_    0.124177 0.450552 0.336230 0.115398
H25   H     H_    0.831086 0.166334 0.921457 0.141208
H26   H     H_    0.168854 0.667156 0.078600 0.141271
O11   O     O_R   0.053190 0.709680 0.082610 -0.593850
O12   O     O_R   0.946810 0.209680 0.917390 -0.593817
O13   O     O_R   0.057740 0.380240 0.950340 -0.550951
O14   O     O_R   0.942260 0.880240 0.049660 -0.550996
C61   C     C_R   0.072253 0.548806 0.933564 0.944362
C62   C     C_R   0.927738 0.048802 0.066426 0.944333
O15   O     O_R   0.060000 0.379940 0.084150 -0.569707
O16   O     O_R   0.940000 0.879940 0.915850 -0.569678
O17   O     O_R   0.949110 0.210100 0.052140 -0.590457
O18   O     O_R   0.050890 0.710100 0.947860 -0.590392
C63   C     C_R   0.075348 0.548322 0.108534 0.903003
C64   C     C_R   0.924656 0.048350 0.891464 0.903061
O19   O     O_3   0.963630 0.543720 0.989330 -0.261589
O20   O     O_3   0.036370 0.043720 0.010670 -0.261528
V3    V     V_3+5 0.006750 0.268680 0.001980 1.229693
V4    V     V_3+5 0.993250 0.768680 0.998020 1.229638
C65   C     C_R   0.727768 0.277112 0.924825 0.135496
C66   C     C_R   0.728971 0.175331 0.983082 -0.136466
C67   C     C_R   0.713834 0.260398 0.036917 -0.070071
C68   C     C_R   0.699446 0.448525 0.033913 -0.028360
C69   C     C_R   0.700161 0.552151 0.977010 -0.038980
C70   C     C_R   0.714227 0.467007 0.922516 -0.087374
H27   H     H_    0.739486 0.029177 0.985725 0.141155
H28   H     H_    0.712609 0.180161 0.080685 0.110680
H29   H     H_    0.688000 0.514194 0.075784 0.086042
H30   H     H_    0.689687 0.698223 0.975153 0.090008
H31   H     H_    0.714022 0.548214 0.878357 0.110335
C71   C     C_R   0.272097 0.778647 0.075261 0.135658
C72   C     C_R   0.270703 0.677422 0.016839 -0.137014
C73   C     C_R   0.285746 0.762954 0.963023 -0.069019
C74   C     C_R   0.300237 0.951003 0.966219 -0.028072
C75   C     C_R   0.299701 0.054095 0.023286 -0.039015
C76   C     C_R   0.285725 0.968485 0.077757 -0.086835
H32   H     H_    0.260104 0.531329 0.014042 0.140980
H33   H     H_    0.286813 0.683147 0.919116 0.110624
H34   H     H_    0.311604 0.017043 0.924361 0.085767
H35   H     H_    0.310235 0.200121 0.025278 0.089780
H36   H     H_    0.286069 0.049278 0.122044 0.110145
C77   C     C_R   0.610708 0.171401 0.853410 0.138647
C78   C     C_R   0.612171 0.006364 0.889852 -0.149154
C79   C     C_R   0.585243 0.997526 0.942344 -0.127590
C80   C     C_R   0.556209 0.152601 0.958236 -0.084209
C81   C     C_R   0.553573 0.316158 0.921248 -0.106487
C82   C     C_R   0.580200 0.325234 0.868504 -0.159237
H37   H     H_    0.634218 0.885236 0.877561 0.103757
H38   H     H_    0.586843 0.870484 0.970646 0.099660
H39   H     H_    0.535504 0.145758 0.998973 0.092133
H40   H     H_    0.530820 0.435801 0.933376 0.098796
H41   H     H_    0.577762 0.452391 0.840023 0.110115
C83   C     C_R   0.389254 0.673756 0.146611 0.138521
C84   C     C_R   0.387720 0.509387 0.109798 -0.148890
C85   C     C_R   0.414626 0.501522 0.057272 -0.127274
C86   C     C_R   0.443743 0.656880 0.041741 -0.084500
C87   C     C_R   0.446475 0.819740 0.079118 -0.106499
C88   C     C_R   0.419846 0.827856 0.131876 -0.159498
H42   H     H_    0.365622 0.388039 0.121825 0.103592
H43   H     H_    0.412944 0.375012 0.028667 0.099688
H44   H     H_    0.464443 0.650787 0.000986 0.092325
H45   H     H_    0.469304 0.939587 0.067285 0.098777
H46   H     H_    0.422357 0.954480 0.160657 0.110242
N1    N     N_R   0.836209 0.761157 0.061519 0.231519
O21   O     O_R   0.828264 0.595648 0.082413 -0.430541
O22   O     O_R   0.829415 0.788613 0.997653 -0.436208
N2    N     N_R   0.163743 0.261171 0.938494 0.231610
O23   O     O_R   0.171341 0.095482 0.917524 -0.430417
O24   O     O_R   0.170695 0.288650 0.002385 -0.436321

loop_
_geom_bond_atom_site_label_1
_geom_bond_atom_site_label_2
_geom_bond_distance
_ccdc_geom_bond_type
C38   C40   1.387458 A    
C77   C82   1.404890 A    
O12   C64   1.330347 A    
C71   C72   1.403808 A    
C51   C65   1.480702 S    
C67   C68   1.397144 A    
C54   H26   1.084213 S    
C29   H13   1.083491 S    
C75   H35   1.081247 S    
O1    C3    1.331583 A    
C67   H28   1.080550 S    
C44   C48   1.437600 A    
O2    C4    1.331598 A    
C73   C74   1.397126 A    
C33   C49   1.433536 A    
O11   V4    1.986046 S    
C84   C85   1.398627 A    
C25   C27   1.410431 A    
C59   C64   1.482083 S    
C69   H30   1.081283 S    
C72   H32   1.081794 S    
O5    C3    1.336734 A    
H16   C58   1.085419 S    
C34   C50   1.433617 A    
C40   H24   1.082786 S    
C5    C15   1.400786 A    
O16   V4    1.997173 S    
O15   V3    1.997379 S    
C17   C19   1.212339 T    
C10   C12   1.410100 A    
N2    O23   1.300429 A    
C41   H21   1.075783 S    
C78   H37   1.082968 S    
C38   C60   1.396901 A    
C8    N2    1.435047 S    
C50   C52   1.426762 A    
C33   C77   1.479732 S    
C65   C66   1.403770 A    
C21   C31   1.400158 A    
C13   C15   1.397434 A    
O13   V3    1.983894 S    
C66   C67   1.398166 A    
O18   V4    1.968916 S    
C88   H46   1.083213 S    
C41   C43   1.417638 A    
C68   C69   1.397131 A    
O17   V3    1.968889 S    
C5    H1    1.084032 S    
C20   C32   1.450486 S    
C45   C59   1.428156 A    
C9    C62   1.496194 S    
C27   H11   1.082804 S    
C28   H12   1.082801 S    
C86   C87   1.398302 A    
N1    O22   1.301446 A    
C61   O18   1.333579 A    
C16   C18   1.450424 S    
C26   C28   1.410425 A    
O6    V2    1.984181 S    
C35   C57   1.387537 A    
C39   H23   1.082783 S    
C7    N1    1.435170 S    
C48   C56   1.425968 A    
C3    C26   1.495758 S    
C56   H18   1.076424 S    
C2    O7    1.331863 A    
C4    C25   1.495746 S    
C36   C58   1.387490 A    
O20   V3    1.759196 S    
C24   H10   1.082776 S    
C37   C59   1.396895 A    
N2    O24   1.301466 A    
C49   C51   1.426680 A    
C11   C13   1.399319 A    
C55   H17   1.076439 S    
C30   H14   1.083490 S    
C43   C47   1.437579 A    
C22   C32   1.400151 A    
C66   H27   1.081784 S    
C14   C16   1.397486 A    
C83   C84   1.404304 A    
C44   C46   1.429488 A    
C76   H36   1.083211 S    
C43   C45   1.429488 A    
C29   C31   1.402393 A    
C70   H31   1.083212 S    
C38   H20   1.084036 S    
O5    V1    1.984125 S    
C37   C39   1.387480 A    
C5    C7    1.409608 A    
C1    C36   1.476930 S    
C35   C55   1.399422 A    
C39   C41   1.392382 A    
C2    C35   1.476929 S    
O4    V2    1.997078 S    
C84   H42   1.082928 S    
C33   C57   1.398482 A    
O14   V4    1.983947 S    
C6    C16   1.400825 A    
C79   H38   1.082506 S    
N1    O21   1.300473 A    
O10   V1    1.759486 S    
O6    C4    1.336738 A    
O1    V2    1.968996 S    
C28   C30   1.404175 A    
C86   H44   1.082419 S    
C80   C81   1.398302 A    
C69   C70   1.398515 A    
O14   C62   1.334754 A    
O2    V1    1.968972 S    
C47   C49   1.432615 A    
H15   C57   1.085414 S    
C81   H40   1.082412 S    
C45   C53   1.400003 A    
C60   C63   1.482124 S    
C52   C54   1.398222 A    
C12   C14   1.399328 A    
C85   H43   1.082521 S    
C7    C9    1.422970 A    
C8    C10   1.422839 A    
O4    C2    1.330646 A    
C83   C88   1.404907 A    
C72   C73   1.398168 A    
O3    V1    1.997284 S    
C51   C53   1.398202 A    
C74   C75   1.397090 A    
C30   C32   1.402401 A    
C37   H19   1.084040 S    
O15   C63   1.328844 A    
C87   H45   1.082396 S    
C34   C58   1.398483 A    
C42   H22   1.075763 S    
C6    C8    1.409555 A    
C82   H41   1.083202 S    
O12   V3    1.986160 S    
C48   C50   1.432674 A    
O3    C1    1.330603 A    
C80   H39   1.082396 S    
C21   C23   1.401127 A    
C79   C80   1.398213 A    
C11   H3    1.083102 S    
C77   C78   1.404351 A    
C12   H4    1.083102 S    
O13   C61   1.334736 A    
C36   C56   1.399390 A    
C10   C61   1.496129 S    
C18   C20   1.212351 T    
C75   C76   1.398528 A    
O7    V1    1.984849 S    
C1    O8    1.331894 A    
C13   H5    1.083478 S    
O8    V2    1.984739 S    
C81   C82   1.398657 A    
C14   H6    1.083484 S    
C47   C55   1.425940 A    
C52   C71   1.480753 S    
C71   C76   1.405344 A    
C27   C29   1.404155 A    
C22   H8    1.083680 S    
C15   C17   1.450423 S    
O19   V4    1.759293 S    
C6    H2    1.084043 S    
C68   H29   1.082271 S    
C9    C11   1.410150 A    
C19   C31   1.450472 S    
C78   C79   1.398627 A    
C74   H34   1.082278 S    
C22   C24   1.401137 A    
C87   C88   1.398643 A    
C21   H7    1.083685 S    
O16   C64   1.328883 A    
C65   C70   1.405350 A    
O9    V2    1.759585 S    
C40   C42   1.392358 A    
C53   H25   1.084211 S    
C85   C86   1.398226 A    
C42   C44   1.417649 A    
C34   C83   1.479776 S    
C46   C60   1.428182 A    
C73   H33   1.080516 S    
C23   C25   1.411418 A    
C23   H9    1.082779 S    
C62   O17   1.333614 A    
C46   C54   1.399966 A    
C24   C26   1.411419 A    
O11   C63   1.330396 A    
