data_mof_unit_48697.cif
_audit_creation_date              2012-12-11T14:03:48-0500
_audit_creation_method            fapswitch 2.2
_symmetry_space_group_name_H-M    P1
_symmetry_Int_Tables_number       1
_space_group_crystal_system       triclinic
_cell_length_a                    19.342328
_cell_length_b                    10.8309
_cell_length_c                    19.111011
_cell_angle_alpha                 89.999844
_cell_angle_beta                  90.085213
_cell_angle_gamma                 89.999875
_cell_volume                      4003.65338799

loop_
_atom_site_label
_atom_site_type_symbol
_atom_type_description
_atom_site_fract_x
_atom_site_fract_y
_atom_site_fract_z
_atom_type_partial_charge
C1    C     C_R   0.238531 0.467977 0.646708 0.551189
C2    C     C_R   0.761452 0.468384 0.353531 0.544796
C3    C     C_R   0.738549 0.968384 0.646469 0.544801
C4    C     C_R   0.261470 0.967981 0.353294 0.551153
C5    C     C_2   0.294822 0.894316 0.540795 -0.050398
C6    C     C_2   0.706030 0.880602 0.460062 -0.051196
C7    C     C_2   0.793971 0.380599 0.539938 -0.051195
C8    C     C_2   0.205184 0.394309 0.459208 -0.050394
C9    C     C_R   0.991703 0.627875 0.425470 -0.011808
C10   C     C_R   0.037714 0.636671 0.563065 -0.030661
C11   C     C_R   0.462293 0.136673 0.436933 -0.030662
C12   C     C_R   0.508295 0.127878 0.574530 -0.011811
C13   C     C_R   0.065428 0.809520 0.400289 0.278572
C14   C     C_R   0.046014 0.870265 0.540815 0.283505
C15   C     C_R   0.454008 0.370271 0.459173 0.283514
C16   C     C_R   0.434584 0.309546 0.599699 0.278616
C17   C     C_R   0.081701 0.927193 0.424034 -0.132774
C18   C     C_R   0.070470 0.958031 0.493336 -0.134495
C19   C     C_R   0.429550 0.458045 0.506646 -0.134496
C20   C     C_R   0.418312 0.427216 0.575948 -0.132759
C21   C     C_R   0.038835 0.743906 0.519212 -0.066411
C22   C     C_R   0.034063 0.724414 0.447465 -0.051798
C23   C     C_R   0.465946 0.224426 0.552529 -0.051803
C24   C     C_R   0.461179 0.243913 0.480780 -0.066414
C25   C     C_R   0.023206 0.512924 0.531796 -0.038394
C26   C     C_R   0.991302 0.510710 0.464088 -0.057424
C27   C     C_R   0.508699 0.010713 0.535912 -0.057403
C28   C     C_R   0.476798 0.012927 0.468203 -0.038399
C29   C     C_R   0.034822 0.391444 0.565131 0.294542
C30   C     C_R   0.965244 0.389717 0.438407 0.269021
C31   C     C_R   0.534758 0.889720 0.561593 0.269034
C32   C     C_R   0.465182 0.891447 0.434868 0.294537
C33   C     C_R   0.006729 0.284286 0.537537 -0.101582
C34   C     C_R   0.970866 0.284779 0.478255 -0.091180
C35   C     C_R   0.529137 0.784782 0.521745 -0.091174
C36   C     C_R   0.493279 0.784291 0.462460 -0.101588
C37   C     C_2   0.246670 0.918191 0.920486 -0.036420
C38   C     C_2   0.753198 0.918603 0.079643 -0.034028
C39   C     C_2   0.746802 0.418603 0.920357 -0.034029
C40   C     C_2   0.253330 0.418192 0.079514 -0.036420
C41   C     C_2   0.250339 0.910600 0.081322 0.037611
C42   C     C_2   0.749540 0.910906 0.918787 0.037548
C43   C     C_2   0.750460 0.410906 0.081214 0.037550
C44   C     C_2   0.249661 0.410600 0.918679 0.037607
C45   C     C_R   0.227479 0.878199 0.649760 0.524364
C46   C     C_R   0.772791 0.876806 0.350808 0.530771
C47   C     C_R   0.727209 0.376806 0.649191 0.530772
C48   C     C_R   0.272521 0.378200 0.350239 0.524364
C49   C     C_2   0.210123 0.975458 0.036969 -0.146140
C50   C     C_2   0.789689 0.975987 0.963102 -0.149310
C51   C     C_2   0.710311 0.475986 0.036898 -0.149311
C52   C     C_2   0.289878 0.475458 0.963031 -0.146137
C53   C     C_2   0.195963 0.941557 0.965802 -0.086668
C54   C     C_2   0.803842 0.942445 0.034339 -0.089927
C55   C     C_2   0.696157 0.442444 0.965661 -0.089929
C56   C     C_2   0.304037 0.441556 0.034197 -0.086668
C57   C     C_2   0.998229 0.660620 0.919779 0.306321
C58   C     C_2   0.006805 0.661712 0.083028 0.301977
C59   C     C_2   0.493197 0.161710 0.916973 0.301988
C60   C     C_2   0.501773 0.160621 0.080222 0.306316
C61   C     C_2   0.995208 0.569315 0.037680 -0.092615
C62   C     C_2   0.016262 0.571434 0.965187 -0.084854
C63   C     C_2   0.483745 0.071432 0.034814 -0.084859
C64   C     C_2   0.504799 0.069316 0.962322 -0.092611
C65   C     C_R   0.059103 0.647655 0.637396 0.583735
C66   C     C_R   0.950380 0.647351 0.362327 0.579803
C67   C     C_R   0.549617 0.147352 0.637673 0.579762
C68   C     C_R   0.440899 0.147655 0.362604 0.583729
C69   C     C_R   0.238115 0.466793 0.850818 0.538235
C70   C     C_R   0.761895 0.466818 0.149168 0.536622
C71   C     C_R   0.738104 0.966818 0.850832 0.536621
C72   C     C_R   0.261885 0.966793 0.149183 0.538241
C73   C     C_R   0.226826 0.873705 0.852341 0.544857
C74   C     C_R   0.773150 0.873784 0.147692 0.550820
C75   C     C_R   0.726850 0.373783 0.852308 0.550820
C76   C     C_R   0.273174 0.373705 0.147659 0.544856
C77   C     C_R   0.029873 0.652370 0.850835 0.536789
C78   C     C_R   0.971111 0.652524 0.149876 0.545176
C79   C     C_R   0.528890 0.152524 0.850125 0.545174
C80   C     C_R   0.470128 0.152371 0.149165 0.536791
C81   C     C_2   0.253214 0.944628 0.588898 -0.182501
C82   C     C_2   0.747479 0.936929 0.413758 -0.167232
C83   C     C_2   0.752520 0.436925 0.586240 -0.167235
C84   C     C_2   0.246785 0.444629 0.411101 -0.182495
C85   C     C_2   0.253306 0.914657 0.422147 -0.035078
C86   C     C_2   0.748332 0.912384 0.578304 -0.042468
C87   C     C_2   0.751669 0.412384 0.421696 -0.042476
C88   C     C_2   0.246697 0.414646 0.577859 -0.035059
C89   C     C_2   0.296369 0.952248 0.472401 -0.083302
C90   C     C_2   0.700580 0.934617 0.529313 -0.094653
C91   C     C_2   0.799423 0.434612 0.470686 -0.094653
C92   C     C_2   0.203639 0.452242 0.527601 -0.083326
Cr1   Cr    Cr6+3 0.113970 0.508630 0.747920 1.032226
Cr2   Cr    Cr6+3 0.886030 0.508630 0.252080 1.046766
Cr3   Cr    Cr6+3 0.613970 0.008630 0.747920 1.046749
Cr4   Cr    Cr6+3 0.386030 0.008630 0.252080 1.032226
Cr5   Cr    Cr6+3 0.269200 0.666740 0.749850 1.036422
Cr6   Cr    Cr6+3 0.730800 0.666740 0.250150 1.039542
Cr7   Cr    Cr6+3 0.769200 0.166740 0.749850 1.039546
Cr8   Cr    Cr6+3 0.230800 0.166740 0.250150 1.036414
Cr9   Cr    Cr6+3 0.112300 0.820070 0.749800 1.061608
Cr10  Cr    Cr6+3 0.887700 0.820070 0.250200 1.057917
Cr11  Cr    Cr6+3 0.612300 0.320070 0.749800 1.057910
Cr12  Cr    Cr6+3 0.387700 0.320070 0.250200 1.061611
H1    H     H_    0.332375 0.027408 0.463533 0.128192
H2    H     H_    0.658071 0.997491 0.539253 0.139718
H3    H     H_    0.841935 0.497480 0.460745 0.139718
H4    H     H_    0.167639 0.527413 0.536466 0.128187
H5    H     H_    0.141863 0.941550 0.950300 0.168426
H6    H     H_    0.857939 0.942795 0.049849 0.166999
H7    H     H_    0.642061 0.442795 0.950151 0.166998
H8    H     H_    0.358137 0.441547 0.049699 0.168429
H9    H     H_    0.300669 0.918157 0.936348 0.115223
H10   H     H_    0.699199 0.918263 0.063792 0.117351
H11   H     H_    0.800801 0.418261 0.936208 0.117352
H12   H     H_    0.199331 0.418160 0.063652 0.115222
H13   H     H_    0.970564 0.484029 0.054309 0.121448
H14   H     H_    0.043993 0.489649 0.947863 0.123709
H15   H     H_    0.456017 0.989643 0.052139 0.123707
H16   H     H_    0.529449 0.984034 0.945694 0.121450
H17   H     H_    0.214646 0.844522 0.432069 0.094673
H18   H     H_    0.794505 0.859032 0.566912 0.079122
H19   H     H_    0.705492 0.359039 0.433091 0.079109
H20   H     H_    0.285353 0.344500 0.567944 0.094714
H21   H     H_    0.227612 0.031376 0.576982 0.164464
H22   H     H_    0.771884 0.023540 0.427823 0.170193
H23   H     H_    0.728113 0.523534 0.572173 0.170199
H24   H     H_    0.272383 0.531382 0.423015 0.164444
H25   H     H_    0.100588 0.996253 0.388074 0.205626
H26   H     H_    0.078230 0.051982 0.509880 0.187477
H27   H     H_    0.421786 0.551991 0.490096 0.187461
H28   H     H_    0.399415 0.496277 0.611901 0.205640
H29   H     H_    0.013065 0.195359 0.562038 0.143458
H30   H     H_    0.947538 0.198470 0.461912 0.161887
H31   H     H_    0.552467 0.698473 0.538088 0.161888
H32   H     H_    0.486950 0.695365 0.437956 0.143460
H33   H     H_    0.183931 0.059191 0.053620 0.176551
H34   H     H_    0.816116 0.059360 0.946261 0.178112
H35   H     H_    0.683883 0.559359 0.053739 0.178111
H36   H     H_    0.316070 0.559189 0.946380 0.176551
O1    O     O_R   0.043230 0.549300 0.667990 -0.498943
O2    O     O_R   0.956770 0.549300 0.332010 -0.491686
O3    O     O_R   0.543230 0.049300 0.667990 -0.491732
O4    O     O_R   0.456770 0.049300 0.332010 -0.498942
O5    O     O_R   0.262920 0.788600 0.824420 -0.497394
O6    O     O_R   0.737080 0.788600 0.175580 -0.494686
O7    O     O_R   0.762920 0.288600 0.824420 -0.494686
O8    O     O_R   0.237080 0.288600 0.175580 -0.497394
O9    O     O_R   0.167530 0.905110 0.830340 -0.519077
O10   O     O_R   0.832470 0.905110 0.169660 -0.517816
O11   O     O_R   0.667530 0.405110 0.830340 -0.517815
O12   O     O_R   0.332470 0.405110 0.169660 -0.519076
O13   O     O_R   0.054010 0.748440 0.822860 -0.485486
O14   O     O_R   0.945990 0.748440 0.177140 -0.475419
O15   O     O_R   0.554010 0.248440 0.822860 -0.475423
O16   O     O_R   0.445990 0.248440 0.177140 -0.485484
O17   O     O_3   0.165160 0.665150 0.749190 -0.285624
O18   O     O_3   0.834840 0.665150 0.250810 -0.280299
O19   O     O_3   0.665160 0.165150 0.749190 -0.280291
O20   O     O_3   0.334840 0.165150 0.250810 -0.285619
O21   O     O_R   0.178620 0.457600 0.674100 -0.473849
O22   O     O_R   0.821380 0.457600 0.325900 -0.463583
O23   O     O_R   0.678620 0.957600 0.674100 -0.463578
O24   O     O_R   0.321380 0.957600 0.325900 -0.473848
O25   O     O_R   0.284680 0.542100 0.669460 -0.487348
O26   O     O_R   0.715320 0.542100 0.330540 -0.487090
O27   O     O_R   0.784680 0.042100 0.669460 -0.487085
O28   O     O_R   0.215320 0.042100 0.330540 -0.487359
O29   O     O_R   0.262860 0.790390 0.676650 -0.480653
O30   O     O_R   0.737140 0.790390 0.323350 -0.472867
O31   O     O_R   0.762860 0.290390 0.676650 -0.472865
O32   O     O_R   0.237140 0.290390 0.323350 -0.480649
O33   O     O_R   0.167460 0.907030 0.670940 -0.494172
O34   O     O_R   0.832540 0.907030 0.329060 -0.520736
O35   O     O_R   0.667460 0.407030 0.670940 -0.520734
O36   O     O_R   0.332540 0.407030 0.329060 -0.494188
O37   O     O_R   0.053950 0.750220 0.675100 -0.440926
O38   O     O_R   0.946050 0.750220 0.324900 -0.454580
O39   O     O_R   0.553950 0.250220 0.675100 -0.454615
O40   O     O_R   0.446050 0.250220 0.324900 -0.440922
O41   O     O_R   0.043300 0.547370 0.827390 -0.550490
O42   O     O_R   0.956700 0.547370 0.172610 -0.550780
O43   O     O_R   0.543300 0.047370 0.827390 -0.550788
O44   O     O_R   0.456700 0.047370 0.172610 -0.550491
O45   O     O_R   0.178690 0.455820 0.821860 -0.466570
O46   O     O_R   0.821310 0.455820 0.178140 -0.458258
O47   O     O_R   0.678690 0.955820 0.821860 -0.458260
O48   O     O_R   0.321310 0.955820 0.178140 -0.466569
O49   O     O_R   0.284750 0.540170 0.828860 -0.540702
O50   O     O_R   0.715250 0.540170 0.171140 -0.546732
O51   O     O_R   0.784750 0.040170 0.828860 -0.546732
O52   O     O_R   0.215250 0.040170 0.171140 -0.540704
C93   C     C_2   0.281987 0.789205 0.064579 0.530443
O53   O     O_2   0.252800 0.718525 0.024472 -0.554260
O54   O     O_R   0.343895 0.753939 0.096720 -0.695280
H37   H     H_    0.360509 0.669752 0.080977 0.329456
C94   C     C_2   0.717554 0.789890 0.935781 0.532234
O55   O     O_2   0.746439 0.719374 0.976192 -0.556883
O56   O     O_R   0.655633 0.754808 0.903598 -0.690609
H38   H     H_    0.638753 0.670932 0.919591 0.329301
C95   C     C_2   0.782446 0.289890 0.064220 0.532235
O57   O     O_2   0.753561 0.219373 0.023809 -0.556883
O58   O     O_R   0.844368 0.254807 0.096402 -0.690608
H39   H     H_    0.861247 0.170931 0.080410 0.329301
C96   C     C_2   0.218012 0.289206 0.935423 0.530439
O59   O     O_2   0.247198 0.218526 0.975529 -0.554262
O60   O     O_R   0.156102 0.253944 0.903283 -0.695280
H40   H     H_    0.139488 0.169757 0.919026 0.329455
O61   O     O_3   0.038089 0.770725 0.061743 -0.521915
C97   C     C_3   0.086618 0.809993 0.112291 -0.102692
H41   H     H_    0.134386 0.753622 0.108402 0.134736
H42   H     H_    0.067625 0.808313 0.167036 0.137143
H43   H     H_    0.098834 0.907821 0.101815 0.149462
O62   O     O_3   0.964769 0.766796 0.942310 -0.521811
C98   C     C_3   0.914132 0.803781 0.893389 -0.103086
H44   H     H_    0.866937 0.746642 0.899754 0.144515
H45   H     H_    0.930843 0.801288 0.837899 0.106639
H46   H     H_    0.901783 0.901583 0.903678 0.148472
O63   O     O_3   0.535229 0.266801 0.057690 -0.521812
C99   C     C_3   0.585865 0.303791 0.106611 -0.103088
H47   H     H_    0.633060 0.246654 0.100247 0.144511
H48   H     H_    0.569153 0.301300 0.162101 0.106645
H49   H     H_    0.598212 0.401593 0.096320 0.148471
O64   O     O_3   0.461907 0.270718 0.938256 -0.521919
C100  C     C_3   0.413376 0.309975 0.887708 -0.102686
H50   H     H_    0.365608 0.253605 0.891603 0.134754
H51   H     H_    0.432364 0.308282 0.832962 0.137141
H52   H     H_    0.401160 0.407806 0.898176 0.149463
C101  C     C_2   0.330546 0.774356 0.549223 0.628926
O65   O     O_2   0.318355 0.690819 0.508341 -0.537993
O66   O     O_R   0.379771 0.756618 0.601708 -0.689217
H53   H     H_    0.387590 0.834218 0.630182 0.282222
C102  C     C_2   0.671444 0.760365 0.447512 0.621942
O67   O     O_2   0.682508 0.674319 0.487015 -0.536209
O68   O     O_R   0.624443 0.744646 0.392605 -0.676212
H54   H     H_    0.614241 0.824577 0.367003 0.291035
C103  C     C_2   0.828560 0.260364 0.552491 0.621944
O69   O     O_2   0.817498 0.174314 0.512990 -0.536203
O70   O     O_R   0.875563 0.244652 0.607398 -0.676222
H55   H     H_    0.885761 0.324587 0.632998 0.291034
C104  C     C_2   0.169465 0.274346 0.450782 0.628926
O71   O     O_2   0.181664 0.190809 0.491663 -0.538007
O72   O     O_R   0.120235 0.256602 0.398303 -0.689216
H56   H     H_    0.112409 0.334202 0.369830 0.282227
O73   O     O_3   0.078545 0.782477 0.330566 -0.549468
C105  C     C_3   0.124370 0.681287 0.325578 -0.110920
H57   H     H_    0.170213 0.691884 0.360209 0.098112
H58   H     H_    0.097819 0.592776 0.337018 0.128393
H59   H     H_    0.143605 0.675892 0.271009 0.126503
O74   O     O_3   0.018687 0.916867 0.602032 -0.543648
C106  C     C_3   0.945928 0.917602 0.596708 -0.096727
H60   H     H_    0.928145 0.972392 0.550736 0.145019
H61   H     H_    0.924899 0.822094 0.594257 0.107838
H62   H     H_    0.924519 0.962031 0.644258 0.172536
O75   O     O_3   0.481340 0.416864 0.397956 -0.543649
C107  C     C_3   0.554099 0.417577 0.403280 -0.096729
H63   H     H_    0.571886 0.472360 0.449253 0.145028
H64   H     H_    0.575119 0.322062 0.405731 0.107830
H65   H     H_    0.575512 0.462000 0.355731 0.172542
O76   O     O_3   0.421429 0.282498 0.669415 -0.549490
C108  C     C_3   0.375639 0.181252 0.674381 -0.111022
H66   H     H_    0.329932 0.191543 0.639540 0.098031
H67   H     H_    0.402300 0.092745 0.663208 0.128584
H68   H     H_    0.356183 0.176108 0.728875 0.126513
O77   O     O_3   0.924164 0.368350 0.380552 -0.525561
C109  C     C_3   0.958650 0.293743 0.330295 -0.030638
H69   H     H_    0.966685 0.197508 0.348496 0.097033
H70   H     H_    0.008548 0.335281 0.314020 0.114093
H71   H     H_    0.925770 0.288164 0.282801 0.149386
O78   O     O_3   0.084340 0.370003 0.615754 -0.523010
C110  C     C_3   0.062022 0.288146 0.669805 -0.041974
H72   H     H_    0.077199 0.191744 0.657280 0.121956
H73   H     H_    0.005551 0.294720 0.680450 0.098720
H74   H     H_    0.088727 0.311045 0.719376 0.167768
O79   O     O_3   0.415662 0.870004 0.384248 -0.523010
C111  C     C_3   0.437977 0.788146 0.330196 -0.041972
H75   H     H_    0.422801 0.691744 0.342723 0.121953
H76   H     H_    0.494448 0.794721 0.319548 0.098715
H77   H     H_    0.411270 0.811043 0.280626 0.167768
O80   O     O_3   0.575840 0.868355 0.619447 -0.525558
C112  C     C_3   0.541361 0.793738 0.669702 -0.030632
H78   H     H_    0.533346 0.697501 0.651505 0.097035
H79   H     H_    0.491457 0.835247 0.685971 0.114071
H80   H     H_    0.574233 0.788182 0.717200 0.149393

loop_
_geom_bond_atom_site_label_1
_geom_bond_atom_site_label_2
_ccdc_geom_bond_type
C84   H24   S    
C110  H74   S    
C7    C83   D    
O58   H39   S    
C79   O43   A    
C93   O54   S    
Cr3   O3    S    
C48   C84   S    
C6    C82   D    
Cr7   O19   S    
Cr8   O32   S    
C95   O57   D    
C14   C18   A    
C5    C89   S    
Cr9   O33   S    
C35   C36   A    
Cr6   O30   S    
Cr6   O50   S    
C67   O3    A    
O64   C100  S    
Cr10  O18   S    
C99   H48   S    
C3    O27   A    
C106  H60   S    
Cr12  O36   S    
C15   O75   S    
C96   O59   D    
C105  H59   S    
C112  H80   S    
C15   C19   A    
C66   O38   A    
C12   C23   A    
C59   C64   D    
C50   C54   S    
C112  H78   S    
C13   C22   A    
C60   C63   D    
Cr3   O19   S    
C29   O78   S    
C32   C36   A    
C14   C21   A    
C27   C28   A    
Cr12  O20   S    
C87   C91   D    
C98   H45   S    
C97   H41   S    
C38   C74   S    
C108  H66   S    
C38   H10   S    
C49   C53   S    
C9    C22   A    
C106  H61   S    
C37   H9    S    
C4    O24   A    
C34   H30   S    
O72   H56   S    
C107  H65   S    
C29   C33   A    
C11   C24   A    
C100  H52   S    
C5    C81   D    
C54   H6    S    
C104  O71   D    
C94   O56   S    
Cr4   O48   S    
C9    C66   S    
C82   H22   S    
C41   C93   S    
C77   O13   A    
C43   C51   D    
C48   O32   A    
C76   O12   A    
Cr1   O41   S    
C92   H4    S    
C39   C55   D    
O70   H55   S    
C40   C76   S    
C40   C56   D    
C107  H64   S    
C43   C95   S    
C77   O41   A    
O68   H54   S    
C46   O34   A    
C85   H17   S    
C8    C92   S    
C39   C75   S    
C102  O67   D    
C2    O26   A    
Cr11  O39   S    
C61   C62   S    
Cr11  O11   S    
C55   H7    S    
C44   C52   D    
C58   C61   D    
Cr5   O49   S    
Cr9   O17   S    
O56   H38   S    
Cr2   O18   S    
C16   O76   S    
C46   C82   S    
C21   C22   A    
C63   C64   S    
C3    C86   S    
C25   C29   A    
C95   O58   S    
C2    O22   A    
Cr8   O52   S    
C58   C78   S    
Cr4   O44   S    
C36   H32   S    
C41   C49   D    
C99   H47   S    
C74   O6    A    
C9    C26   A    
O61   C97   S    
Cr7   O27   S    
C96   O60   S    
C10   C21   A    
C19   H27   S    
C51   H35   S    
C12   C67   S    
C105  H58   S    
C30   C34   A    
C12   C27   A    
Cr3   O47   S    
O60   H40   S    
Cr2   O2    S    
C57   C77   S    
C28   C32   A    
Cr9   O37   S    
O80   C112  S    
C90   H2    S    
C86   C90   D    
C98   H46   S    
C59   C79   S    
O63   C99   S    
C108  H67   S    
O73   C105  S    
C85   C89   D    
O62   C98   S    
C78   O14   A    
C106  H62   S    
C52   C56   S    
C4    C85   S    
Cr6   O6    S    
C57   C62   D    
C25   C26   A    
C6    C90   S    
C61   H13   S    
C68   O40   A    
C17   H25   S    
Cr4   O24   S    
C73   O5    A    
C104  O72   S    
Cr5   O17   S    
C20   H28   S    
C87   H19   S    
C75   O11   A    
C98   H44   S    
C79   O15   A    
C86   H18   S    
C101  O65   D    
C33   H29   S    
C57   O62   S    
Cr4   O4    S    
C65   O1    A    
Cr8   O20   S    
C38   C54   D    
C111  H77   S    
Cr1   O21   S    
C16   C20   A    
C7    C91   S    
C107  H63   S    
Cr11  O35   S    
C17   C18   A    
C111  H76   S    
C2    C87   S    
C30   O77   S    
C88   C92   D    
Cr12  O16   S    
Cr1   O17   S    
C31   O80   S    
C102  O68   S    
Cr6   O26   S    
C46   O30   A    
C109  H70   S    
C59   O64   S    
C42   C50   D    
C41   C72   S    
C66   O2    A    
Cr8   O8    S    
C10   C25   A    
Cr11  O15   S    
C15   C24   A    
Cr4   O20   S    
O79   C111  S    
Cr10  O10   S    
C93   O53   D    
C16   C23   A    
C97   H42   S    
C103  O70   S    
C27   C31   A    
C72   O48   A    
Cr10  O38   S    
C5    C101  S    
C60   O63   S    
Cr10  O34   S    
Cr9   O13   S    
C35   H31   S    
O75   C107  S    
C69   O45   A    
C11   C28   A    
C80   O16   A    
Cr1   O1    S    
C11   C68   S    
C70   O50   A    
C49   H33   S    
O77   C109  S    
C10   C65   S    
C53   H5    S    
C110  H73   S    
C7    C103  S    
C37   C73   S    
C105  H57   S    
C60   C80   S    
Cr3   O43   S    
C81   H21   S    
C1    O25   A    
C8    C84   D    
C4    O28   A    
Cr5   O5    S    
C6    C102  S    
C42   C94   S    
C45   C81   S    
Cr12  O40   S    
Cr2   O46   S    
C71   O47   A    
C47   C83   S    
C69   O49   A    
C109  H71   S    
C45   O29   A    
C71   O51   A    
C108  H68   S    
C47   O31   A    
C50   H34   S    
C26   C30   A    
C14   O74   S    
C3    O23   A    
C58   O61   S    
C43   C70   S    
C97   H43   S    
C39   H11   S    
C64   H16   S    
C13   C17   A    
Cr3   O23   S    
Cr8   O28   S    
C75   O7    A    
C112  H79   S    
Cr12  O12   S    
C19   C20   A    
O74   C106  S    
Cr5   O29   S    
Cr7   O7    S    
C101  O66   S    
C32   O79   S    
C67   O39   A    
Cr10  O14   S    
O76   C108  S    
C72   O52   A    
Cr7   O51   S    
Cr11  O19   S    
C40   H12   S    
C65   O37   A    
C8    C104  S    
C1    C88   S    
Cr5   O25   S    
C31   C35   A    
Cr9   O9    S    
C44   C96   S    
C100  H51   S    
C33   C34   A    
C13   O73   S    
C68   O4    A    
C51   C55   S    
C80   O44   A    
C88   H20   S    
C94   O55   D    
C83   H23   S    
C62   H14   S    
C18   H26   S    
C109  H69   S    
C70   O46   A    
C23   C24   A    
C1    O21   A    
O54   H37   S    
C52   H36   S    
Cr6   O18   S    
C45   O33   A    
C37   C53   D    
Cr7   O31   S    
C111  H75   S    
C76   O8    A    
C63   H15   S    
C73   O9    A    
C89   H1    S    
O66   H53   S    
C44   C69   S    
O78   C110  S    
C74   O10   A    
Cr2   O42   S    
C78   O42   A    
C103  O69   D    
C56   H8    S    
C99   H49   S    
C47   O35   A    
Cr2   O22   S    
C110  H72   S    
C42   C71   S    
C48   O36   A    
C100  H50   S    
C91   H3    S    
Cr1   O45   S    
