data_mof_unit_57695.cif
_audit_creation_date              2012-12-11T16:37:26-0500
_audit_creation_method            fapswitch 2.2
_symmetry_space_group_name_H-M    P1
_symmetry_Int_Tables_number       1
_space_group_crystal_system       triclinic
_cell_length_a                    19.515046
_cell_length_b                    6.935199
_cell_length_c                    17.68546
_cell_angle_alpha                 89.991984
_cell_angle_beta                  109.075591
_cell_angle_gamma                 89.99358
_cell_volume                      2262.12817945

loop_
_atom_site_label
_atom_site_type_symbol
_atom_type_description
_atom_site_fract_x
_atom_site_fract_y
_atom_site_fract_z
_atom_type_partial_charge
O1    O     O_R   0.561710 0.369960 0.440200 -0.531796
O2    O     O_R   0.061710 0.630040 0.940200 -0.540099
O3    O     O_R   0.412630 0.033330 0.406330 -0.541523
O4    O     O_R   0.912630 0.966670 0.906330 -0.542672
O5    O     O_R   0.438290 0.869790 0.559800 -0.543762
O6    O     O_R   0.938290 0.130210 0.059800 -0.544872
C1    C     C_R   0.385120 0.203096 0.382815 0.695865
C2    C     C_R   0.885055 0.796965 0.882913 0.686126
O7    O     O_R   0.559570 0.039810 0.430640 -0.541403
O8    O     O_R   0.059570 0.960190 0.930640 -0.536469
O9    O     O_R   0.586280 0.876320 0.584290 -0.532427
O10   O     O_R   0.086280 0.123680 0.084290 -0.515513
C3    C     C_R   0.580995 0.208985 0.415520 0.719842
C4    C     C_R   0.081309 0.791042 0.915870 0.745651
O11   O     O_R   0.413720 0.363440 0.415710 -0.540618
O12   O     O_R   0.913720 0.636560 0.915710 -0.541401
O13   O     O_3   0.508590 0.205630 0.550380 -0.374129
O14   O     O_3   0.008590 0.794370 0.050380 -0.366214
V1    V     V_3+5 0.498410 0.928130 0.490650 1.418768
V2    V     V_3+5 0.998410 0.071870 0.990650 1.439115
O15   O     O_R   0.587370 0.546990 0.593670 -0.541680
O16   O     O_R   0.087370 0.453010 0.093670 -0.544475
C5    C     C_R   0.614914 0.716800 0.617306 0.725337
C6    C     C_R   0.114910 0.283138 0.117301 0.713657
O17   O     O_R   0.440430 0.540520 0.569360 -0.545227
O18   O     O_R   0.940430 0.459480 0.069360 -0.545900
C7    C     C_R   0.419100 0.709307 0.584712 0.674831
C8    C     C_R   0.918902 0.290695 0.084488 0.671907
V3    V     V_3+5 0.501590 0.428960 0.509350 1.418023
V4    V     V_3+5 0.001590 0.571040 0.009350 1.423843
O19   O     O_3   0.491410 0.701330 0.449620 -0.369334
O20   O     O_3   0.991410 0.298670 0.949620 -0.372792
C9    C     C_R   0.314192 0.907431 0.715042 -0.142227
C10   C     C_R   0.785925 0.096357 0.182176 -0.143498
H1    H     H_    0.309143 0.044562 0.741948 0.102427
H2    H     H_    0.756990 0.962762 0.181209 0.102857
C11   C     C_R   0.360268 0.896008 0.668885 -0.164248
C12   C     C_R   0.832766 0.107532 0.136944 -0.162754
H3    H     H_    0.388350 0.025124 0.660847 0.121777
H4    H     H_    0.839009 0.981584 0.103561 0.119242
C13   C     C_R   0.370665 0.720199 0.634449 -0.051074
C14   C     C_R   0.869941 0.279469 0.133628 -0.050825
C15   C     C_R   0.333551 0.556135 0.647197 -0.163380
C16   C     C_R   0.859382 0.439715 0.177263 -0.166011
H5    H     H_    0.339769 0.418724 0.621050 0.117635
H6    H     H_    0.887396 0.574142 0.176473 0.121748
C17   C     C_R   0.286643 0.568085 0.692449 -0.139622
C18   C     C_R   0.813267 0.427790 0.223471 -0.139418
H7    H     H_    0.257608 0.439535 0.698897 0.099019
H8    H     H_    0.808075 0.553078 0.257675 0.103110
C19   C     C_R   0.276269 0.743932 0.727252 0.092258
C20   C     C_R   0.775525 0.256044 0.226439 0.092474
C21   C     C_R   0.217341 0.599060 0.821964 -0.144562
C22   C     C_R   0.686009 0.406065 0.285215 -0.139695
H9    H     H_    0.247641 0.467114 0.824581 0.108683
H10   H     H_    0.690245 0.542295 0.257211 0.102249
C23   C     C_R   0.170093 0.610151 0.866725 -0.152310
C24   C     C_R   0.639385 0.394653 0.330721 -0.143401
H11   H     H_    0.164996 0.485867 0.901608 0.130380
H12   H     H_    0.610180 0.522959 0.337303 0.127501
C25   C     C_R   0.130965 0.780050 0.867590 -0.054514
C26   C     C_R   0.629842 0.219758 0.366322 -0.064898
C27   C     C_R   0.140306 0.938660 0.822427 -0.154791
C28   C     C_R   0.668575 0.056796 0.355730 -0.154854
H13   H     H_    0.110874 0.071556 0.821478 0.122201
H14   H     H_    0.663195 0.920328 0.383067 0.133268
C29   C     C_R   0.186855 0.926761 0.776739 -0.136668
C30   C     C_R   0.716072 0.068816 0.311199 -0.137761
H15   H     H_    0.190978 0.050451 0.741162 0.101583
H16   H     H_    0.746298 0.941185 0.306386 0.103607
C31   C     C_R   0.226253 0.756782 0.775853 0.086899
C32   C     C_R   0.725395 0.243554 0.274931 0.086727
C33   C     C_R   0.806554 0.631067 0.757701 0.083673
C34   C     C_R   0.306466 0.369920 0.257796 0.116406
C35   C     C_R   0.818163 0.783801 0.812543 -0.091277
C36   C     C_R   0.318309 0.216320 0.312325 -0.105634
C37   C     C_R   0.763304 0.924635 0.797521 -0.149066
C38   C     C_R   0.263730 0.074742 0.296992 -0.190932
H17   H     H_    0.769957 0.047719 0.836850 0.109234
H18   H     H_    0.270535 0.951341 0.336176 0.118370
C39   C     C_R   0.696956 0.900628 0.734731 -0.127074
C40   C     C_R   0.197359 0.098611 0.234283 -0.114161
H19   H     H_    0.654968 0.008136 0.726867 0.111619
H20   H     H_    0.155523 0.990655 0.226319 0.123451
C41   C     C_R   0.683689 0.735703 0.684921 -0.117166
C42   C     C_R   0.183767 0.264095 0.184797 -0.118416
C43   C     C_R   0.741712 0.608970 0.695222 0.120743
C44   C     C_R   0.241473 0.391857 0.195336 0.074823
C45   C     C_3   0.745791 0.394143 0.700000 -0.204319
C46   C     C_3   0.244733 0.606214 0.201217 -0.203880
C47   C     C_3   0.817201 0.418471 0.768833 -0.440223
C48   C     C_3   0.316308 0.582611 0.269772 -0.441416
H21   H     H_    0.701539 0.330079 0.718467 0.101031
H22   H     H_    0.200320 0.666867 0.220433 0.115048
H23   H     H_    0.866137 0.368411 0.755390 0.181421
H24   H     H_    0.364970 0.635567 0.256552 0.191139
H25   H     H_    0.814005 0.369591 0.827426 0.166544
H26   H     H_    0.313001 0.628969 0.328617 0.161362
C49   C     C_2   0.754756 0.302338 0.626545 0.804763
O21   O     O_2   0.771465 0.132190 0.628211 -0.555353
O22   O     O_R   0.743508 0.410156 0.556665 -0.664669
H27   H     H_    0.751770 0.331851 0.512025 0.291419
C50   C     C_2   0.252134 0.697797 0.127031 0.798549
O23   O     O_2   0.211943 0.830360 0.094813 -0.564969
O24   O     O_R   0.304015 0.630071 0.094513 -0.663739
H28   H     H_    0.302789 0.702176 0.044199 0.292909

loop_
_geom_bond_atom_site_label_1
_geom_bond_atom_site_label_2
_ccdc_geom_bond_type
C24   C26   A    
V4    O20   S    
C27   H13   S    
O22   H27   S    
O11   V3    S    
O13   V3    S    
C21   H9    S    
O4    C2    A    
V1    O19   S    
C48   H26   S    
C17   H7    S    
O9    V1    S    
C19   C31   S    
C45   C49   S    
C28   C30   A    
C36   C38   A    
C12   C14   A    
O3    C1    A    
C22   C24   A    
C38   H18   S    
C23   H11   S    
C24   H12   S    
C48   H24   S    
C34   C48   S    
C25   C27   A    
C7    C13   S    
C33   C43   A    
O7    C3    A    
O13   V1    S    
O5    C7    A    
O7    V1    S    
O6    C8    A    
C3    C26   S    
O8    V2    S    
C26   C28   A    
O3    V1    S    
O14   V4    S    
C45   C47   S    
C13   C15   A    
C29   C31   A    
C18   H8    S    
C2    O12   A    
C11   C13   A    
C33   C35   A    
C14   C16   A    
C39   H19   S    
C16   H6    S    
C46   H22   S    
C27   C29   A    
C37   H17   S    
O17   V3    S    
C22   H10   S    
C42   C44   A    
C33   C47   S    
O8    C4    A    
C21   C23   A    
C17   C19   A    
C1    O11   A    
C40   C42   A    
C4    C25   S    
O15   V3    S    
C2    C35   S    
C9    C11   A    
C9    C19   A    
C29   H15   S    
C28   H14   S    
C20   C32   S    
C15   H5    S    
C38   C40   A    
C46   C48   S    
C49   O21   D    
C37   C39   A    
C30   C32   A    
O10   V2    S    
O1    V3    S    
C50   O24   S    
C47   H25   S    
C35   C37   A    
C34   C36   A    
C30   H16   S    
C49   O22   S    
C44   C46   S    
O18   V4    S    
C40   H20   S    
O15   C5    A    
O16   C6    A    
O1    C3    A    
O12   V4    S    
C21   C31   A    
V2    O20   S    
O16   V4    S    
C10   C12   A    
C10   C20   A    
C23   C25   A    
C1    C36   S    
O5    V1    S    
O17   C7    A    
O6    V2    S    
O24   H28   S    
O10   C6    A    
O18   C8    A    
O2    V4    S    
C43   C45   S    
C11   H3    S    
C12   H4    S    
C15   C17   A    
O9    C5    A    
C9    H1    S    
C10   H2    S    
O14   V2    S    
C45   H21   S    
O2    C4    A    
C46   C50   S    
C47   H23   S    
O4    V2    S    
C41   C43   A    
C18   C20   A    
C22   C32   A    
V3    O19   S    
C5    C41   S    
C50   O23   D    
C34   C44   A    
C6    C42   S    
C39   C41   A    
C16   C18   A    
C8    C14   S    
