data_mof_unit_19449.cif
_audit_creation_date              2012-12-10T17:52:18-0500
_audit_creation_method            fapswitch 2.2
_symmetry_space_group_name_H-M    P1
_symmetry_Int_Tables_number       1
_space_group_crystal_system       triclinic
_cell_length_a                    19.222069
_cell_length_b                    10.724559
_cell_length_c                    9.903886
_cell_angle_alpha                 90.859982
_cell_angle_beta                  89.343257
_cell_angle_gamma                 92.956557
_cell_volume                      2038.60434549

loop_
_atom_site_label
_atom_site_type_symbol
_atom_type_description
_atom_site_fract_x
_atom_site_fract_y
_atom_site_fract_z
_atom_type_partial_charge
C1    C     C_R   0.507768 0.261552 0.499534 0.947813
C2    C     C_R   0.855134 0.495920 0.498972 -0.097563
C3    C     C_R   0.550084 0.126122 0.744121 -0.216980
C4    C     C_R   0.365676 0.499326 0.500992 0.885375
C5    C     C_R   0.539775 0.070260 0.869313 0.691159
C6    C     C_R   0.502838 0.955817 0.877528 -0.256009
C7    C     C_R   0.482142 0.892327 0.759598 -0.178495
C8    C     C_R   0.499144 0.942434 0.630694 0.101221
C9    C     C_R   0.523373 0.067326 0.624988 -0.068075
C10   C     C_R   0.518134 0.129462 0.500543 -0.242049
C11   C     C_R   0.509894 0.061758 0.379516 0.673396
C12   C     C_R   0.290087 0.494193 0.504597 -0.039679
C13   C     C_R   0.499595 0.934857 0.382991 -0.326815
C14   C     C_R   0.493955 0.874028 0.506788 -0.193870
C15   C     C_R   0.410204 0.320357 0.131755 0.630886
C16   C     C_R   0.495838 0.739969 0.501911 0.901197
C17   C     C_R   0.370895 0.231957 0.055814 0.501088
C18   C     C_R   0.370678 0.239897 0.916720 -0.420274
C19   C     C_R   0.412035 0.330723 0.853539 -0.201461
C20   C     C_R   0.456957 0.414674 0.925703 0.009087
C21   C     C_R   0.456666 0.412652 0.070300 -0.017021
C22   C     C_R   0.540273 0.583485 0.072453 -0.279028
C23   C     C_R   0.930286 0.485792 0.509157 0.331800
C24   C     C_R   0.541534 0.583185 0.927154 0.577687
C25   C     C_R   0.634361 0.498678 0.498956 0.919889
C26   C     C_R   0.255149 0.526630 0.624105 -0.208408
C27   C     C_R   0.183011 0.519190 0.629408 -0.151075
C28   C     C_R   0.145325 0.477397 0.515988 0.094958
C29   C     C_R   0.180172 0.443604 0.396939 -0.165585
C30   C     C_R   0.252350 0.453094 0.390831 -0.147202
C31   C     C_3   0.348718 0.025567 0.098951 -0.242862
C32   C     C_3   0.640105 0.721353 0.917100 -0.354948
C33   C     C_3   0.706637 0.464507 0.164229 -0.158160
C34   C     C_R   0.069816 0.475186 0.519294 0.264136
C35   C     C_3   0.881816 0.521641 0.195892 -0.312288
C36   C     C_R   0.818706 0.541170 0.611008 -0.235311
C37   C     C_R   0.746918 0.543251 0.609074 -0.264662
C38   C     C_R   0.710121 0.497779 0.496182 -0.215383
C39   C     C_R   0.745929 0.453266 0.381408 0.420716
C40   C     C_R   0.818985 0.457543 0.380565 0.463564
F1    F     F_    0.563426 0.129509 0.982952 -0.628581
F2    F     F_    0.397409 0.311934 0.263874 -0.628270
F3    F     F_    0.511918 0.117469 0.257233 -0.614071
H1    H     H_    0.283507 0.558624 0.713075 0.156812
H2    H     H_    0.151655 0.412511 0.307855 0.156778
H3    H     H_    0.278444 0.427226 0.297869 0.188896
H4    H     H_    0.845621 0.572459 0.701869 0.181345
H5    H     H_    0.720038 0.578555 0.697263 0.200242
H6    H     H_    0.403822 0.018246 0.129649 0.200238
H7    H     H_    0.341979 0.995284 0.991841 0.140426
H8    H     H_    0.316409 0.959920 0.161985 0.183805
H9    H     H_    0.670803 0.647706 0.962168 0.131077
H10   H     H_    0.674222 0.769953 0.841316 0.206201
H11   H     H_    0.625624 0.792724 0.993401 0.185026
H12   H     H_    0.579557 0.214771 0.741379 0.185409
H13   H     H_    0.703622 0.565992 0.188621 0.092381
H14   H     H_    0.659053 0.435038 0.107442 0.199101
H15   H     H_    0.751538 0.448343 0.096128 0.179451
H16   H     H_    0.900567 0.489835 0.095436 0.202738
H17   H     H_    0.927093 0.566979 0.249282 0.176374
H18   H     H_    0.842329 0.592006 0.178723 0.126230
H19   H     H_    0.491436 0.914724 0.974993 0.156959
H20   H     H_    0.451207 0.806330 0.772093 0.181447
H21   H     H_    0.495868 0.884487 0.287426 0.185563
H22   H     H_    0.571449 0.651229 0.130298 0.152823
H23   H     H_    0.336798 0.177477 0.857082 0.195914
H24   H     H_    0.406154 0.332997 0.747458 0.249951
H25   H     H_    0.156737 0.545573 0.722071 0.149354
N1    N     N_R   0.032295 0.396997 0.436113 -0.168302
N2    N     N_R   0.963565 0.401650 0.431912 -0.102508
N3    N     N_R   0.967745 0.561860 0.594819 -0.183042
N4    N     N_R   0.036460 0.556615 0.599844 -0.177133
N5    N     N_R   0.499340 0.498800 0.142780 -0.102925
N6    N     N_R   0.499320 0.498720 0.857170 -0.139107
O1    O     O_R   0.500000 0.316780 0.614690 -0.673153
O2    O     O_3   0.580507 0.670281 0.850728 -0.572230
O3    O     O_3   0.709433 0.389425 0.279634 -0.555194
O4    O     O_3   0.853790 0.416576 0.266446 -0.569628
O5    O     O_R   0.499990 0.316750 0.385360 -0.467701
O6    O     O_R   0.398140 0.500000 0.614700 -0.667086
O7    O     O_R   0.398130 0.499970 0.385370 -0.564266
O8    O     O_R   0.500010 0.683250 0.614640 -0.584636
O9    O     O_R   0.500000 0.683220 0.385310 -0.638944
O10   O     O_R   0.601870 0.500030 0.614630 -0.595579
O11   O     O_R   0.601860 0.500000 0.385300 -0.590857
O12   O     O_3   0.325953 0.147205 0.121302 -0.570205
Zn1   Zn    Zn3+2 0.500000 0.500020 0.653130 0.974518
Zn2   Zn    Zn3+2 0.500000 0.499980 0.346870 1.033591

loop_
_geom_bond_atom_site_label_1
_geom_bond_atom_site_label_2
_ccdc_geom_bond_type
C33   H15   S    
C19   C20   A    
O10   Zn1   S    
C33   O3    S    
C26   H1    S    
C7    C8    A    
C22   H22   S    
C26   C27   A    
C37   C38   A    
C39   O3    S    
C36   C37   A    
C4    O6    A    
O6    Zn1   S    
C5    C6    A    
O8    Zn1   S    
C21   N5    A    
C36   H4    S    
C35   H16   S    
C18   C19   A    
C32   H9    S    
C27   H25   S    
C3    H12   S    
C4    O7    A    
C8    C9    A    
C25   O10   A    
C33   H14   S    
C19   H24   S    
N6    Zn1   S    
C4    C12   S    
C9    C10   A    
C33   H13   S    
O9    Zn2   S    
C28   C34   S    
C31   O12   S    
C13   C14   A    
C23   N2    A    
C31   H6    S    
C32   H11   S    
O5    Zn2   S    
C17   O12   S    
C1    O1    A    
C23   N3    A    
C39   C40   A    
C24   O2    S    
C16   O9    A    
C12   C26   A    
C35   H17   S    
N5    Zn2   S    
C29   C30   A    
C3    C9    A    
C25   C38   S    
C25   O11   A    
C17   C18   A    
C20   N6    A    
C35   H18   S    
C37   H5    S    
C11   F3    S    
C34   N1    A    
C7    H20   S    
C40   O4    S    
O1    Zn1   S    
C1    O5    A    
C14   C16   S    
C31   H7    S    
C34   N4    A    
C32   H10   S    
C2    C23   S    
O11   Zn2   S    
C2    C36   A    
C15   C17   A    
C5    F1    S    
C28   C29   A    
C8    C14   A    
C12   C30   A    
C30   H3    S    
C1    C10   S    
C15   F2    S    
C31   H8    S    
C3    C5    A    
C32   O2    S    
C6    C7    A    
C18   H23   S    
C35   O4    S    
C6    H19   S    
N3    N4    A    
C11   C13   A    
C24   N6    A    
C38   C39   A    
C13   H21   S    
C22   C24   A    
N1    N2    A    
O7    Zn2   S    
C10   C11   A    
C2    C40   A    
C15   C21   A    
C20   C21   A    
C16   O8    A    
C29   H2    S    
C27   C28   A    
C22   N5    A    
