data_mof_unit_38317.cif
_audit_creation_date              2012-12-10T17:15:16-0500
_audit_creation_method            fapswitch 2.2
_symmetry_space_group_name_H-M    P1
_symmetry_Int_Tables_number       1
_space_group_crystal_system       triclinic
_cell_length_a                    10.259557
_cell_length_b                    10.681608
_cell_length_c                    12.835234
_cell_angle_alpha                 91.258942
_cell_angle_beta                  91.648047
_cell_angle_gamma                 94.689896
_cell_volume                      1400.8877785

loop_
_atom_site_label
_atom_site_type_symbol
_atom_type_description
_atom_site_fract_x
_atom_site_fract_y
_atom_site_fract_z
_atom_type_partial_charge
C1    C     C_R   0.444960 0.266967 0.494522 0.860387
C2    C     C_R   0.613875 0.378891 0.036219 -0.269923
C3    C     C_R   0.384396 0.608407 0.856386 -0.020265
C4    C     C_R   0.611524 0.386111 0.144556 -0.041895
C5    C     C_R   0.536314 0.443623 0.869366 -0.278861
C6    C     C_R   0.463199 0.553704 0.130825 -0.241115
C7    C     C_R   0.537576 0.454505 0.976388 0.190613
C8    C     C_R   0.460873 0.541483 0.024023 0.175086
C9    C     C_2   0.411002 0.133255 0.499403 0.258335
C10   C     C_2   0.581216 0.867791 0.534838 0.205013
C11   C     C_2   0.487353 0.068276 0.560690 -0.235570
C12   C     C_R   0.553969 0.733603 0.511411 0.855341
C13   C     C_2   0.478092 0.932805 0.555996 -0.137584
C14   C     C_2   0.681911 0.292650 0.203123 0.441914
C15   C     C_2   0.308932 0.698827 0.798864 0.397286
C16   C     C_2   0.891046 0.542880 0.380027 0.497707
C17   C     C_2   0.110088 0.443331 0.613769 0.590248
C18   C     C_2   0.849649 0.331643 0.590289 0.604842
C19   C     C_2   0.144173 0.666136 0.408380 0.581615
C20   C     C_2   0.071414 0.498522 0.514224 -0.145109
C21   C     C_2   0.928717 0.496102 0.483084 -0.059717
C22   C     C_R   0.475668 0.508735 0.698257 0.906098
C23   C     C_R   0.524022 0.490397 0.301899 0.957051
C24   C     C_R   0.536386 0.476566 0.191280 -0.075563
C25   C     C_R   0.462372 0.520619 0.809101 -0.058643
C26   C     C_R   0.383036 0.615779 0.964578 -0.272433
H1    H     H_    0.406169 0.622902 0.167386 0.198595
H2    H     H_    0.140656 0.201038 0.391286 0.400693
H3    H     H_    0.920048 0.494913 0.310085 0.033858
H4    H     H_    0.085368 0.487659 0.686635 -0.026203
H5    H     H_    0.796734 0.310218 0.660483 0.035081
H6    H     H_    0.070094 0.726087 0.433663 0.116117
H7    H     H_    0.594390 0.375493 0.832551 0.156264
H8    H     H_    0.324761 0.682720 0.002628 0.158762
H9    H     H_    0.671025 0.310835 0.998428 0.143504
H10   H     H_    0.380021 0.886614 0.557622 0.235230
H11   H     H_    0.566437 0.116251 0.607987 0.195050
H12   H     H_    0.766602 0.254424 0.169609 0.078068
H13   H     H_    0.222455 0.732793 0.832988 0.078368
H14   H     H_    0.871199 0.801414 0.586119 0.353632
N1    N     N_2   0.162330 0.550370 0.457540 -0.186555
N2    N     N_2   0.837670 0.449630 0.542460 -0.214323
O1    O     O_R   0.567930 0.307680 0.508550 -0.616332
O2    O     O_2   0.345888 0.742305 0.716791 -0.592897
O3    O     O_2   0.752414 0.032442 0.446904 -0.168044
O4    O     O_2   0.774942 0.010724 0.635569 -0.310969
O5    O     O_3   0.855328 0.836063 0.516348 -0.461600
O6    O     O_2   0.330316 0.965917 0.347913 -0.220118
O7    O     O_2   0.178325 0.997824 0.487453 -0.258192
O8    O     O_3   0.209438 0.169477 0.347433 -0.499915
O9    O     O_2   0.835391 0.638943 0.372189 -0.501019
O10   O     O_2   0.162560 0.344971 0.615387 -0.514703
O11   O     O_2   0.909190 0.250295 0.548980 -0.470190
O12   O     O_R   0.432070 0.692320 0.491450 -0.589088
O13   O     O_2   0.215938 0.701472 0.338938 -0.503865
O14   O     O_R   0.351090 0.340020 0.481290 -0.551435
O15   O     O_R   0.648910 0.659980 0.518710 -0.556777
O16   O     O_R   0.590490 0.486480 0.665020 -0.665684
O17   O     O_R   0.409510 0.513520 0.334980 -0.583633
O18   O     O_R   0.373660 0.518820 0.637760 -0.583945
O19   O     O_R   0.626340 0.481180 0.362240 -0.569955
O20   O     O_2   0.642431 0.251574 0.285444 -0.510578
S1    S     S_3+6 0.743632 0.940575 0.533914 0.099451
S2    S     S_3+6 0.279329 0.062196 0.419828 0.098780
Zn1   Zn    Zn3+2 0.644780 0.478400 0.518200 1.019337
Zn2   Zn    Zn3+2 0.355220 0.521600 0.481800 1.070374

loop_
_geom_bond_atom_site_label_1
_geom_bond_atom_site_label_2
_ccdc_geom_bond_type
C2    H9    S    
C22   O16   A    
N2    Zn1   S    
C2    C4    A    
C23   C24   S    
C10   C13   D    
N1    Zn2   S    
O12   Zn2   S    
C14   H12   S    
C9    S2    S    
O8    S2    S    
O16   Zn1   S    
C6    H1    S    
C18   O11   D    
C16   O9    D    
C23   O19   A    
O4    S1    D    
O1    Zn1   S    
C6    C24   A    
C10   S1    S    
C20   N1    D    
C4    C14   S    
O18   Zn2   S    
C7    C8    A    
O7    S2    D    
O3    S1    D    
C23   O17   A    
C17   H4    S    
C9    C11   D    
C15   H13   S    
C16   C21   S    
C10   C12   S    
C5    C25   A    
C19   H6    S    
C17   O10   D    
C1    O14   A    
C26   H8    S    
C15   O2    D    
C18   N2    S    
O17   Zn2   S    
C22   O18   A    
C4    C24   A    
O14   Zn2   S    
O6    S2    D    
C11   C13   S    
C12   O15   A    
C21   N2    D    
C14   O20   D    
C1    C9    S    
O19   Zn1   S    
C3    C25   A    
C17   C20   S    
C8    C26   A    
C20   C21   S    
C13   H10   S    
C11   H11   S    
C19   O13   D    
C5    C7    A    
C3    C15   S    
C6    C8    A    
C18   H5    S    
C2    C7    A    
C16   H3    S    
H14   O5    S    
H2    O8    S    
C1    O1    A    
C3    C26   A    
C12   O12   A    
C19   N1    S    
O5    S1    S    
O15   Zn1   S    
C22   C25   S    
C5    H7    S    
