data_mof_unit_8438.cif
_audit_creation_date              2012-10-26T21:05:20-0400
_audit_creation_method            fapswitch 2.2
_symmetry_space_group_name_H-M    P1
_symmetry_Int_Tables_number       1
_space_group_crystal_system       triclinic
_cell_length_a                    9.636165
_cell_length_b                    10.758678
_cell_length_c                    13.845897
_cell_angle_alpha                 90.09945
_cell_angle_beta                  83.953977
_cell_angle_gamma                 90.178781
_cell_volume                      1427.44448442

loop_
_atom_site_label
_atom_site_type_symbol
_atom_type_description
_atom_site_fract_x
_atom_site_fract_y
_atom_site_fract_z
_atom_type_partial_charge
C1    C     C_R   0.500347 0.737113 0.498664 0.540535
C2    C     C_R   0.540803 0.936111 0.573226 -0.141804
C3    C     C_R   0.540281 0.064511 0.573229 -0.139979
C4    C     C_R   0.476405 0.499867 0.682933 0.542696
C5    C     C_R   0.502018 0.128915 0.492851 0.011608
C6    C     C_R   0.907181 0.509634 0.321213 0.123842
C7    C     C_R   0.979422 0.446527 0.242167 -0.015215
C8    C     C_R   0.096723 0.375636 0.257250 -0.186502
C9    C     C_R   0.152646 0.384719 0.346082 -0.098254
C10   C     C_R   0.084014 0.455617 0.421585 0.142401
C11   C     C_R   0.941999 0.483748 0.415304 0.152157
C12   C     C_1   0.460848 0.498896 0.786576 -0.016192
C13   C     C_R   0.914048 0.525830 0.581616 0.000685
C14   C     C_R   0.062128 0.533277 0.579865 0.001828
C15   C     C_R   0.500341 0.262828 0.498177 0.531320
C16   C     C_R   0.523407 0.499527 0.317096 0.531046
C17   C     C_1   0.538027 0.499771 0.213526 -0.004157
C18   C     C_2   0.556314 0.501536 0.022383 -0.110515
C19   C     C_2   0.440249 0.496451 0.977861 -0.130162
C20   C     C_1   0.449758 0.497814 0.873811 -0.043110
C21   C     C_1   0.547703 0.500434 0.126358 -0.021625
C22   C     C_1   0.941133 0.460876 0.145027 0.228262
C23   C     C_R   0.432264 0.869188 0.326384 -0.078977
C24   C     C_R   0.402784 0.933906 0.243791 -0.100031
C25   C     C_R   0.408491 0.063226 0.242292 -0.113924
C26   C     C_R   0.442298 0.128543 0.323733 -0.105922
C27   C     C_R   0.468686 0.065053 0.409042 0.028871
C28   C     C_R   0.466048 0.933715 0.409844 0.034288
C29   C     C_R   0.501501 0.870859 0.493300 0.016621
Cu1   Cu    Cu3+1 0.359340 0.500010 0.500010 0.942325
Cu2   Cu    Cu3+1 0.640660 0.499990 0.499990 0.978643
H1    H     H_    0.338028 0.491190 0.019155 0.142948
H2    H     H_    0.450675 0.228497 0.318577 0.102848
H3    H     H_    0.568260 0.114065 0.636650 0.124137
H4    H     H_    0.850477 0.548071 0.648296 0.127293
H5    H     H_    0.151898 0.323262 0.198339 0.123109
H6    H     H_    0.246182 0.334390 0.355598 0.165608
H7    H     H_    0.106785 0.562723 0.644586 0.126906
H8    H     H_    0.658304 0.506911 0.980885 0.167033
H9    H     H_    0.569445 0.887222 0.636562 0.120423
H10   H     H_    0.429988 0.768751 0.323715 0.138322
H11   H     H_    0.377349 0.883447 0.180244 0.126805
H12   H     H_    0.387980 0.113117 0.177487 0.115777
I1    I     I_    0.841082 0.695309 0.294182 -0.327991
N1    N     N_R   0.852210 0.498790 0.499090 -0.233633
N2    N     N_R   0.148080 0.498710 0.499060 -0.235705
N3    N     N_1   0.910896 0.472334 0.066856 -0.311021
O1    O     O_R   0.381190 0.680360 0.500010 -0.496441
O2    O     O_R   0.618760 0.680340 0.500000 -0.470763
O3    O     O_R   0.364420 0.499990 0.637850 -0.499594
O4    O     O_R   0.601990 0.499960 0.637840 -0.508996
O5    O     O_R   0.381240 0.319660 0.500000 -0.511462
O6    O     O_R   0.618810 0.319640 0.499990 -0.488763
O7    O     O_R   0.398010 0.500040 0.362160 -0.521947
O8    O     O_R   0.635580 0.500010 0.362150 -0.475649

loop_
_geom_bond_atom_site_label_1
_geom_bond_atom_site_label_2
_ccdc_geom_bond_type
C10   N2    A    
C18   H8    S    
C1    O1    A    
C6    C7    A    
C4    C12   S    
C7    C22   S    
C24   H11   S    
C9    C10   A    
C26   H2    S    
C19   C20   S    
C23   H10   S    
C23   C24   A    
C5    C15   S    
C25   H12   S    
C1    C29   S    
C22   N3    T    
Cu1   O3    S    
C16   O8    A    
C15   O5    A    
C7    C8    A    
C14   N2    A    
C6    I1    S    
C13   C14   A    
Cu2   O6    S    
C13   N1    A    
Cu1   O7    S    
C12   C20   T    
C26   C27   A    
Cu2   O2    S    
C2    C29   A    
C19   H1    S    
C15   O6    A    
Cu1   O1    S    
C28   C29   A    
C13   H4    S    
C2    C3    A    
Cu2   N1    S    
Cu1   Cu2   S    
C16   O7    A    
C11   N1    A    
C23   C28   A    
C10   C11   A    
C4    O4    A    
C14   H7    S    
C18   C21   S    
C2    H9    S    
C27   C28   A    
C24   C25   A    
C18   C19   D    
C8    H5    S    
C4    O3    A    
C6    C11   A    
Cu1   O5    S    
C16   C17   S    
C3    H3    S    
Cu2   O8    S    
C25   C26   A    
C5    C27   A    
C1    O2    A    
Cu1   N2    S    
C17   C21   T    
Cu2   O4    S    
C8    C9    A    
C3    C5    A    
C9    H6    S    
