data_mof_unit_57417.cif
_audit_creation_date              2012-12-10T20:21:45-0500
_audit_creation_method            fapswitch 2.2
_symmetry_space_group_name_H-M    P1
_symmetry_Int_Tables_number       1
_space_group_crystal_system       triclinic
_cell_length_a                    19.032206
_cell_length_b                    18.492744
_cell_length_c                    8.9109
_cell_angle_alpha                 89.999944
_cell_angle_beta                  90.137298
_cell_angle_gamma                 89.692672
_cell_volume                      3136.2058658

loop_
_atom_site_label
_atom_site_type_symbol
_atom_type_description
_atom_site_fract_x
_atom_site_fract_y
_atom_site_fract_z
_atom_type_partial_charge
C1    C     C_R   0.365559 0.500209 0.498588 0.845893
C2    C     C_R   0.547837 0.197792 0.588710 -0.283881
C3    C     C_R   0.499922 0.841349 0.499899 0.118454
C4    C     C_R   0.499967 0.158650 0.499860 0.119301
C5    C     C_R   0.485864 0.962088 0.367699 -0.188101
C6    C     C_R   0.513941 0.037917 0.632038 -0.187792
C7    C     C_R   0.513918 0.961939 0.632053 -0.187905
C8    C     C_R   0.485879 0.038069 0.367690 -0.188315
C9    C     C_R   0.499929 0.077299 0.499856 0.125215
C10   C     C_R   0.499892 0.922704 0.499880 0.125298
C11   C     C_R   0.499964 0.500000 0.218470 0.933419
C12   C     C_R   0.634451 0.499792 0.498784 0.842781
C13   C     C_R   0.500035 0.500000 0.781537 0.935919
C14   C     C_1   0.499986 0.500000 0.065350 -0.211220
C15   C     C_1   0.500012 0.499999 0.934672 -0.210806
C16   C     C_R   0.733277 0.468935 0.336468 -0.184065
C17   C     C_R   0.266489 0.530334 0.335414 -0.193211
C18   C     C_R   0.245204 0.469065 0.572339 -0.212048
C19   C     C_R   0.754922 0.531704 0.571756 -0.217901
C20   C     C_R   0.804314 0.471363 0.302866 -0.156962
C21   C     C_R   0.195373 0.527855 0.301836 -0.153742
C22   C     C_R   0.173753 0.468852 0.541188 -0.152339
C23   C     C_R   0.546870 0.725764 0.587272 0.033143
C24   C     C_R   0.826316 0.531885 0.540628 -0.150349
C25   C     C_R   0.851018 0.502004 0.405854 0.142436
C26   C     C_R   0.148832 0.497920 0.405589 0.142190
C27   C     C_R   0.708805 0.499259 0.470552 -0.003747
C28   C     C_R   0.291169 0.500745 0.470270 -0.005345
C29   C     C_R   0.963285 0.566629 0.367818 -0.054960
C30   C     C_R   0.036493 0.433072 0.369407 -0.055018
C31   C     C_R   0.037044 0.565980 0.370484 -0.052375
C32   C     C_R   0.962742 0.433737 0.372516 -0.052332
C33   C     C_R   0.073138 0.499109 0.376631 -0.047036
C34   C     C_R   0.453043 0.274297 0.412814 0.031626
C35   C     C_R   0.926659 0.500647 0.377005 -0.046923
C36   C     C_R   0.923926 0.636239 0.359573 0.138962
C37   C     C_R   0.926750 0.685969 0.478615 -0.142445
C38   C     C_R   0.888800 0.750788 0.470710 -0.135224
C39   C     C_R   0.847652 0.766235 0.344472 -0.108728
C40   C     C_R   0.844359 0.716855 0.225942 -0.134197
C41   C     C_R   0.882292 0.652008 0.233322 -0.147289
C42   C     C_R   0.075869 0.363428 0.362839 0.138821
C43   C     C_R   0.073407 0.314399 0.483142 -0.142641
C44   C     C_R   0.111493 0.249631 0.476924 -0.131876
C45   C     C_R   0.453080 0.726204 0.412697 0.030605
C46   C     C_R   0.152435 0.233541 0.351143 -0.110702
C47   C     C_R   0.155369 0.282219 0.231358 -0.139025
C48   C     C_R   0.117283 0.347004 0.237031 -0.146257
C49   C     C_R   0.076200 0.635280 0.371985 0.132821
C50   C     C_R   0.078257 0.678668 0.242791 -0.150464
C51   C     C_R   0.115393 0.743686 0.243947 -0.138192
C52   C     C_R   0.150584 0.765740 0.373865 -0.113152
C53   C     C_R   0.148527 0.722909 0.503013 -0.133766
C54   C     C_R   0.111351 0.657928 0.502429 -0.145828
C55   C     C_R   0.923613 0.364444 0.376313 0.133117
C56   C     C_R   0.546959 0.273728 0.587071 0.029591
C57   C     C_R   0.921229 0.320096 0.248536 -0.150935
C58   C     C_R   0.884226 0.255020 0.251948 -0.137341
C59   C     C_R   0.849488 0.233867 0.382712 -0.108782
C60   C     C_R   0.851844 0.277673 0.510442 -0.135466
C61   C     C_R   0.888892 0.342716 0.507605 -0.146216
C62   C     C_R   0.547728 0.801687 0.588921 -0.283276
C63   C     C_R   0.452127 0.198373 0.411046 -0.283344
C64   C     C_R   0.452149 0.802141 0.410931 -0.283543
H1    H     H_    0.697172 0.444809 0.256916 0.134963
H2    H     H_    0.415975 0.304359 0.344564 0.128092
H3    H     H_    0.416057 0.696530 0.344365 0.124370
H4    H     H_    0.584048 0.303344 0.655329 0.124379
H5    H     H_    0.586262 0.828990 0.657809 0.131807
H6    H     H_    0.413520 0.171118 0.342257 0.131715
H7    H     H_    0.413582 0.829812 0.342022 0.131881
H8    H     H_    0.586431 0.170064 0.657450 0.131228
H9    H     H_    0.476027 0.934177 0.263025 0.128593
H10   H     H_    0.523784 0.065828 0.736710 0.128574
H11   H     H_    0.523741 0.933929 0.736743 0.128478
H12   H     H_    0.302484 0.553927 0.255308 0.129711
H13   H     H_    0.476046 0.066089 0.263013 0.128512
H14   H     H_    0.957818 0.674208 0.577700 0.116994
H15   H     H_    0.891102 0.788938 0.562669 0.123434
H16   H     H_    0.818214 0.816396 0.338624 0.121261
H17   H     H_    0.812369 0.728807 0.128378 0.124530
H18   H     H_    0.879320 0.614085 0.140915 0.117163
H19   H     H_    0.042545 0.326684 0.581933 0.117045
H20   H     H_    0.109475 0.212027 0.569861 0.123778
H21   H     H_    0.181999 0.183433 0.346628 0.119712
H22   H     H_    0.187208 0.269777 0.134155 0.124290
H23   H     H_    0.264497 0.445767 0.676211 0.130385
H24   H     H_    0.119998 0.384390 0.143675 0.117359
H25   H     H_    0.051370 0.661923 0.141423 0.119390
H26   H     H_    0.116981 0.776928 0.144064 0.123867
H27   H     H_    0.179393 0.816040 0.374505 0.120146
H28   H     H_    0.175702 0.740087 0.603601 0.126011
H29   H     H_    0.109894 0.625247 0.603224 0.120939
H30   H     H_    0.947782 0.336126 0.146537 0.119490
H31   H     H_    0.882403 0.221025 0.153166 0.123593
H32   H     H_    0.820800 0.183509 0.385109 0.120956
H33   H     H_    0.825016 0.261194 0.611688 0.122920
H34   H     H_    0.735798 0.555604 0.674991 0.126454
H35   H     H_    0.890610 0.376142 0.607338 0.120495
H36   H     H_    0.823078 0.448698 0.198187 0.129313
H37   H     H_    0.176433 0.549912 0.196556 0.129340
H38   H     H_    0.137760 0.446306 0.622498 0.125315
H39   H     H_    0.862435 0.554997 0.621362 0.124889
H40   H     H_    0.583904 0.695751 0.655695 0.123618
N1    N     N_R   0.500000 0.689440 0.500000 -0.091667
N2    N     N_R   0.500000 0.310560 0.500000 -0.092112
O1    O     O_R   0.398180 0.560840 0.499960 -0.620900
O2    O     O_R   0.601820 0.439160 0.500040 -0.621757
O3    O     O_R   0.601820 0.560840 0.500040 -0.615974
O4    O     O_R   0.398180 0.439160 0.499960 -0.617164
O5    O     O_R   0.500000 0.560800 0.285330 -0.618057
O6    O     O_R   0.500000 0.439200 0.714670 -0.618171
O7    O     O_R   0.500000 0.560800 0.714670 -0.618433
O8    O     O_R   0.500000 0.439200 0.285330 -0.618845
Zn1   Zn    Zn3+2 0.500000 0.581210 0.500000 0.942362
Zn2   Zn    Zn3+2 0.500000 0.418790 0.500000 0.941196

loop_
_geom_bond_atom_site_label_1
_geom_bond_atom_site_label_2
_ccdc_geom_bond_type
C7    C10   A    
C21   C26   A    
C43   H19   S    
C58   H31   S    
C34   H2    S    
C6    C9    A    
C3    C64   A    
C29   C36   S    
C36   C37   A    
C13   O6    A    
C51   H26   S    
C38   C39   A    
C11   C14   S    
C38   H15   S    
C49   C54   A    
C23   N1    A    
C64   H7    S    
C11   O8    A    
C54   H29   S    
C26   C33   S    
C23   C62   A    
C47   C48   A    
C44   C46   A    
C8    C9    A    
C45   H3    S    
C17   H12   S    
C48   H24   S    
C19   C27   A    
C42   C43   A    
C32   C55   S    
C46   H21   S    
C21   H37   S    
C16   C27   A    
C59   C60   A    
C36   C41   A    
C61   H35   S    
C31   C49   S    
C2    H8    S    
C12   O3    A    
C19   H34   S    
C45   N1    A    
C6    H10   S    
C12   C27   S    
C11   O5    A    
C51   C52   A    
C34   N2    A    
C32   C35   A    
C18   C28   A    
C24   C25   A    
C60   H33   S    
C39   C40   A    
C12   O2    A    
C7    H11   S    
C58   C59   A    
C56   H4    S    
C17   C21   A    
C62   H5    S    
N2    Zn2   S    
C60   C61   A    
C2    C4    A    
C43   C44   A    
C47   H22   S    
C37   C38   A    
C1    O4    A    
C1    C28   S    
C50   H25   S    
C23   H40   S    
C20   H36   S    
C63   H6    S    
C16   C20   A    
O1    Zn1   S    
C53   H28   S    
C31   C33   A    
C50   C51   A    
C42   C48   A    
C56   N2    A    
C1    O1    A    
C4    C63   A    
C40   C41   A    
C25   C35   S    
C57   H30   S    
C55   C57   A    
C22   C26   A    
C8    H13   S    
C59   H32   S    
O4    Zn2   S    
O6    Zn2   S    
C52   C53   A    
C3    C62   A    
C46   C47   A    
C30   C33   A    
C18   C22   A    
C17   C28   A    
C40   H17   S    
N1    Zn1   S    
C44   H20   S    
C5    C8    A    
O8    Zn2   S    
C53   C54   A    
C6    C7    A    
C37   H14   S    
C29   C35   A    
C45   C64   A    
C18   H23   S    
C22   H38   S    
C24   H39   S    
C39   H16   S    
O2    Zn2   S    
C13   C15   S    
C19   C24   A    
C5    C10   A    
C29   C31   A    
C3    C10   S    
C2    C56   A    
C30   C32   A    
C57   C58   A    
C41   H18   S    
C55   C61   A    
C34   C63   A    
C5    H9    S    
O3    Zn1   S    
C49   C50   A    
C20   C25   A    
C14   C15   T    
C30   C42   S    
C52   H27   S    
O5    Zn1   S    
C16   H1    S    
C4    C9    S    
C13   O7    A    
O7    Zn1   S    
