data_mof_unit_16182.cif
_audit_creation_date              2012-12-11T14:51:48-0500
_audit_creation_method            fapswitch 2.2
_symmetry_space_group_name_H-M    P1
_symmetry_Int_Tables_number       1
_space_group_crystal_system       triclinic
_cell_length_a                    6.972337
_cell_length_b                    16.688383
_cell_length_c                    16.932879
_cell_angle_alpha                 101.299295
_cell_angle_beta                  88.877676
_cell_angle_gamma                 91.581299
_cell_volume                      1931.13224213

loop_
_atom_site_label
_atom_site_type_symbol
_atom_type_description
_atom_site_fract_x
_atom_site_fract_y
_atom_site_fract_z
_atom_type_partial_charge
O1    O     O_R   0.506340 0.439070 0.579550 -0.537670
O2    O     O_R   0.170010 0.404890 0.412100 -0.540840
O3    O     O_R   0.005010 0.560930 0.420450 -0.539400
C1    C     C_R   0.339629 0.381225 0.384295 0.708540
O4    O     O_R   0.176280 0.429360 0.578400 -0.542725
O5    O     O_R   0.011320 0.585570 0.587940 -0.536734
C2    C     C_R   0.341880 0.413123 0.604822 0.694559
O6    O     O_R   0.500030 0.414430 0.412060 -0.539188
O7    O     O_3   0.340950 0.551220 0.502940 -0.368628
V1    V     V_3+5 0.064020 0.490500 0.499460 1.402210
O8    O     O_R   0.681910 0.595110 0.587900 -0.542578
C3    C     C_R   0.851303 0.618246 0.616724 0.675759
O9    O     O_R   0.675640 0.570640 0.421600 -0.539533
C4    C     C_R   0.847979 0.585596 0.394535 0.700837
V2    V     V_3+5 0.564670 0.509500 0.500540 1.402019
O10   O     O_3   0.837610 0.448780 0.497060 -0.369998
C5    C     C_R   0.889803 0.859993 0.165115 -0.161446
C6    C     C_R   0.875923 0.635912 0.331666 -0.063670
C7    C     C_R   0.085303 0.675883 0.227845 -0.169742
C8    C     C_R   0.040964 0.624478 0.281762 -0.175051
C9    C     C_R   0.753400 0.699630 0.325439 -0.212255
C10   C     C_R   0.798712 0.752601 0.271815 0.095804
C11   C     C_R   0.965929 0.740746 0.222145 0.055539
C12   C     C_R   0.009610 0.793529 0.167480 0.390659
C13   C     C_R   0.726296 0.871150 0.216000 -0.216218
C14   C     C_R   0.680839 0.818112 0.268161 -0.172881
H1    H     H_    0.630948 0.921081 0.214869 0.154416
H2    H     H_    0.214849 0.665075 0.191389 0.158486
H3    H     H_    0.552938 0.828506 0.305812 0.133511
H4    H     H_    0.138377 0.575806 0.285089 0.126168
H5    H     H_    0.627388 0.709876 0.364290 0.118501
C15   C     C_3   0.813380 0.817672 0.731515 -0.138684
C16   C     C_3   0.981768 0.768175 0.687108 -0.137276
H6    H     H_    0.062827 0.783071 0.634556 0.102445
H7    H     H_    0.756229 0.874177 0.716416 0.098776
C17   C     C_3   0.865364 0.688491 0.687730 -0.005170
C18   C     C_3   0.696867 0.737204 0.731393 -0.113825
C19   C     C_3   0.784350 0.731378 0.813482 -0.143169
C20   C     C_3   0.952715 0.681857 0.769047 -0.143980
C21   C     C_3   0.069219 0.762335 0.769190 -0.118367
C22   C     C_3   0.900718 0.811054 0.812807 -0.006032
H8    H     H_    0.543369 0.726607 0.715433 0.105165
H9    H     H_    0.703468 0.716537 0.866106 0.099707
H10   H     H_    0.009901 0.625386 0.784203 0.097152
H11   H     H_    0.222676 0.772937 0.785220 0.104887
C23   C     C_3   0.543056 0.262011 0.296185 -0.094769
C24   C     C_3   0.417387 0.183186 0.274797 0.148829
H12   H     H_    0.670173 0.269672 0.335704 0.117148
C25   C     C_3   0.414360 0.192270 0.185831 -0.100888
C26   C     C_3   0.538066 0.271913 0.206612 -0.255657
C27   C     C_3   0.354759 0.322568 0.225840 -0.156695
C28   C     C_3   0.234103 0.243267 0.205675 0.506320
C29   C     C_3   0.232310 0.233089 0.294554 -0.238016
C30   C     C_3   0.357743 0.311599 0.313973 -0.091148
H13   H     H_    0.656549 0.293798 0.171130 0.152547
H14   H     H_    0.323778 0.380049 0.205300 0.114780
H15   H     H_    0.108546 0.217017 0.331158 0.109275
C31   C     C_R   0.430317 0.139281 0.832943 -0.109702
C32   C     C_R   0.337634 0.359534 0.665847 -0.068466
C33   C     C_R   0.164598 0.308062 0.773114 -0.180036
C34   C     C_R   0.179517 0.361383 0.718949 -0.177269
C35   C     C_R   0.482001 0.302854 0.668312 -0.233483
C36   C     C_R   0.467369 0.247219 0.722029 0.138864
C37   C     C_R   0.305714 0.250218 0.774817 0.121991
C38   C     C_R   0.287156 0.195806 0.828914 -0.238818
C39   C     C_R   0.589576 0.136185 0.780206 -0.167557
C40   C     C_R   0.608856 0.188331 0.724326 0.149049
H16   H     H_    0.164306 0.199202 0.869592 0.137761
H17   H     H_    0.699893 0.092186 0.782401 0.124920
H18   H     H_    0.040441 0.311336 0.813043 0.127076
H19   H     H_    0.065913 0.404263 0.718412 0.122663
H20   H     H_    0.602052 0.301201 0.626613 0.134124
O11   O     O_R   0.266070 0.085680 0.087850 -0.531212
O12   O     O_R   0.590090 0.070660 0.921580 -0.544606
O13   O     O_R   0.754780 0.914400 0.912080 -0.537607
C41   C     C_R   0.424659 0.086739 0.894937 0.710337
O14   O     O_R   0.596110 0.095130 0.087880 -0.560545
O15   O     O_R   0.760850 0.939050 0.079570 -0.542603
C42   C     C_R   0.427243 0.120354 0.115220 0.707035
O16   O     O_R   0.260010 0.061030 0.920360 -0.534904
O17   O     O_3   0.425070 0.948840 0.997010 -0.358865
V3    V     V_3+5 0.702100 0.009490 0.000550 1.395338
O18   O     O_R   0.090200 0.929250 0.078500 -0.513508
C43   C     C_R   0.917735 0.913545 0.104881 0.721026
O19   O     O_R   0.084180 0.904770 0.912200 -0.543551
C44   C     C_R   0.914753 0.881498 0.883549 0.666360
V4    V     V_3+5 0.201420 0.990350 0.999580 1.449934
O20   O     O_3   0.928580 0.051150 0.002990 -0.374742
O21   O     O_3   0.170307 0.780936 0.117699 -0.549406
C45   C     C_3   0.117186 0.729881 0.044326 -0.233147
H21   H     H_    0.007827 0.758596 0.012510 0.113733
H22   H     H_    0.063429 0.668996 0.053747 0.121485
H23   H     H_    0.245956 0.719912 0.004430 0.157152
C46   C     C_3   0.457361 0.104437 0.303212 -0.823199
H24   H     H_    0.452876 0.115627 0.370009 0.217166
H25   H     H_    0.347299 0.057096 0.279125 0.205585
H26   H     H_    0.601462 0.082625 0.281306 0.199988
O22   O     O_3   0.083148 0.240351 0.152277 -0.568848
C47   C     C_3   0.941491 0.186112 0.170540 -0.217767
H27   H     H_    0.874992 0.209352 0.230008 0.116542
H28   H     H_    0.993166 0.123682 0.169489 0.143744
H29   H     H_    0.836023 0.183533 0.123507 0.200628
C48   C     C_3   0.780160 0.179427 0.667760 -0.815057
H30   H     H_    0.878559 0.131885 0.679283 0.213111
H31   H     H_    0.731148 0.161803 0.604596 0.207750
H32   H     H_    0.862672 0.238055 0.675162 0.219732

loop_
_geom_bond_atom_site_label_1
_geom_bond_atom_site_label_2
_ccdc_geom_bond_type
O18   V4    S    
V4    O20   S    
C6    C9    A    
C4    C6    S    
O2    C1    A    
C7    C8    A    
C1    O6    A    
C12   O21   S    
O17   V3    S    
C40   C48   S    
C24   C25   S    
C8    H4    S    
C29   C30   S    
C22   C44   S    
C9    H5    S    
C35   C36   A    
O12   C41   A    
C17   C18   S    
O16   V4    S    
O5    C3    A    
C19   C20   S    
C39   H17   S    
V2    O10   S    
C16   C17   S    
C27   H14   S    
C18   H8    S    
O11   V4    S    
O13   C44   A    
O8    V2    S    
C31   C39   A    
C47   H27   S    
C15   C22   S    
O1    V2    S    
C3    C17   S    
O7    V1    S    
C24   C29   S    
C25   C28   S    
O14   C42   A    
C39   C40   A    
O9    C4    A    
O12   V3    S    
C2    C32   S    
C26   C27   S    
C36   C40   A    
O19   V4    S    
C21   H11   S    
C23   H12   S    
C32   C34   A    
C5    C12   A    
C31   C41   S    
C27   C28   S    
C16   C21   S    
C15   H7    S    
C19   C22   S    
C20   C21   S    
O4    C2    A    
C29   H15   S    
C46   H26   S    
C13   C14   A    
O19   C44   A    
C25   C42   S    
C33   C34   A    
C7    C11   A    
C18   C19   S    
O15   V3    S    
C31   C38   A    
C45   H22   S    
O18   C43   A    
C33   H18   S    
C11   C12   A    
C38   H16   S    
C23   C30   S    
C16   H6    S    
O11   C42   A    
C35   H20   S    
C48   H31   S    
C15   C18   S    
C46   H25   S    
C7    H2    S    
O17   V4    S    
O3    C4    A    
C21   C22   S    
C47   H28   S    
O22   C47   S    
O6    V2    S    
O9    V2    S    
O2    V1    S    
C28   C29   S    
C45   H23   S    
C23   C24   S    
C32   C35   A    
C1    C30   S    
O1    C2    A    
C17   C20   S    
C41   O16   A    
O5    V1    S    
O8    C3    A    
O13   V3    S    
C20   H10   S    
C13   H1    S    
C23   C26   S    
C26   H13   S    
C33   C37   A    
C5    C43   S    
C5    C13   A    
C15   C16   S    
C27   C30   S    
O7    V2    S    
O4    V1    S    
O3    V1    S    
V1    O10   S    
C37   C38   A    
C34   H19   S    
C45   H21   S    
O14   V3    S    
V3    O20   S    
C28   O22   S    
C24   C46   S    
C48   H32   S    
C6    C8    A    
C46   H24   S    
C36   C37   A    
O15   C43   A    
C19   H9    S    
C47   H29   S    
C14   H3    S    
C25   C26   S    
C10   C14   A    
C48   H30   S    
C10   C11   A    
O21   C45   S    
C9    C10   A    
