data_mof_unit_34465.cif
_audit_creation_date              2012-12-11T14:23:15-0500
_audit_creation_method            fapswitch 2.2
_symmetry_space_group_name_H-M    P1
_symmetry_Int_Tables_number       1
_space_group_crystal_system       triclinic
_cell_length_a                    10.922691
_cell_length_b                    10.940375
_cell_length_c                    18.742895
_cell_angle_alpha                 90.587726
_cell_angle_beta                  90.573327
_cell_angle_gamma                 61.001018
_cell_volume                      1958.80869244

loop_
_atom_site_label
_atom_site_type_symbol
_atom_type_description
_atom_site_fract_x
_atom_site_fract_y
_atom_site_fract_z
_atom_type_partial_charge
C1    C     C_R   0.236390 0.644930 0.609863 0.531200
C2    C     C_R   0.593202 0.117077 0.704544 -0.158963
C3    C     C_R   0.599037 0.110607 0.777309 -0.148312
C4    C     C_R   0.651443 0.618292 0.602625 0.542972
C5    C     C_R   0.913716 0.154242 0.814271 -0.113778
C6    C     C_R   0.022869 0.151864 0.775349 -0.151477
C7    C     C_R   0.026392 0.136664 0.701523 -0.148142
C8    C     C_R   0.917787 0.130286 0.665803 -0.097995
C9    C     C_R   0.685188 0.146132 0.667613 -0.010319
C10   C     C_R   0.182518 0.670089 0.835126 -0.014843
C11   C     C_R   0.209581 0.544654 0.800582 0.007434
C12   C     C_3   0.716497 0.522422 0.799520 -0.247894
C13   C     C_R   0.202517 0.540919 0.724883 0.021032
C14   C     C_R   0.178269 0.774341 0.721887 -0.166111
C15   C     C_R   0.175289 0.780437 0.795089 -0.158199
C16   C     C_R   0.632392 0.221457 0.600313 0.545116
C17   C     C_R   0.242859 0.423264 0.840045 -0.079295
C18   C     C_R   0.256925 0.303902 0.806331 -0.126354
C19   C     C_R   0.237913 0.303299 0.733059 -0.139729
C20   C     C_R   0.207109 0.421100 0.692772 -0.086388
C21   C     C_R   0.192600 0.656461 0.685073 -0.008694
C22   C     C_R   0.671466 0.665274 0.173022 -0.002445
C23   C     C_3   0.695381 0.670067 0.814475 0.055851
C24   C     C_R   0.786018 0.568166 0.215678 0.022794
C25   C     C_R   0.788432 0.594676 0.288819 0.018319
C26   C     C_R   0.539050 0.752684 0.281428 -0.146629
C27   C     C_R   0.547600 0.758146 0.207300 -0.141500
C28   C     C_R   0.217866 0.649529 0.403225 0.533447
C29   C     C_R   0.894831 0.441112 0.189385 -0.067106
C30   C     C_R   0.010052 0.358764 0.231448 -0.125098
C31   C     C_R   0.022808 0.399433 0.300006 -0.134466
C32   C     C_R   0.914517 0.521429 0.327823 -0.077501
C33   C     C_R   0.659812 0.671811 0.322879 -0.009250
C34   C     C_3   0.666558 0.642283 0.678652 0.053113
C35   C     C_R   0.609746 0.215073 0.161579 0.032381
C36   C     C_R   0.497038 0.215292 0.199474 0.028268
C37   C     C_R   0.514237 0.200439 0.274156 -0.016185
C38   C     C_R   0.663368 0.308190 0.267007 -0.155153
C39   C     C_R   0.682393 0.275444 0.194184 -0.154608
C40   C     C_R   0.643214 0.626242 0.393734 0.527360
C41   C     C_R   0.387228 0.198551 0.166278 0.278805
C42   C     C_R   0.337725 0.119950 0.201009 -0.115833
C43   C     C_R   0.368279 0.087628 0.272436 -0.203030
C44   C     C_R   0.455911 0.126036 0.308845 -0.113643
C45   C     C_3   0.788174 0.673660 0.690581 -0.251833
C46   C     C_R   0.593159 0.256650 0.309312 0.007107
C47   C     C_R   0.059843 0.726527 0.195755 0.001800
C48   C     C_R   0.024991 0.840422 0.244079 0.016405
C49   C     C_R   0.047397 0.812639 0.317677 0.026287
C50   C     C_R   0.177354 0.564662 0.290792 -0.159763
C51   C     C_R   0.133750 0.589851 0.220888 -0.117795
C52   C     C_R   0.582070 0.287425 0.386826 0.563882
C53   C     C_R   0.981470 0.978761 0.222592 -0.109075
C54   C     C_R   0.961441 0.081271 0.272601 -0.141545
C55   C     C_R   0.963640 0.056658 0.344814 -0.101495
C56   C     C_3   0.697065 0.506757 0.719623 -0.215187
C57   C     C_R   0.999253 0.923859 0.367504 -0.083917
C58   C     C_R   0.135333 0.675225 0.339124 -0.003868
C59   C     C_R   0.705454 0.095388 0.893693 0.523187
C60   C     C_R   0.720636 0.685766 0.889870 0.530156
C61   C     C_R   0.120226 0.705569 0.906411 0.550467
C62   C     C_R   0.667932 0.120064 0.099233 0.530973
C63   C     C_R   0.698211 0.688712 0.098462 0.522023
C64   C     C_3   0.545225 0.778201 0.790298 -0.239866
C65   C     C_R   0.028607 0.746820 0.119382 0.556351
C66   C     C_3   0.530046 0.765258 0.709604 -0.233301
C67   C     C_R   0.700489 0.126783 0.816938 -0.003752
C68   C     C_3   0.803788 0.692595 0.770806 -0.216721
C69   C     C_R   0.805921 0.140093 0.779550 0.018360
C70   C     C_R   0.802968 0.139168 0.703602 0.021529
Cr1   Cr    Cr6+3 0.392940 0.397950 0.502230 0.988202
Cr2   Cr    Cr6+3 0.398400 0.708500 0.501260 0.991726
Cr3   Cr    Cr6+3 0.708640 0.393530 0.496460 0.982160
Cr4   Cr    Cr6+3 0.937880 0.938320 0.007620 1.009649
Cr5   Cr    Cr6+3 0.625560 0.937220 0.994510 1.071840
Cr6   Cr    Cr6+3 0.938080 0.625010 0.001190 1.102159
H1    H     H_    0.522508 0.886303 0.802794 0.130882
H2    H     H_    0.927246 0.113277 0.608720 0.130075
H3    H     H_    0.175048 0.861621 0.693974 0.150301
H4    H     H_    0.466716 0.760130 0.818993 0.122216
H5    H     H_    0.262135 0.418383 0.896950 0.162260
H6    H     H_    0.160677 0.875925 0.820267 0.156739
H7    H     H_    0.283385 0.211356 0.837311 0.121209
H8    H     H_    0.251082 0.209583 0.706979 0.091180
H9    H     H_    0.183913 0.416295 0.637143 0.138235
H10   H     H_    0.437153 0.805517 0.306003 0.145612
H11   H     H_    0.888414 0.397896 0.138295 0.158840
H12   H     H_    0.794176 0.416285 0.699304 0.166265
H13   H     H_    0.456472 0.828638 0.176591 0.142530
H14   H     H_    0.083803 0.259168 0.211478 0.131994
H15   H     H_    0.113822 0.334527 0.332290 0.119081
H16   H     H_    0.439998 0.746779 0.699480 0.149732
H17   H     H_    0.923919 0.550646 0.382188 0.127958
H18   H     H_    0.715482 0.360664 0.291548 0.145656
H19   H     H_    0.758634 0.289227 0.164340 0.104819
H20   H     H_    0.271748 0.086749 0.172866 0.130275
H21   H     H_    0.320852 0.035380 0.300248 0.119415
H22   H     H_    0.483332 0.086693 0.362376 0.168150
H23   H     H_    0.912423 0.616777 0.787584 0.149975
H24   H     H_    0.249659 0.458242 0.306181 0.143634
H25   H     H_    0.971598 0.010471 0.168203 0.172935
H26   H     H_    0.168670 0.501462 0.185550 0.215668
H27   H     H_    0.506845 0.864982 0.683211 0.113660
H28   H     H_    0.937395 0.182597 0.255002 0.114646
H29   H     H_    0.942524 0.139113 0.383041 0.141398
H30   H     H_    0.001789 0.906014 0.424374 0.120440
H31   H     H_    0.789120 0.799293 0.781037 0.128087
H32   H     H_    0.767593 0.770228 0.661668 0.114528
H33   H     H_    0.823644 0.442210 0.815874 0.151947
H34   H     H_    0.887436 0.586310 0.669618 0.129374
H35   H     H_    0.640465 0.504169 0.830502 0.114333
H36   H     H_    0.609818 0.482709 0.711253 0.129417
H37   H     H_    0.419457 0.346444 0.016043 0.345884
H38   H     H_    0.508332 0.110502 0.677653 0.134583
H39   H     H_    0.914919 0.170037 0.871046 0.147691
H40   H     H_    0.521520 0.091729 0.802292 0.142029
H41   H     H_    0.106842 0.157670 0.803076 0.118210
H42   H     H_    0.114182 0.126906 0.671279 0.100041
O1    O     O_R   0.507340 0.255690 0.581430 -0.518245
O2    O     O_R   0.837290 0.593240 0.915240 -0.522127
O3    O     O_R   0.065320 0.635310 0.931580 -0.485473
O4    O     O_R   0.280360 0.527380 0.578910 -0.512819
O5    O     O_R   0.068470 0.828620 0.091850 -0.526054
O6    O     O_R   0.799150 0.057200 0.079350 -0.546461
O7    O     O_R   0.585220 0.080180 0.076770 -0.460885
O8    O     O_R   0.627170 0.809480 0.067050 -0.485904
O9    O     O_R   0.816200 0.596410 0.076500 -0.519734
O10   O     O_R   0.045770 0.638240 0.081070 -0.416284
O11   O     O_3   0.833840 0.833520 0.001110 -0.286377
O12   O     O_R   0.524510 0.695820 0.424050 -0.503593
O13   O     O_R   0.260600 0.739610 0.584580 -0.534584
O14   O     O_R   0.532370 0.695050 0.573830 -0.508737
O15   O     O_R   0.744850 0.503430 0.576380 -0.530459
O16   O     O_R   0.699080 0.276500 0.571950 -0.511303
O17   O     O_R   0.498860 0.256520 0.419860 -0.540238
O18   O     O_R   0.272490 0.528150 0.429140 -0.524166
O19   O     O_R   0.252110 0.740440 0.423010 -0.520391
O20   O     O_2   0.337389 0.167462 0.027029 -0.296976
O21   O     O_2   0.148754 0.353032 0.092283 -0.307381
O22   O     O_3   0.356438 0.391729 0.057006 -0.530642
O23   O     O_R   0.736370 0.504260 0.414810 -0.534686
O24   O     O_R   0.691220 0.277270 0.422180 -0.511885
O25   O     O_3   0.499990 0.499990 0.499980 -0.253535
O26   O     O_R   0.089570 0.825450 0.930590 -0.517287
O27   O     O_R   0.818700 0.054260 0.929860 -0.515986
O28   O     O_R   0.606310 0.077010 0.915520 -0.514518
O29   O     O_R   0.646730 0.806540 0.917560 -0.507179
S1    S     S_3+6 0.304612 0.277480 0.083593 -0.013285

loop_
_geom_bond_atom_site_label_1
_geom_bond_atom_site_label_2
_ccdc_geom_bond_type
Cr2   O25   S    
Cr4   O6    S    
C34   C56   S    
C11   C13   A    
C64   H1    S    
Cr4   O27   S    
C19   C20   A    
C30   H14   S    
C16   O16   A    
C34   C66   S    
C62   O6    A    
C7    C8    A    
C4    O14   A    
Cr3   O23   S    
C53   C54   A    
C51   H26   S    
C1    C21   S    
C12   C23   S    
C18   H7    S    
C26   C27   A    
Cr6   O2    S    
C55   H29   S    
C42   H20   S    
Cr6   O3    S    
C14   C21   A    
C54   H28   S    
C36   C37   A    
C9    C16   S    
C10   C15   A    
Cr1   O17   S    
C30   C31   A    
C56   H12   S    
C46   C52   S    
C49   C57   A    
C61   O3    A    
C18   C19   A    
C41   C42   A    
C24   C29   A    
C5    C69   A    
Cr1   O4    S    
C59   C67   S    
C22   C63   S    
C1    O4    A    
C44   H22   S    
C35   C36   A    
O20   S1    D    
C47   C48   A    
C27   H13   S    
C68   H31   S    
C6    H41   S    
C45   H32   S    
C25   C32   A    
Cr4   O5    S    
C40   O23   A    
C5    H39   S    
C8    H2    S    
C64   H4    S    
C7    H42   S    
O22   S1    S    
C36   C41   A    
C48   C53   A    
C12   H33   S    
Cr2   O14   S    
C15   H6    S    
Cr4   O26   S    
Cr3   O24   S    
Cr5   O28   S    
Cr2   O19   S    
C23   C60   S    
C4    C34   S    
O21   S1    D    
C33   C40   S    
C38   C46   A    
C50   C58   A    
C65   O10   A    
C38   C39   A    
C9    C70   A    
C16   O1    A    
C53   H25   S    
Cr1   O18   S    
C45   H34   S    
C66   H16   S    
Cr5   O29   S    
C52   O24   A    
C49   C58   A    
C67   C69   A    
C64   C66   S    
C23   C68   S    
C35   C39   A    
C43   C44   A    
C29   C30   A    
Cr6   O11   S    
C61   O26   A    
C31   C32   A    
C26   H10   S    
C32   H17   S    
C20   H9    S    
C38   H18   S    
C45   C68   S    
C17   C18   A    
H37   O22   S    
C13   C21   A    
C50   C51   A    
C34   C45   S    
C14   H3    S    
C24   C25   A    
C39   H19   S    
C12   C56   S    
C59   O27   A    
C23   C64   S    
C60   O29   A    
Cr3   O15   S    
C31   H15   S    
C22   C27   A    
C55   C57   A    
Cr6   O10   S    
C22   C24   A    
C10   C61   S    
C42   C43   A    
C19   H8    S    
Cr2   O13   S    
Cr1   O25   S    
Cr3   O25   S    
C52   O17   A    
C40   O12   A    
C54   C55   A    
C11   C17   A    
C13   C20   A    
C28   O18   A    
C50   H24   S    
C66   H27   S    
C3    C67   A    
C28   O19   A    
C43   H21   S    
C1    O13   A    
C62   O7    A    
C47   C51   A    
Cr2   O12   S    
C6    C7    A    
C28   C58   S    
C8    C70   A    
Cr1   O1    S    
C3    H40   S    
Cr5   O8    S    
C37   C44   A    
C2    C3    A    
C68   H23   S    
C2    H38   S    
C5    C6    A    
C41   S1    S    
C48   C49   A    
C47   C65   S    
C57   H30   S    
C35   C62   S    
C17   H5    S    
C65   O5    A    
C69   C70   A    
C29   H11   S    
C63   O8    A    
C10   C11   A    
C60   O2    A    
C59   O28   A    
Cr3   O16   S    
Cr4   O11   S    
Cr6   O9    S    
C14   C15   A    
Cr5   O7    S    
C37   C46   A    
C2    C9    A    
C56   H36   S    
C12   H35   S    
C63   O9    A    
Cr5   O11   S    
C26   C33   A    
C25   C33   A    
C4    O15   A    
