data_mof_unit_25797.cif
_audit_creation_date              2012-12-11T20:00:36-0500
_audit_creation_method            fapswitch 2.2
_symmetry_space_group_name_H-M    P1
_symmetry_Int_Tables_number       1
_space_group_crystal_system       triclinic
_cell_length_a                    8.325753
_cell_length_b                    16.334314
_cell_length_c                    27.181917
_cell_angle_alpha                 71.6102
_cell_angle_beta                  97.406596
_cell_angle_gamma                 96.369265
_cell_volume                      3468.85936303

loop_
_atom_site_label
_atom_site_type_symbol
_atom_type_description
_atom_site_fract_x
_atom_site_fract_y
_atom_site_fract_z
_atom_type_partial_charge
Ba1   Ba    Ba6+2 0.337820 0.939830 0.518500 1.713003
Ba2   Ba    Ba6+2 0.851970 0.060110 0.481480 1.745879
C1    C     C_3   0.348132 0.611685 0.719556 0.282462
C2    C     C_R   0.333223 0.355011 0.167809 0.586666
C3    C     C_2   0.310937 0.289838 0.282789 -0.094042
C4    C     C_3   0.648267 0.622452 0.617627 0.301108
C5    C     C_3   0.288597 0.248238 0.340147 -0.103486
C6    C     C_1   0.462859 0.137361 0.338960 -0.046190
C7    C     C_2   0.479363 0.172995 0.288471 -0.075749
C8    C     C_2   0.406573 0.256961 0.257751 0.214191
C9    C     C_R   0.527369 0.401700 0.102680 -0.141355
C10   C     C_R   0.635773 0.344191 0.137053 -0.101732
C11   C     C_R   0.781351 0.333018 0.118954 0.443150
C12   C     C_3   0.276442 0.676360 0.670043 0.314891
C13   C     C_R   0.377468 0.409143 0.118837 -0.016059
C14   C     C_2   0.361407 0.163128 0.363655 -0.241035
C15   C     C_2   0.792229 0.823184 0.633894 -0.209306
C16   C     C_3   0.678760 0.536697 0.659425 -0.381706
C17   C     C_R   0.736932 0.479010 0.979885 -0.079638
C18   C     C_R   0.526721 0.576856 0.973755 0.043719
C19   C     C_R   0.654637 0.553936 0.952038 -0.006555
C20   C     C_R   0.840147 0.448260 0.952949 0.319914
C21   C     C_R   0.879807 0.498147 0.902724 0.400492
C22   C     C_R   0.802838 0.575314 0.875773 -0.146496
C23   C     C_3   0.087158 0.115105 0.670616 1.055411
C24   C     C_R   0.696753 0.604963 0.901586 -0.149785
C25   C     C_R   0.630276 0.685119 0.876651 -0.007649
C26   C     C_R   0.677344 0.736693 0.827290 0.564341
C27   C     C_R   0.821987 0.621062 0.822625 0.616233
C28   C     C_3   0.476958 0.945268 0.322008 0.684346
C29   C     C_2   0.922109 0.741171 0.721968 -0.118062
C30   C     C_3   0.918763 0.763091 0.663264 -0.089353
C31   C     C_1   0.697897 0.852323 0.658725 0.043960
C32   C     C_2   0.668569 0.810300 0.707764 -0.121934
C33   C     C_2   0.790657 0.751275 0.743863 0.164460
C34   C     C_3   0.221148 0.129492 0.714017 0.243893
C35   C     C_R   0.708361 0.436046 0.032966 -0.015476
C36   C     C_R   0.568832 0.452216 0.052029 0.044446
C37   C     C_R   0.471398 0.519344 0.020966 0.029276
C38   C     C_R   0.816788 0.379409 0.068096 -0.134002
C39   C     C_R   0.273898 0.470196 0.085447 -0.057960
C40   C     C_3   0.577401 0.948522 0.277905 0.350070
C41   C     C_R   0.459819 0.656804 0.947649 -0.115836
C42   C     C_R   0.514658 0.711091 0.900975 -0.083613
C43   C     C_R   0.321877 0.525982 0.038179 -0.118730
C44   C     C_2   0.401841 0.249162 0.509482 -0.354112
C45   C     C_3   0.602225 0.372585 0.368131 0.531654
C46   C     C_R   0.791326 0.761491 0.484293 -0.321699
C47   C     C_2   0.274709 0.319268 0.561220 0.376858
C48   C     C_2   0.276087 0.249399 0.543855 -0.033943
C49   C     C_2   0.509125 0.317735 0.493432 0.031083
C50   C     C_3   0.470275 0.403218 0.497941 -0.151447
C51   C     C_3   0.415060 0.388524 0.550981 -0.140968
C52   C     C_3   0.595384 0.113873 0.607183 0.354060
C53   C     C_2   0.593301 0.479755 0.485163 0.472649
C54   C     C_2   0.542083 0.560318 0.470759 -0.064436
C55   C     C_R   0.771047 0.648093 0.425427 0.056072
C56   C     C_3   0.592237 0.458181 0.324651 0.371253
C57   C     C_R   0.658378 0.637075 0.461431 -0.099920
C58   C     C_R   0.894097 0.715697 0.418418 0.292979
C59   C     C_R   0.910081 0.767902 0.451177 0.040814
C60   C     C_R   0.660803 0.698904 0.487895 -0.023539
C61   C     C_3   0.567048 0.181459 0.631933 -0.375108
C62   C     C_3   0.103951 0.998401 0.357956 0.368974
C63   C     C_3   0.062084 0.042656 0.299615 0.264319
C64   C     C_3   0.562258 0.945440 0.193247 0.179418
C65   C     C_3   0.002384 0.952280 0.247328 0.294913
C66   C     C_3   0.939990 0.223336 0.680829 0.197650
C67   C     C_3   0.138545 0.401596 0.352616 0.414490
C68   C     C_3   0.031262 0.972125 0.726029 0.099447
C69   C     C_3   0.414661 0.226115 0.737971 0.113256
C70   C     C_3   0.315800 0.636104 0.797074 0.217776
C71   C     C_3   0.532179 0.600020 0.304513 0.158958
C72   C     C_3   0.100433 0.461214 0.442061 0.313148
C73   C     C_3   0.876947 0.200294 0.139404 0.255345
C74   C     C_3   0.147261 0.478478 0.903651 0.262559
C75   C     C_3   0.774951 0.306718 0.960076 0.168651
C76   C     C_3   0.186527 0.390080 0.613910 0.240211
C77   C     C_3   0.017131 0.673955 0.359135 0.180620
C78   C     C_3   0.082922 0.487307 0.352198 0.306656
C79   C     C_3   0.810109 0.464103 0.546010 0.182964
C80   C     C_3   0.438190 0.795994 0.365505 0.317730
C81   C     C_R   0.597914 0.301511 0.188995 0.605436
H1    H     H_    0.650000 0.011885 0.267348 -0.084451
H2    H     H_    0.162217 0.122567 0.749840 -0.045623
H3    H     H_    0.309466 0.078873 0.723664 -0.001899
H4    H     H_    0.630585 0.321788 0.351998 -0.045203
H5    H     H_    0.481592 0.355547 0.383372 -0.216507
H6    H     H_    0.711807 0.476475 0.308481 0.025106
H7    H     H_    0.498304 0.448925 0.293401 -0.103778
H8    H     H_    0.217986 0.375010 0.389193 -0.070741
H9    H     H_    0.189027 0.535826 0.350056 -0.054178
H10   H     H_    0.001585 0.512707 0.315997 0.019401
H11   H     H_    0.538005 0.138595 0.268472 0.080507
H12   H     H_    0.484105 0.103350 0.582143 -0.035564
H13   H     H_    0.023831 0.707991 0.745574 0.147920
H14   H     H_    0.264183 0.352409 0.264016 0.118739
H15   H     H_    0.336174 0.126837 0.403154 0.063449
H16   H     H_    0.774764 0.837005 0.591955 0.069105
H17   H     H_    0.415080 0.189718 0.501148 0.064228
H18   H     H_    0.575342 0.514731 0.683462 0.106515
H19   H     H_    0.414937 0.569338 0.470135 0.042925
H20   H     H_    0.348850 0.682009 0.637561 0.024109
H21   H     H_    0.662447 0.896275 0.291624 -0.023488
H22   H     H_    0.649613 0.894240 0.204342 -0.005406
H23   H     H_    0.698180 0.137542 0.583133 0.081670
H24   H     H_    0.626559 0.010719 0.179481 0.017184
H25   H     H_    0.477563 0.935865 0.160185 0.063794
H26   H     H_    0.236389 0.000890 0.368008 -0.067718
H27   H     H_    0.049215 0.034160 0.379318 0.007469
H28   H     H_    0.476741 0.633265 0.729681 -0.011812
H29   H     H_    0.913828 0.995605 0.220208 -0.063336
H30   H     H_    0.940389 0.901325 0.278023 0.072569
H31   H     H_    0.058275 0.919492 0.224452 0.073263
H32   H     H_    0.928417 0.048456 0.291424 0.018521
H33   H     H_    0.034503 0.258458 0.700738 0.055652
H34   H     H_    0.625008 0.166639 0.672329 0.140812
H35   H     H_    0.877175 0.171435 0.710856 0.027608
H36   H     H_    0.852741 0.271547 0.658708 0.036633
H37   H     H_    0.051075 0.976398 0.766337 0.027500
H38   H     H_    0.145748 0.957490 0.714785 0.066781
H39   H     H_    0.941179 0.917168 0.726309 0.084354
H40   H     H_    0.502834 0.175248 0.752475 0.040391
H41   H     H_    0.349668 0.229693 0.770425 0.046731
H42   H     H_    0.485092 0.289073 0.722980 0.063200
H43   H     H_    0.357062 0.705095 0.779119 0.047071
H44   H     H_    0.417500 0.598915 0.820987 0.009211
H45   H     H_    0.436597 0.180672 0.634235 0.124144
H46   H     H_    0.223208 0.635333 0.823041 0.071995
H47   H     H_    0.790669 0.544595 0.685100 0.120180
H48   H     H_    0.428784 0.592937 0.275471 0.024802
H49   H     H_    0.645796 0.623678 0.285214 0.019470
H50   H     H_    0.504084 0.649705 0.321396 0.058247
H51   H     H_    0.210630 0.416316 0.319059 -0.105821
H52   H     H_    0.052646 0.488804 0.469030 0.092486
H53   H     H_    0.225399 0.490889 0.436401 -0.081266
H54   H     H_    0.103904 0.390417 0.460571 0.064237
H55   H     H_    0.633413 0.670683 0.637289 0.014464
H56   H     H_    0.611117 0.246815 0.608220 0.052350
H57   H     H_    0.752159 0.168433 0.144299 -0.010552
H58   H     H_    0.962798 0.155902 0.166890 0.085201
H59   H     H_    0.908497 0.210064 0.099287 -0.004162
H60   H     H_    0.165167 0.428290 0.942092 0.068490
H61   H     H_    0.175398 0.544003 0.908438 -0.044396
H62   H     H_    0.236406 0.469660 0.879087 0.065491
H63   H     H_    0.751460 0.320833 0.917061 0.060129
H64   H     H_    0.660068 0.305705 0.977229 0.013784
H65   H     H_    0.819320 0.241012 0.976323 0.058285
H66   H     H_    0.934688 0.373034 0.057770 0.148926
H67   H     H_    0.118970 0.109709 0.289590 0.023570
H68   H     H_    0.156786 0.476963 0.096514 0.112218
H69   H     H_    0.368813 0.680179 0.963739 0.065918
H70   H     H_    0.756799 0.642529 0.595360 -0.043460
H71   H     H_    0.460823 0.772248 0.882822 0.109147
H72   H     H_    0.551652 0.813917 0.720065 0.141752
H73   H     H_    0.237073 0.571802 0.014635 0.060075
H74   H     H_    0.294870 0.375572 0.642817 0.075391
H75   H     H_    0.082760 0.392404 0.635033 0.015683
H76   H     H_    0.205956 0.455440 0.585464 0.009320
H77   H     H_    0.098298 0.632403 0.390287 0.059115
H78   H     H_    0.151830 0.648680 0.660643 -0.042217
H79   H     H_    0.084483 0.700472 0.324149 0.052836
H80   H     H_    0.905394 0.637524 0.347717 0.076453
H81   H     H_    0.797184 0.807611 0.505731 0.078429
H82   H     H_    0.770269 0.400497 0.573095 0.050114
H83   H     H_    0.769771 0.518072 0.556965 -0.004096
H84   H     H_    0.943667 0.471421 0.549901 0.062256
H85   H     H_    0.694043 0.486202 0.641428 0.095759
H86   H     H_    0.464384 0.799762 0.405780 0.061020
H87   H     H_    0.351727 0.738876 0.367030 0.029887
H88   H     H_    0.550228 0.784692 0.351264 -0.055768
H89   H     H_    0.351107 0.549457 0.711494 0.004346
H90   H     H_    0.403133 0.001368 0.306623 -0.009905
N1    N     N_R   0.445279 0.304264 0.203980 -0.436842
N2    N     N_R   0.765865 0.703366 0.798906 -0.428014
O1    O     O_2   0.431310 0.922990 0.623550 -0.431738
O2    O     O_2   0.845557 0.306639 0.502128 -0.430003
O3    O     O_3   0.725957 0.381704 0.406692 -0.515782
O4    O     O_3   0.663280 0.983100 0.563360 -0.505799
O5    O     O_3   0.016420 0.932050 0.462720 -0.500618
O6    O     O_2   0.959730 0.164640 0.549160 -0.428585
O7    O     O_3   0.165782 0.088262 0.635105 -0.647969
O8    O     O_2   0.950755 0.196972 0.327054 -0.452394
O9    O     O_3   0.003651 0.343872 0.347481 -0.572487
O10   O     O_2   0.703046 0.263968 0.221134 -0.529991
O11   O     O_2   0.882298 0.585333 0.797013 -0.537882
O12   O     O_3   0.043509 0.911854 0.370227 -0.577342
O13   O     O_2   0.193906 0.352922 0.177850 -0.551135
O14   O     O_2   0.638039 0.811008 0.809691 -0.610621
O15   O     O_3   0.126250 0.812630 0.574830 -0.488329
O16   O     O_2   0.138210 0.906268 0.637946 -0.450682
O17   O     O_3   0.631361 0.037550 0.646511 -0.587140
O18   O     O_3   0.280219 0.758433 0.677251 -0.613552
O19   O     O_2   0.229950 0.835370 0.450810 -0.443496
O20   O     O_3   0.517580 0.797570 0.545130 -0.489248
O21   O     O_2   0.328610 0.690891 0.501415 -0.489596
O22   O     O_3   0.471356 0.939248 0.234722 -0.619545
O23   O     O_3   0.504937 0.612914 0.585726 -0.606970
O24   O     O_3   0.126063 0.000062 0.269291 -0.621208
O25   O     O_3   0.006532 0.191891 0.645292 -0.598671
O26   O     O_3   0.966414 0.048400 0.691664 -0.670952
O27   O     O_3   0.303847 0.212182 0.697049 -0.661531
O28   O     O_3   0.245055 0.596719 0.759492 -0.610731
O29   O     O_3   0.551370 0.521803 0.345069 -0.640081
O30   O     O_3   0.996293 0.478105 0.395291 -0.608591
O31   O     O_3   0.893485 0.278866 0.151434 -0.554336
O32   O     O_3   0.989265 0.468745 0.878990 -0.581414
O33   O     O_3   0.895088 0.366249 0.973345 -0.653659
O34   O     O_2   0.758370 0.077020 0.376420 -0.452641
O35   O     O_3   0.149161 0.325408 0.588763 -0.599908
O36   O     O_3   0.981117 0.742971 0.374947 -0.634959
O37   O     O_3   0.757600 0.468325 0.493988 -0.620936
O38   O     O_3   0.365293 0.870788 0.332507 -0.604306
O39   O     O_3   0.526390 0.016840 0.436620 -0.466911
O40   O     O_3   0.063420 0.187310 0.425160 -0.476355
O41   O     O_3   0.580001 0.948347 0.367132 -0.691007
O42   O     O_3   0.173250 0.067890 0.537260 -0.448850
O43   O     O_3   0.672100 0.202370 0.454860 -0.500577
P1    P     P_3+3 0.610630 0.953360 0.619150 1.046236
P2    P     P_3+3 0.057260 0.861390 0.437850 1.082983
P3    P     P_3+3 0.501393 0.701056 0.528645 0.948617
P4    P     P_3+3 0.579040 0.046590 0.380840 0.982999
P5    P     P_3+3 0.689260 0.302589 0.465269 1.064173
P6    P     P_3+3 0.115032 0.810559 0.638691 0.984893
P7    P     P_3+3 0.143892 0.146860 0.567595 1.088153
P8    P     P_3+3 0.076460 0.242548 0.358713 0.997358

loop_
_geom_bond_atom_site_label_1
_geom_bond_atom_site_label_2
_ccdc_geom_bond_type
C17   C19   A    
C8    N1    S    
C69   O27   S    
C53   C54   D    
C80   H87   S    
Ba1   O1    S    
C4    H55   S    
C67   H51   S    
C1    O28   S    
C59   P2    S    
O9    P8    S    
C64   H24   S    
C19   C24   A    
C26   O14   D    
C71   H48   S    
C62   H26   S    
O43   P5    S    
C32   H72   S    
C23   O7    S    
C77   O36   S    
C24   C25   A    
C52   O17   S    
C4    H70   S    
C69   H40   S    
Ba1   O20   S    
C65   H31   S    
C22   C24   A    
C32   C33   S    
C35   C38   A    
C65   O24   S    
C73   H57   S    
C66   H36   S    
C36   C37   A    
C61   H34   S    
C73   O31   S    
C1    H89   S    
C55   C57   A    
C52   C61   S    
C81   O10   D    
C29   H13   S    
Ba2   P4    S    
C27   O11   D    
Ba1   Ba2   S    
C60   P3    S    
C63   H67   S    
C22   C27   A    
C11   C38   A    
C44   H17   S    
C17   C35   A    
C66   H35   S    
C53   O37   S    
C63   O24   S    
C9    C13   A    
C25   C42   A    
C76   H75   S    
O18   P6    S    
C68   H37   S    
C6    C7    D    
Ba2   O34   S    
O1    P1    D    
C72   H53   S    
C47   O35   S    
Ba2   O42   S    
C21   C22   A    
C73   H58   S    
C7    C8    S    
C75   H64   S    
C28   H90   S    
O21   P3    D    
C74   O32   S    
C37   C43   A    
C21   O32   S    
Ba1   O15   S    
C68   O26   S    
C78   O30   S    
C71   H49   S    
C56   O29   S    
Ba2   O40   S    
C6    C14   D    
C2    N1    Am   
O34   P4    D    
C63   H32   S    
C34   O27   S    
C27   N2    Am   
O8    P8    D    
C30   P6    S    
O12   P2    S    
C31   P1    S    
C4    C16   S    
C72   H54   S    
C52   H23   S    
C70   H44   S    
C49   C50   S    
C62   O12   S    
C69   H41   S    
C70   H46   S    
O23   P3    S    
C40   H1    S    
C13   C39   A    
C75   H63   S    
Ba1   P1    S    
C75   O33   S    
C49   P5    S    
C77   H77   S    
C4    O23   S    
C18   C37   A    
C16   H85   S    
C1    H28   S    
C55   C58   A    
O19   P2    D    
C23   C34   S    
O6    P7    D    
C44   C49   D    
C10   C81   A    
C70   H43   S    
C58   C59   A    
C54   H19   S    
Ba2   O6    S    
C45   H4    S    
C78   H9    S    
C9    C36   A    
C41   C42   A    
C35   C36   A    
C73   H59   S    
O15   P6    S    
C80   O38   S    
O39   P4    S    
C68   H39   S    
C76   H74   S    
C62   H27   S    
C29   C30   S    
C75   H65   S    
C76   H76   S    
C79   H83   S    
C72   H52   S    
C17   C20   A    
C33   N2    S    
C31   C32   D    
C79   H84   S    
C20   O33   S    
C15   C31   D    
C43   H73   S    
O2    P5    D    
C77   H80   S    
C15   H16   S    
C71   O29   S    
C52   H12   S    
C1    C12   S    
C56   H7    S    
C70   O28   S    
C39   H68   S    
C74   H61   S    
C5    C14   S    
C12   O18   S    
C66   H33   S    
C74   H62   S    
Ba2   O39   S    
O7    P7    S    
C29   C33   D    
O3    P5    S    
C16   H47   S    
Ba2   O4    S    
C64   H22   S    
C46   C60   A    
C25   C26   A    
C18   C41   A    
C6    P4    S    
C50   C51   S    
C3    C5    S    
C58   O36   S    
C76   O35   S    
C80   H88   S    
C57   C60   A    
C79   H82   S    
O4    P1    S    
C18   C19   A    
C11   O31   S    
C61   H56   S    
C40   O22   S    
C28   C40   S    
C61   H45   S    
C64   H25   S    
C67   C78   S    
C40   H21   S    
C9    C10   A    
C50   C53   S    
C26   N2    Am   
C46   H81   S    
C5    P8    S    
C34   H2    S    
C45   O3    S    
C44   C48   S    
C23   O26   S    
Ba2   O5    S    
C54   C57   S    
C66   O25   S    
O40   P8    S    
C34   H3    S    
C62   C63   S    
C2    O13   D    
C12   H78   S    
Ba1   O19   S    
C65   H30   S    
O20   P3    S    
C3    C8    D    
C23   O25   S    
C45   H5    S    
C45   C56   S    
Ba1   O4    S    
C68   H38   S    
C14   H15   S    
C12   H20   S    
C2    C13   A    
C47   C51   S    
O16   P6    D    
Ba1   O5    S    
C38   H66   S    
C3    H14   S    
Ba1   P2    S    
C56   H6    S    
O41   P4    S    
C80   H86   S    
C64   O22   S    
O5    P2    S    
C67   O9    S    
C28   O41   S    
C74   H60   S    
C65   H29   S    
C79   O37   S    
C10   C11   A    
C47   C48   D    
C71   H50   S    
C81   N1    Am   
C46   C59   A    
Ba1   O39   S    
Ba2   O43   S    
C15   C30   S    
C39   C43   A    
C20   C21   A    
C69   H42   S    
C48   P7    S    
Ba1   O42   S    
C77   H79   S    
O17   P1    S    
C78   H10   S    
C67   H8    S    
C7    H11   S    
C16   H18   S    
C41   H69   S    
O42   P7    S    
C42   H71   S    
C28   O38   S    
C72   O30   S    
