data_mof_unit_47299.cif
_audit_creation_date              2012-12-10T18:45:07-0500
_audit_creation_method            fapswitch 2.2
_symmetry_space_group_name_H-M    P1
_symmetry_Int_Tables_number       1
_space_group_crystal_system       triclinic
_cell_length_a                    10.766239
_cell_length_b                    10.026968
_cell_length_c                    10.947379
_cell_angle_alpha                 86.915841
_cell_angle_beta                  95.871084
_cell_angle_gamma                 87.194988
_cell_volume                      1172.13327051

loop_
_atom_site_label
_atom_site_type_symbol
_atom_type_description
_atom_site_fract_x
_atom_site_fract_y
_atom_site_fract_z
_atom_type_partial_charge
C1    C     C_R   0.260611 0.502502 0.508320 0.891177
C2    C     C_R   0.737720 0.499406 0.487154 0.915398
C3    C     C_R   0.927042 0.624705 0.462689 0.180147
C4    C     C_R   0.053074 0.627388 0.501709 0.176883
C5    C     C_R   0.590671 0.061521 0.571325 0.136429
C6    C     C_R   0.410221 0.079949 0.426556 0.156772
C7    C     C_R   0.590176 0.918370 0.571529 0.261421
C8    C     C_R   0.409134 0.936727 0.430499 0.231033
C9    C     C_R   0.505815 0.503764 0.260479 0.894597
C10   C     C_R   0.491665 0.497247 0.739020 0.910864
C11   C     C_R   0.402654 0.736463 0.095766 0.258497
C12   C     C_R   0.331265 0.693264 0.857870 0.209028
C13   C     C_R   0.288272 0.793932 0.039463 -0.172460
C14   C     C_R   0.242461 0.752462 0.925281 -0.187242
C15   C     C_R   0.424489 0.603802 0.923869 0.006293
C16   C     C_R   0.449055 0.617325 0.051086 -0.013461
C17   C     C_R   0.514140 0.512549 0.127380 -0.190703
C18   C     C_R   0.479862 0.492983 0.871392 -0.193514
C19   C     C_R   0.565708 0.401311 0.074141 0.147517
C20   C     C_R   0.536217 0.385347 0.949148 0.129055
C21   C     C_R   0.068567 0.385378 0.513811 -0.226797
C22   C     C_R   0.941579 0.383573 0.486634 -0.224803
C23   C     C_R   0.869245 0.502041 0.471268 -0.110684
C24   C     C_R   0.126526 0.506749 0.514660 -0.115085
H1    H     H_    0.248116 0.886114 0.068991 0.193084
H2    H     H_    0.161118 0.807901 0.877897 0.203847
H3    H     H_    0.121510 0.291317 0.533720 0.200724
H4    H     H_    0.900110 0.290433 0.475035 0.195675
N1    N     N_R   0.500000 0.857200 0.500000 -0.139344
N2    N     N_R   0.500000 0.142810 0.500000 -0.134128
O1    O     O_R   0.316770 0.614620 0.499990 -0.568212
O2    O     O_R   0.683230 0.614620 0.500010 -0.578087
O3    O     O_R   0.316800 0.385290 0.500000 -0.635608
O4    O     O_R   0.683200 0.385290 0.500000 -0.628845
O5    O     O_R   0.500010 0.614690 0.316770 -0.587191
O6    O     O_R   0.499990 0.614690 0.683230 -0.571431
O7    O     O_R   0.500040 0.385360 0.316770 -0.628069
O8    O     O_R   0.499960 0.385360 0.683230 -0.618701
Zn1   Zn    Zn3+2 0.500000 0.653120 0.500000 1.055234
Zn2   Zn    Zn3+2 0.500000 0.346880 0.500000 0.971970
I1    I     I_    0.700651 0.262661 0.178381 -0.259845
I2    I     I_    0.527084 0.185030 0.898041 -0.275822
I3    I     I_    0.537251 0.873389 0.154873 -0.219662
I4    I     I_    0.391293 0.868298 0.770649 -0.261755
I5    I     I_    0.837513 0.802987 0.370020 -0.233352
I6    I     I_    0.103103 0.798391 0.596415 -0.333935
C25   C     C_3   0.693160 0.121610 0.651660 -0.330144
C26   C     C_3   0.820706 0.099790 0.604610 -0.804816
H5    H     H_    0.811238 0.108362 0.502572 0.279497
H6    H     H_    0.884977 0.172048 0.646053 0.249677
H7    H     H_    0.865178 0.000124 0.633422 0.292620
H8    H     H_    0.672602 0.228650 0.660246 0.266947
H9    H     H_    0.699587 0.076300 0.746505 0.239898
C27   C     C_3   0.320891 0.159523 0.328547 -0.336603
C28   C     C_3   0.180997 0.152225 0.342443 -0.802313
H10   H     H_    0.164926 0.107296 0.434012 0.282341
H11   H     H_    0.133951 0.253420 0.326879 0.250709
H12   H     H_    0.134388 0.093807 0.269520 0.281893
H13   H     H_    0.337394 0.265004 0.325869 0.268132
H14   H     H_    0.339546 0.126514 0.236506 0.215454
I7    I     I_    0.717359 0.797613 0.704003 -0.247192
I8    I     I_    0.263216 0.842736 0.328923 -0.323010

loop_
_geom_bond_atom_site_label_1
_geom_bond_atom_site_label_2
_ccdc_geom_bond_type
C15   C18   A    
C20   I2    S    
C28   H10   S    
C11   I3    S    
C25   H8    S    
C7    N1    A    
C13   C14   A    
C11   C13   A    
C11   C16   A    
O5    Zn1   S    
C19   C20   A    
O1    Zn1   S    
C12   C15   A    
C10   O8    A    
C25   H9    S    
N1    Zn1   S    
C26   H6    S    
C21   H3    S    
C1    O3    A    
C12   I4    S    
C4    I6    S    
C21   C22   A    
C14   H2    S    
O8    Zn2   S    
C5    C25   S    
C13   H1    S    
C26   H7    S    
C10   C18   S    
C6    C8    A    
C8    N1    A    
C9    C17   S    
C26   H5    S    
C22   H4    S    
C12   C14   A    
C6    C27   S    
O7    Zn2   S    
C18   C20   A    
C27   H13   S    
C28   H11   S    
C4    C24   A    
O4    Zn2   S    
O2    Zn1   S    
O3    Zn2   S    
C21   C24   A    
N2    Zn2   S    
C15   C16   A    
C17   C19   A    
C19   I1    S    
C1    O1    A    
C1    C24   S    
C2    O2    A    
C5    N2    A    
C28   H12   S    
C2    C23   S    
C5    C7    A    
C22   C23   A    
C7    I7    S    
C9    O5    A    
C27   H14   S    
C6    N2    A    
C2    O4    A    
C27   C28   S    
C3    C23   A    
C3    I5    S    
O6    Zn1   S    
C3    C4    A    
C25   C26   S    
C8    I8    S    
C16   C17   A    
C10   O6    A    
C9    O7    A    
