data_mof_unit_40568.cif
_audit_creation_date              2012-12-11T14:21:01-0500
_audit_creation_method            fapswitch 2.2
_symmetry_space_group_name_H-M    P1
_symmetry_Int_Tables_number       1
_space_group_crystal_system       triclinic
_cell_length_a                    11.517516
_cell_length_b                    11.51795
_cell_length_c                    19.534581
_cell_angle_alpha                 90.642072
_cell_angle_beta                  90.161487
_cell_angle_gamma                 59.871656
_cell_volume                      2241.17655601

loop_
_atom_site_label
_atom_site_type_symbol
_atom_type_description
_atom_site_fract_x
_atom_site_fract_y
_atom_site_fract_z
_atom_type_partial_charge
C1    C     C_R   0.640674 0.117713 0.599174 0.543517
C2    C     C_1   0.652994 0.150133 0.668584 0.002821
C3    C     C_R   0.661163 0.677470 0.191538 -0.007366
C4    C     C_R   0.613853 0.743516 0.597990 0.535705
C5    C     C_R   0.535054 0.726239 0.222339 0.024771
C6    C     C_R   0.532155 0.699771 0.291704 0.036134
C7    C     C_R   0.764621 0.647883 0.302757 -0.148493
C8    C     C_R   0.775717 0.637631 0.232284 -0.136931
C9    C     C_R   0.415191 0.782565 0.183769 -0.082313
C10   C     C_R   0.300476 0.788851 0.210504 -0.121910
C11   C     C_R   0.303228 0.742366 0.276041 -0.109577
C12   C     C_1   0.651578 0.683849 0.664194 0.002416
C13   C     C_R   0.418080 0.696121 0.316137 -0.063022
C14   C     C_R   0.642940 0.680257 0.333411 -0.003180
C15   C     C_R   0.148798 0.191119 0.191201 -0.041781
C16   C     C_R   0.297596 0.120470 0.605393 0.554323
C17   C     C_R   0.201926 0.263551 0.223051 0.010273
C18   C     C_R   0.190884 0.278266 0.294318 -0.007572
C19   C     C_R   0.135425 0.099657 0.301374 0.213888
C20   C     C_R   0.114850 0.110461 0.230592 -0.142906
C21   C     C_R   0.253048 0.332491 0.185390 -0.075182
C22   C     C_R   0.270708 0.431487 0.216676 -0.122920
C23   C     C_1   0.146133 0.188631 0.863068 0.000840
C24   C     C_R   0.237991 0.462212 0.285320 -0.139252
C25   C     C_R   0.192958 0.390950 0.323057 -0.081452
C26   C     C_R   0.178818 0.179763 0.333496 0.040581
C27   C     C_R   0.663172 0.182066 0.190761 -0.009189
C28   C     C_R   0.646450 0.110632 0.401703 0.551064
C29   C     C_R   0.734094 0.050049 0.215639 0.027842
C30   C     C_R   0.758021 0.031432 0.286352 0.037204
C31   C     C_R   0.587920 0.266844 0.305570 -0.144534
C32   C     C_R   0.589999 0.289726 0.236125 -0.145895
C33   C     C_R   0.795033 0.937818 0.170712 -0.080059
C34   C     C_1   0.226449 0.145669 0.735476 -0.030317
C35   C     C_R   0.899506 0.815964 0.193049 -0.121315
C36   C     C_R   0.938680 0.802195 0.261021 -0.157789
C37   C     C_R   0.868838 0.907382 0.307467 -0.097168
C38   C     C_R   0.671822 0.138702 0.331867 0.007718
C39   C     C_R   0.084281 0.229691 0.929253 0.536499
C40   C     C_R   0.616730 0.735827 0.402764 0.539497
C41   C     C_R   0.708924 0.546431 0.922541 0.558228
C42   C     C_R   0.707953 0.206396 0.930212 0.535851
C43   C     C_R   0.086408 0.233392 0.124178 0.538738
C44   C     C_R   0.681505 0.616093 0.124232 0.542238
C45   C     C_1   0.186980 0.164722 0.804937 -0.029010
C46   C     C_R   0.704814 0.209604 0.125287 0.535109
C47   C     C_R   0.240232 0.144351 0.401981 0.592596
C48   C     C_1   0.698388 0.581667 0.851767 0.001410
C49   C     C_1   0.672784 0.645432 0.722409 -0.028601
C50   C     C_1   0.688752 0.609521 0.791994 -0.031336
C51   C     C_1   0.257802 0.133571 0.675883 0.002856
C52   C     C_1   0.678139 0.191064 0.860842 0.001926
C53   C     C_1   0.658319 0.167604 0.729028 -0.031970
C54   C     C_1   0.665241 0.180971 0.800356 -0.032010
Cr1   Cr    Cr6+3 0.404720 0.198220 0.499960 1.016833
Cr2   Cr    Cr6+3 0.698290 0.897110 0.500380 1.024305
Cr3   Cr    Cr6+3 0.396970 0.904720 0.499610 1.057637
Cr4   Cr    Cr6+3 0.926180 0.151990 0.028120 1.015813
Cr5   Cr    Cr6+3 0.921330 0.451820 0.027470 1.016596
Cr6   Cr    Cr6+3 0.626260 0.446870 0.028710 1.016433
H1    H     H_    0.851053 0.628617 0.333307 0.127124
H2    H     H_    0.910991 0.891214 0.358116 0.157930
H3    H     H_    0.412553 0.814836 0.131619 0.124628
H4    H     H_    0.875085 0.593204 0.209990 0.151039
H5    H     H_    0.210909 0.825649 0.179628 0.109133
H6    H     H_    0.214872 0.745394 0.296493 0.104668
H7    H     H_    0.416986 0.654931 0.365432 0.133155
H8    H     H_    0.276592 0.312118 0.131419 0.127193
H9    H     H_    0.067497 0.059457 0.206822 0.135880
H10   H     H_    0.063050 0.980745 0.310847 0.314546
H11   H     H_    0.305524 0.487153 0.187204 0.113764
H12   H     H_    0.247846 0.540704 0.310079 0.091250
H13   H     H_    0.157360 0.427847 0.374284 0.138535
H14   H     H_    0.523780 0.350157 0.339154 0.126963
H15   H     H_    0.767355 0.946504 0.117183 0.125233
H16   H     H_    0.538455 0.392273 0.218344 0.142709
H17   H     H_    0.951775 0.733042 0.157325 0.117048
H18   H     H_    0.021965 0.708906 0.278260 0.107889
O1    O     O_R   0.267740 0.231960 0.575440 -0.503115
O2    O     O_R   0.596130 0.579390 0.952730 -0.504517
O3    O     O_R   0.639060 0.321160 0.958670 -0.511240
O4    O     O_R   0.527280 0.186640 0.570530 -0.510858
O5    O     O_R   0.821240 0.124200 0.104370 -0.519952
O6    O     O_R   0.036890 0.167040 0.097840 -0.503214
O7    O     O_R   0.056180 0.349610 0.102880 -0.519693
O8    O     O_R   0.797660 0.564870 0.097950 -0.502508
O9    O     O_R   0.595880 0.584250 0.104270 -0.514490
O10   O     O_R   0.638830 0.325670 0.099150 -0.501375
O11   O     O_3   0.824590 0.350230 0.028100 -0.262996
O12   O     O_R   0.685970 0.784660 0.430010 -0.497243
O13   O     O_R   0.728090 0.003450 0.576380 -0.499389
O14   O     O_R   0.682970 0.789190 0.570490 -0.496319
O15   O     O_R   0.499290 0.771880 0.575530 -0.514340
O16   O     O_R   0.285330 0.030870 0.569730 -0.486969
O17   O     O_R   0.270980 0.227080 0.423890 -0.547197
O18   O     O_R   0.530280 0.182120 0.430050 -0.496659
O19   O     O_R   0.731330 0.998570 0.424830 -0.525098
O20   O     O_3   0.105411 0.019154 0.340538 -0.693066
O21   O     O_R   0.502530 0.767000 0.423990 -0.523290
O22   O     O_R   0.288330 0.026350 0.429250 -0.431407
O23   O     O_3   0.499990 0.000020 0.499980 -0.276092
O24   O     O_R   0.821500 0.119340 0.952830 -0.505839
O25   O     O_R   0.037130 0.162530 0.957360 -0.495116
O26   O     O_R   0.056440 0.344740 0.951340 -0.514095
O27   O     O_R   0.797900 0.560360 0.957470 -0.491223

loop_
_geom_bond_atom_site_label_1
_geom_bond_atom_site_label_2
_ccdc_geom_bond_type
C28   O19   A    
C23   C45   T    
C27   C29   A    
C19   C20   A    
C18   C26   A    
C16   C51   S    
C41   O2    A    
C12   C49   T    
Cr6   O10   S    
C7    C8    A    
C53   C54   S    
C42   O3    A    
C34   C51   T    
Cr5   O27   S    
C41   O27   A    
Cr5   O26   S    
C36   C37   A    
Cr2   O23   S    
C5    C6    A    
Cr3   O21   S    
C29   C33   A    
C30   C38   A    
C1    C2    S    
Cr5   O11   S    
C19   C26   A    
C7    H1    S    
C33   H15   S    
Cr2   O13   S    
C35   C36   A    
Cr4   O24   S    
C4    C12   S    
C44   O9    A    
C9    C10   A    
C11   H6    S    
Cr2   O12   S    
C1    O13   A    
Cr3   O15   S    
C21   C22   A    
C43   O6    A    
C18   C25   A    
Cr2   O19   S    
C40   O21   A    
C44   O8    A    
C42   O24   A    
C19   O20   S    
C52   C54   T    
C37   H2    S    
C46   O10   A    
C7    C14   A    
C15   C20   A    
C3    C44   S    
C43   O7    A    
C39   O26   A    
C24   C25   A    
Cr1   O17   S    
C3    C8    A    
C31   H14   S    
C1    O4    A    
Cr6   O11   S    
Cr3   O22   S    
C35   H17   S    
C17   C21   A    
C47   O22   A    
C46   O5    A    
C30   C37   A    
Cr6   O9    S    
Cr5   O7    S    
C5    C9    A    
C29   C30   A    
Cr4   O6    S    
C6    C14   A    
Cr1   O1    S    
Cr6   O3    S    
C31   C32   A    
C28   C38   S    
C17   C18   A    
C34   C45   S    
Cr1   O4    S    
C26   C47   S    
C8    H4    S    
C27   C46   S    
Cr3   O16   S    
C21   H8    S    
C22   C24   A    
C20   H9    S    
C22   H11   S    
C24   H12   S    
C13   H7    S    
C10   H5    S    
C15   C17   A    
Cr6   O2    S    
C27   C32   A    
C9    H3    S    
Cr1   O18   S    
C3    C5    A    
C2    C53   T    
C32   H16   S    
C39   O25   A    
Cr3   O23   S    
Cr1   O23   S    
C16   O16   A    
C31   C38   A    
C28   O18   A    
C16   O1    A    
Cr5   O8    S    
C15   C43   S    
C36   H18   S    
Cr4   O5    S    
C6    C13   A    
C11   C13   A    
C23   C39   S    
C48   C50   T    
C33   C35   A    
C41   C48   S    
C25   H13   S    
Cr4   O11   S    
C10   C11   A    
C14   C40   S    
C4    O15   A    
Cr2   O14   S    
C49   C50   S    
C47   O17   A    
Cr4   O25   S    
C40   O12   A    
H10   O20   S    
C42   C52   S    
C4    O14   A    
