data_mof_unit_25969.cif
_audit_creation_date              2012-12-10T19:53:05-0500
_audit_creation_method            fapswitch 2.2
_symmetry_space_group_name_H-M    P1
_symmetry_Int_Tables_number       1
_space_group_crystal_system       triclinic
_cell_length_a                    14.999126
_cell_length_b                    14.138657
_cell_length_c                    15.707928
_cell_angle_alpha                 90.193404
_cell_angle_beta                  90.302608
_cell_angle_gamma                 89.972082
_cell_volume                      3331.07518229

loop_
_atom_site_label
_atom_site_type_symbol
_atom_type_description
_atom_site_fract_x
_atom_site_fract_y
_atom_site_fract_z
_atom_type_partial_charge
C1    C     C_R   0.328356 0.500011 0.499730 0.933563
C2    C     C_3   0.607930 0.490192 0.950629 -0.534574
C3    C     C_3   0.610312 0.489670 0.051449 0.811657
C4    C     C_1   0.509282 0.500695 0.825626 0.115426
C5    C     C_1   0.506884 0.498855 0.174060 0.286704
C6    C     C_1   0.503596 0.499360 0.249330 -0.112313
C7    C     C_R   0.096699 0.530194 0.424790 0.509202
C8    C     C_R   0.096480 0.467855 0.570375 0.518510
C9    C     C_R   0.188912 0.533322 0.427210 -0.305030
C10   C     C_R   0.188696 0.465840 0.569677 -0.329876
C11   C     C_R   0.233788 0.499922 0.498916 -0.152880
C12   C     C_R   0.050609 0.498763 0.497195 0.020429
C13   C     C_R   0.908931 0.414226 0.509177 0.533898
C14   C     C_R   0.908995 0.583879 0.484969 0.533432
C15   C     C_R   0.500353 0.499839 0.338131 0.870223
C16   C     C_R   0.816858 0.414688 0.514595 0.295215
C17   C     C_R   0.816754 0.584109 0.481564 0.292129
C18   C     C_R   0.769777 0.499637 0.498765 -0.469649
C19   C     C_R   0.954524 0.498913 0.496787 -0.288673
C20   C     C_R   0.541568 0.104697 0.434412 0.366669
C21   C     C_R   0.460126 0.895760 0.434378 0.392756
C22   C     C_R   0.538667 0.204247 0.434870 -0.087693
C23   C     C_R   0.461227 0.796038 0.434811 -0.154755
C24   C     C_R   0.462002 0.205022 0.565845 -0.198001
C25   C     C_R   0.538744 0.794866 0.566124 -0.122411
C26   C     C_R   0.460522 0.104792 0.567606 0.392453
C27   C     C_R   0.541203 0.894519 0.568114 0.371176
C28   C     C_R   0.502072 0.053406 0.501522 -0.039798
C29   C     C_R   0.501607 0.946725 0.501236 -0.042138
C30   C     C_R   0.672816 0.499942 0.499802 0.984068
C31   C     C_R   0.501106 0.500149 0.661800 0.877760
C32   C     C_3   0.468158 0.593191 0.049033 1.015614
C33   C     C_3   0.453417 0.414238 0.047435 0.955143
C34   C     C_3   0.452892 0.416024 0.948552 0.125386
C35   C     C_3   0.469829 0.594662 0.950301 0.145547
C36   C     C_1   0.505731 0.500511 0.750425 -0.215353
C37   C     C_3   0.510393 0.498616 0.082336 -0.307992
C38   C     C_3   0.510592 0.500276 0.917181 -0.132216
H1    H     H_    0.398975 0.597763 0.927477 0.066886
H2    H     H_    0.383058 0.430074 0.926328 0.084471
H3    H     H_    0.568242 0.243127 0.382986 0.179559
H4    H     H_    0.430267 0.757349 0.383013 0.186115
H5    H     H_    0.433218 0.245267 0.617458 0.157710
H6    H     H_    0.568148 0.755226 0.617943 0.167643
H7    H     H_    0.646749 0.551629 0.926917 0.229166
H8    H     H_    0.640141 0.429532 0.918969 0.190404
H9    H     H_    0.225384 0.559583 0.372770 0.179676
H10   H     H_    0.224967 0.439977 0.624781 0.157685
N1    N     N_R   0.499980 0.252470 0.500000 -0.130129
N2    N     N_R   0.499980 0.747530 0.500000 -0.135938
O1    O     O_R   0.369070 0.579480 0.500010 -0.612897
O2    O     O_R   0.369070 0.420520 0.500010 -0.608403
O3    O     O_R   0.500010 0.579510 0.377140 -0.614657
O4    O     O_R   0.500010 0.420490 0.377140 -0.609157
O5    O     O_R   0.630940 0.579480 0.499990 -0.573011
O6    O     O_R   0.630940 0.420520 0.499990 -0.572544
O7    O     O_R   0.500000 0.579440 0.622860 -0.623350
O8    O     O_R   0.500000 0.420560 0.622860 -0.621333
Zn1   Zn    Zn3+2 0.500010 0.606140 0.500000 0.963443
Zn2   Zn    Zn3+2 0.500010 0.393860 0.500000 0.968406
O9    O     O_3   0.773441 0.330793 0.532177 -0.546863
C39   C     C_3   0.768877 0.320470 0.621467 0.178456
H11   H     H_    0.734599 0.382029 0.651519 0.107731
H12   H     H_    0.836837 0.312935 0.649603 0.175129
C40   C     C_3   0.715984 0.231891 0.642079 -0.806881
H13   H     H_    0.748871 0.168974 0.613690 0.252327
H14   H     H_    0.712341 0.222864 0.712164 0.201744
H15   H     H_    0.647304 0.237934 0.616124 0.265020
O10   O     O_3   0.773226 0.668364 0.465213 -0.547833
C41   C     C_3   0.765182 0.678903 0.376111 0.165821
H16   H     H_    0.832022 0.683881 0.345829 0.171383
H17   H     H_    0.727589 0.618699 0.347216 0.120176
C42   C     C_3   0.714456 0.769519 0.357215 -0.776710
H18   H     H_    0.707316 0.778627 0.287359 0.212566
H19   H     H_    0.647118 0.766494 0.385923 0.266200
H20   H     H_    0.751181 0.830982 0.384081 0.247496
O11   O     O_3   0.578524 0.058580 0.365462 -0.549690
C43   C     C_3   0.670808 0.047277 0.380051 0.084741
H21   H     H_    0.682241 0.989172 0.426346 0.124299
H22   H     H_    0.702881 0.113355 0.404392 0.150715
C44   C     C_3   0.715573 0.021058 0.296604 -0.757852
H23   H     H_    0.708587 0.080028 0.250499 0.255956
H24   H     H_    0.787542 0.007122 0.307814 0.206733
H25   H     H_    0.684159 0.956671 0.269142 0.269545
O12   O     O_3   0.420006 0.942909 0.367536 -0.549017
C45   C     C_3   0.328756 0.954565 0.386347 0.087970
H26   H     H_    0.294223 0.884836 0.386776 0.149743
H27   H     H_    0.319239 0.990279 0.449064 0.128468
C46   C     C_3   0.285856 0.016038 0.318275 -0.723146
H28   H     H_    0.292818 0.981964 0.254843 0.267554
H29   H     H_    0.213905 0.025597 0.332230 0.202830
H30   H     H_    0.318565 0.086503 0.317168 0.261603
O13   O     O_3   0.423077 0.055767 0.634899 -0.567020
C47   C     C_3   0.333662 0.083694 0.647541 0.081985
H31   H     H_    0.297449 0.095290 0.586193 0.134000
H32   H     H_    0.331250 0.149369 0.686575 0.142941
C48   C     C_3   0.285415 0.005997 0.695591 -0.801268
H33   H     H_    0.318952 0.992942 0.757661 0.254149
H34   H     H_    0.215302 0.027431 0.707317 0.215731
H35   H     H_    0.285747 0.939621 0.657543 0.251344
O14   O     O_3   0.576405 0.939768 0.638696 -0.568195
C49   C     C_3   0.669205 0.949650 0.628077 0.087340
H36   H     H_    0.683186 0.004360 0.579247 0.127244
H37   H     H_    0.701535 0.881702 0.609205 0.151875
C50   C     C_3   0.710344 0.981499 0.712071 -0.796881
H38   H     H_    0.701073 0.925915 0.761022 0.252849
H39   H     H_    0.782779 0.994477 0.703749 0.213462
H40   H     H_    0.677973 0.047726 0.734225 0.264035
F1    F     F_    0.380479 0.601011 0.076077 -0.646041
F2    F     F_    0.366237 0.421349 0.075991 -0.642066
F3    F     F_    0.485921 0.328866 0.077632 -0.637339
F4    F     F_    0.513032 0.671099 0.082060 -0.572464
O15   O     O_3   0.486987 0.330061 0.914536 -0.588444
C51   C     C_3   0.417302 0.267482 0.892234 0.154141
H41   H     H_    0.375492 0.298031 0.840363 0.116931
H42   H     H_    0.374926 0.251858 0.948458 0.191991
C52   C     C_3   0.457194 0.175269 0.859883 -0.777168
H43   H     H_    0.500305 0.143342 0.909808 0.264332
H44   H     H_    0.403033 0.124824 0.843479 0.211273
H45   H     H_    0.497673 0.188609 0.802111 0.259026
O16   O     O_3   0.521856 0.672413 0.921473 -0.541001
C53   C     C_3   0.470664 0.734185 0.870294 0.139229
H46   H     H_    0.417029 0.767657 0.908769 0.166239
H47   H     H_    0.440543 0.695744 0.815219 0.122824
C54   C     C_3   0.530602 0.811546 0.835452 -0.749278
H48   H     H_    0.584014 0.779802 0.795809 0.247094
H49   H     H_    0.490775 0.860761 0.795480 0.237384
H50   H     H_    0.561486 0.851978 0.888681 0.263528
O17   O     O_3   0.654792 0.573443 0.079736 -0.560561
C55   C     C_3   0.748858 0.566169 0.076970 0.170741
H51   H     H_    0.772419 0.543471 0.013204 0.121546
H52   H     H_    0.773581 0.516209 0.126270 0.177117
C56   C     C_3   0.789146 0.662565 0.096253 -0.818222
H53   H     H_    0.768967 0.686419 0.160759 0.252652
H54   H     H_    0.863016 0.658088 0.093983 0.204338
H55   H     H_    0.765904 0.714956 0.048495 0.277044
O18   O     O_3   0.650300 0.410091 0.094577 -0.631870
C57   C     C_3   0.672826 0.328099 0.047336 0.169467
H56   H     H_    0.625470 0.309840 0.995956 0.215139
H57   H     H_    0.668568 0.267457 0.091867 0.203434
C58   C     C_3   0.769015 0.331682 0.016241 -0.984406
H58   H     H_    0.814700 0.347162 0.070380 0.268931
H59   H     H_    0.787453 0.262129 0.988399 0.243753
H60   H     H_    0.777786 0.386294 0.966641 0.240262
O19   O     O_3   0.051657 0.563209 0.353820 -0.566668
C59   C     C_3   0.035366 0.486549 0.298098 0.102422
H61   H     H_    0.003222 0.426030 0.331384 0.145599
H62   H     H_    0.098894 0.462204 0.268915 0.165985
C60   C     C_3   0.972512 0.518676 0.227535 -0.810784
H63   H     H_    0.002718 0.578168 0.191841 0.269953
H64   H     H_    0.959498 0.459216 0.182803 0.206885
H65   H     H_    0.908177 0.542319 0.255172 0.234741
O20   O     O_3   0.051165 0.435299 0.640857 -0.571871
C61   C     C_3   0.037952 0.511689 0.697454 0.079369
H66   H     H_    0.005622 0.572952 0.665062 0.150931
H67   H     H_    0.102714 0.534703 0.725645 0.143626
C62   C     C_3   0.976998 0.480047 0.768988 -0.811907
H68   H     H_    0.007483 0.419667 0.803597 0.264218
H69   H     H_    0.966471 0.539336 0.814385 0.209538
H70   H     H_    0.911428 0.457871 0.742448 0.236105
F5    F     F_    0.953912 0.331235 0.517410 -0.621380
F6    F     F_    0.954094 0.666609 0.476111 -0.619477

loop_
_geom_bond_atom_site_label_1
_geom_bond_atom_site_label_2
_ccdc_geom_bond_type
C4    C36   T    
C17   O10   S    
O13   C47   S    
C5    C37   S    
C27   C29   A    
C52   H43   S    
C42   H18   S    
C50   H38   S    
C35   H1    S    
C1    C11   S    
C48   H35   S    
C52   H44   S    
C48   H33   S    
O3    Zn1   S    
O4    Zn2   S    
O11   C43   S    
C2    H8    S    
C34   O15   S    
C50   H39   S    
O14   C49   S    
N1    Zn2   S    
C20   O11   S    
C34   H2    S    
N2    Zn1   S    
C15   O3    A    
C31   O8    A    
C28   C29   S    
C44   H23   S    
C24   C26   A    
O17   C55   S    
O5    Zn1   S    
O10   C41   S    
C60   H64   S    
C5    C6    T    
C49   H37   S    
C43   H22   S    
O7    Zn1   S    
C22   H3    S    
O8    Zn2   S    
C49   C50   S    
C17   C18   A    
C25   N2    A    
C39   H12   S    
O2    Zn2   S    
C44   H24   S    
C6    C15   S    
O15   C51   S    
C62   H68   S    
C40   H14   S    
C54   H50   S    
C41   H16   S    
C33   F3    S    
C46   H29   S    
C61   H67   S    
C26   O13   S    
C62   H69   S    
C34   C38   S    
C42   H19   S    
C14   C17   A    
C47   H31   S    
C25   H6    S    
C48   H34   S    
O19   C59   S    
C59   H62   S    
C53   H46   S    
C2    H7    S    
C7    C12   A    
C50   H40   S    
C21   O12   S    
C32   F1    S    
C13   C19   A    
C49   H36   S    
C32   C35   S    
C35   O16   S    
C35   C38   S    
C61   C62   S    
C10   C11   A    
C52   H45   S    
C43   H21   S    
C23   N2    A    
C20   C28   A    
C47   C48   S    
O12   C45   S    
C30   O6    A    
C45   C46   S    
C33   C37   S    
O6    Zn2   S    
C14   F6    S    
C55   H52   S    
C15   O4    A    
C39   H11   S    
C56   H55   S    
C59   C60   S    
C1    O1    A    
C2    C38   S    
C23   H4    S    
C8    C12   A    
C40   H15   S    
C41   C42   S    
C33   C34   S    
O16   C53   S    
C32   C37   S    
C46   H30   S    
C47   H32   S    
C8    O20   S    
C9    C11   A    
C61   H66   S    
C57   H57   S    
C22   N1    A    
C3    O18   S    
C16   C18   A    
C20   C22   A    
C9    H9    S    
C62   H70   S    
C21   C23   A    
C10   H10   S    
C54   H48   S    
C42   H20   S    
C60   H65   S    
C55   C56   S    
O1    Zn1   S    
C16   O9    S    
C53   H47   S    
C44   H25   S    
C45   H26   S    
C54   H49   S    
C59   H61   S    
O18   C57   S    
C24   N1    A    
C7    C9    A    
C32   F4    S    
C39   C40   S    
C3    O17   S    
C14   C19   A    
C4    C38   S    
C57   C58   S    
C51   H42   S    
C13   F5    S    
C58   H60   S    
C25   C27   A    
C30   O5    A    
C26   C28   A    
C31   O7    A    
C53   C54   S    
C58   H59   S    
C2    C3    S    
C46   H28   S    
C60   H63   S    
C43   C44   S    
C56   H53   S    
C21   C29   A    
C12   C19   S    
C27   O14   S    
C55   H51   S    
C45   H27   S    
C51   H41   S    
O9    C39   S    
C1    O2    A    
C51   C52   S    
C57   H56   S    
C18   C30   S    
C3    C37   S    
C8    C10   A    
C40   H13   S    
C13   C16   A    
C56   H54   S    
C24   H5    S    
C31   C36   S    
C41   H17   S    
C33   F2    S    
O20   C61   S    
C58   H58   S    
C7    O19   S    
