data_mof_unit_20056.cif
_audit_creation_date              2012-12-10T18:13:30-0500
_audit_creation_method            fapswitch 2.2
_symmetry_space_group_name_H-M    P1
_symmetry_Int_Tables_number       1
_space_group_crystal_system       triclinic
_cell_length_a                    18.296816
_cell_length_b                    18.33986
_cell_length_c                    25.954761
_cell_angle_alpha                 89.943573
_cell_angle_beta                  90.118076
_cell_angle_gamma                 89.645768
_cell_volume                      8709.21741593

loop_
_atom_site_label
_atom_site_type_symbol
_atom_type_description
_atom_site_fract_x
_atom_site_fract_y
_atom_site_fract_z
_atom_type_partial_charge
C1    C     C_R   0.860244 0.140041 0.249732 0.500260
C2    C     C_R   0.825587 0.268810 0.255556 -0.142021
C3    C     C_R   0.235174 0.314875 0.279882 -0.061501
C4    C     C_3   0.950518 0.201228 0.566699 0.000472
C5    C     C_3   0.935759 0.276849 0.588432 -0.366679
C6    C     C_3   0.961809 0.200512 0.407873 0.003663
C7    C     C_3   0.924635 0.273585 0.397916 -0.401909
C8    C     C_3   0.151443 0.136226 0.581121 0.015138
C9    C     C_3   0.224937 0.099608 0.591096 -0.401851
C10   C     C_3   0.141452 0.188893 0.437303 0.039873
C11   C     C_3   0.214462 0.170495 0.412506 -0.384029
C12   C     C_3   0.364800 0.635060 0.091235 0.006115
C13   C     C_R   0.210786 0.233358 0.704532 -0.146732
C14   C     C_3   0.289027 0.663672 0.104649 -0.385476
C15   C     C_3   0.384414 0.723698 0.930834 0.040860
C16   C     C_3   0.309839 0.729055 0.905033 -0.373698
C17   C     C_3   0.490140 0.758251 0.053698 0.005441
C18   C     C_3   0.546853 0.799760 0.084622 -0.388677
C19   C     C_3   0.597419 0.657492 0.956983 -0.012511
C20   C     C_3   0.652875 0.715643 0.943168 -0.377976
C21   C     C_3   0.295620 0.904768 0.240527 -0.235099
C22   C     C_3   0.377858 0.920774 0.244998 -0.322136
C23   C     C_3   0.392251 0.002732 0.243650 -0.452520
C24   C     C_R   0.184906 0.258010 0.280190 -0.144028
C25   C     C_3   0.299004 0.902739 0.750604 -0.228497
C26   C     C_3   0.311961 0.933756 0.804909 -0.265319
C27   C     C_3   0.383883 0.907429 0.828757 -0.457932
C28   C     C_3   0.700181 0.896299 0.214182 -0.234858
C29   C     C_3   0.700995 0.904310 0.155294 -0.278524
C30   C     C_3   0.647081 0.963139 0.137582 -0.478437
C31   C     C_3   0.717904 0.885648 0.809453 -0.233320
C32   C     C_3   0.641724 0.892908 0.834150 -0.323793
C33   C     C_3   0.633393 0.965783 0.862005 -0.460322
C34   C     C_3   0.795634 0.404922 0.744221 -0.236296
C35   C     C_R   0.325649 0.769083 0.244780 -0.141209
C36   C     C_3   0.877455 0.420550 0.751787 -0.320356
C37   C     C_3   0.891742 0.502482 0.753548 -0.452562
C38   C     C_3   0.795710 0.404215 0.262303 -0.235267
C39   C     C_3   0.878128 0.420068 0.260082 -0.322014
C40   C     C_3   0.892747 0.501776 0.263965 -0.453259
C41   C     C_3   0.291299 0.309003 0.648873 -0.246759
C42   C     C_3   0.365131 0.274598 0.634108 -0.284106
C43   C     C_3   0.384431 0.289464 0.577928 -0.452864
C44   C     C_3   0.219700 0.383485 0.311985 -0.231480
C45   C     C_3   0.144316 0.389387 0.338023 -0.325000
C46   C     C_R   0.325562 0.769231 0.751677 -0.148396
C47   C     C_3   0.134987 0.462752 0.365078 -0.458834
C48   C     C_3   0.089484 0.652375 0.290551 -0.030820
C49   C     C_3   0.010640 0.655492 0.308134 -0.324543
C50   C     C_3   0.086735 0.649967 0.718555 -0.030372
C51   C     C_3   0.007406 0.653217 0.701982 -0.326149
C52   C     C_3   0.840195 0.763276 0.368413 -0.000193
C53   C     C_3   0.899309 0.749399 0.408554 -0.384162
C54   C     C_3   0.841388 0.751485 0.632005 -0.006849
C55   C     C_3   0.907119 0.755045 0.596387 -0.379737
C56   C     C_3   0.585635 0.163246 0.794922 -0.019203
C57   C     C_R   0.679070 0.764644 0.228118 -0.145955
C58   C     C_3   0.505137 0.171627 0.808524 -0.332090
C59   C     C_3   0.589407 0.155571 0.205890 -0.031015
C60   C     C_3   0.510287 0.160369 0.188781 -0.324506
C61   C     C_3   0.282861 0.320832 0.873207 -0.010356
C62   C     C_3   0.327595 0.341056 0.920507 -0.361605
C63   C     C_3   0.333848 0.249356 0.128986 -0.015782
C64   C     C_3   0.395322 0.268410 0.092067 -0.376204
C65   C     C_3   0.123550 0.083088 0.054992 -0.239050
C66   C     C_3   0.091413 0.155844 0.074296 -0.285916
C67   C     C_3   0.150486 0.205767 0.095299 -0.465840
C68   C     C_R   0.682921 0.759919 0.778055 -0.141431
C69   C     C_3   0.144613 0.009954 0.952409 -0.223398
C70   C     C_3   0.176699 0.077707 0.925334 -0.289502
C71   C     C_3   0.259843 0.072281 0.921567 -0.467285
C72   C     C_3   0.856042 0.032991 0.050336 -0.226148
C73   C     C_3   0.842261 0.106265 0.077834 -0.270390
C74   C     C_3   0.770014 0.106149 0.106791 -0.446080
C75   C     C_3   0.875969 0.085607 0.942044 -0.235752
C76   C     C_3   0.905764 0.153555 0.914391 -0.285007
C77   C     C_3   0.843928 0.199494 0.891262 -0.449750
C78   C     C_3   0.622106 0.584109 0.555525 -0.235339
C79   C     C_R   0.804513 0.196313 0.750692 -0.018283
C80   C     C_3   0.589896 0.655871 0.576525 -0.284336
C81   C     C_3   0.649081 0.705005 0.598335 -0.463745
C82   C     C_3   0.643432 0.509657 0.452909 -0.223715
C83   C     C_3   0.677297 0.574492 0.423591 -0.273305
C84   C     C_3   0.752373 0.553628 0.402481 -0.448658
C85   C     C_3   0.354659 0.517665 0.549485 -0.228921
C86   C     C_3   0.329280 0.586843 0.578306 -0.264227
C87   C     C_3   0.259655 0.572629 0.608902 -0.433709
C88   C     C_3   0.370852 0.577577 0.442924 -0.232905
C89   C     C_3   0.395027 0.648116 0.415801 -0.283528
C90   C     C_R   0.805117 0.196467 0.249055 -0.013397
C91   C     C_3   0.329742 0.688925 0.392601 -0.445785
C92   C     C_R   0.195671 0.196203 0.750108 -0.016429
C93   C     C_R   0.859926 0.139874 0.750008 0.499577
C94   C     C_R   0.195212 0.196179 0.249909 -0.027015
C95   C     C_R   0.305226 0.696601 0.250661 -0.021451
C96   C     C_R   0.305021 0.696384 0.749400 -0.020329
C97   C     C_R   0.694115 0.697770 0.251661 -0.022326
C98   C     C_R   0.694636 0.696685 0.749466 -0.024615
C99   C     C_R   0.731361 0.177380 0.756221 -0.143558
C100  C     C_R   0.732411 0.177443 0.242643 -0.144813
C101  C     C_R   0.235111 0.211053 0.794777 -0.135472
C102  C     C_R   0.255785 0.189920 0.217985 -0.144119
C103  C     C_R   0.232524 0.677403 0.256524 -0.151545
C104  C     C_R   0.140254 0.139659 0.250219 0.505501
C105  C     C_R   0.231918 0.676819 0.747287 -0.146702
C106  C     C_R   0.757640 0.688573 0.280539 -0.134229
C107  C     C_R   0.756611 0.689022 0.719121 -0.141349
C108  C     C_R   0.177891 0.731061 0.257322 0.251674
C109  C     C_R   0.177121 0.730523 0.746418 0.247753
C110  C     C_R   0.806939 0.745298 0.285394 0.234651
C111  C     C_R   0.806729 0.745065 0.715982 0.235784
C112  C     C_R   0.677268 0.231466 0.756594 0.247819
C113  C     C_R   0.677934 0.231200 0.242083 0.249892
C114  C     C_R   0.287985 0.265382 0.794834 0.231869
C115  C     C_R   0.139836 0.140287 0.750314 0.496622
C116  C     C_R   0.305606 0.246383 0.214677 0.238800
C117  C     C_R   0.198354 0.804768 0.250837 0.052664
C118  C     C_R   0.197894 0.804543 0.749490 0.056145
C119  C     C_R   0.796782 0.810007 0.256317 0.035458
C120  C     C_R   0.798870 0.807120 0.748048 0.036219
C121  C     C_R   0.698161 0.305001 0.751082 0.054365
C122  C     C_R   0.698378 0.304756 0.249426 0.051059
C123  C     C_R   0.304981 0.301922 0.748365 0.050752
C124  C     C_R   0.298991 0.307015 0.248204 0.038408
C125  C     C_R   0.064138 0.038219 0.028251 -0.012297
C126  C     C_R   0.360309 0.640120 0.749717 0.502177
C127  C     C_R   0.068701 0.023977 0.975060 -0.020672
C128  C     C_R   0.931278 0.031796 0.024917 -0.023511
C129  C     C_R   0.936334 0.043479 0.971097 -0.013227
C130  C     C_R   0.562786 0.539818 0.528317 -0.012445
C131  C     C_R   0.567740 0.525988 0.475119 -0.024263
C132  C     C_R   0.430124 0.526857 0.525027 -0.025987
C133  C     C_R   0.434489 0.539855 0.471415 -0.013187
C134  C     C_R   0.002066 0.021750 0.946107 0.022049
C135  C     C_R   0.997699 0.022626 0.053593 0.018378
C136  C     C_R   0.501233 0.521942 0.446149 0.018107
C137  C     C_R   0.360327 0.640112 0.250207 0.492571
C138  C     C_R   0.496981 0.521747 0.553698 0.017398
C139  C     C_R   0.140714 0.860305 0.250308 0.534893
C140  C     C_R   0.140618 0.860260 0.749804 0.536975
C141  C     C_R   0.857422 0.862150 0.252152 0.515462
C142  C     C_R   0.858404 0.860883 0.749275 0.520150
C143  C     C_R   0.640695 0.360446 0.750387 0.530894
C144  C     C_R   0.640746 0.360305 0.249786 0.533844
C145  C     C_R   0.360435 0.359146 0.749242 0.521598
C146  C     C_R   0.358394 0.360904 0.249269 0.520724
C147  C     C_R   0.999365 0.005205 0.109618 0.501093
C148  C     C_R   0.640056 0.639840 0.750057 0.498322
C149  C     C_R   0.000558 0.004242 0.890366 0.501497
C150  C     C_R   0.499260 0.504615 0.609624 0.496566
C151  C     C_R   0.500403 0.504522 0.390357 0.498306
C152  C     C_R   0.998471 0.000471 0.390031 0.528201
C153  C     C_R   0.000196 0.000209 0.609899 0.507172
C154  C     C_R   0.500257 0.499901 0.889859 0.507946
C155  C     C_R   0.498090 0.500092 0.110112 0.496046
C156  C     C_R   0.987764 0.068461 0.473388 -0.038371
C157  C     C_R   0.993406 0.066784 0.526649 -0.046804
C158  C     C_R   0.484016 0.561471 0.973560 -0.000819
C159  C     C_R   0.640151 0.640031 0.250006 0.504392
C160  C     C_R   0.476813 0.561330 0.025442 -0.008374
C161  C     C_R   0.989953 0.002174 0.445750 0.027490
C162  C     C_R   0.994510 0.000914 0.553959 0.030315
C163  C     C_R   0.499346 0.499022 0.945469 -0.007013
C164  C     C_R   0.494144 0.499343 0.054432 -0.000639
C165  C     C_R   0.982992 0.936269 0.472978 -0.162623
C166  C     C_R   0.984689 0.935726 0.526641 -0.157774
C167  C     C_R   0.511903 0.434082 0.973228 -0.180258
C168  C     C_R   0.510380 0.434472 0.027264 -0.170663
C169  C     C_3   0.046367 0.129585 0.527599 0.543937
C170  C     C_R   0.825301 0.268944 0.745911 -0.140384
C171  C     C_3   0.034033 0.136708 0.468911 0.545955
C172  C     C_3   0.455717 0.641320 0.027333 0.503596
C173  C     C_3   0.467713 0.641070 0.967485 0.545029
C174  C     C_R   0.273142 0.824760 0.245298 -0.063428
C175  C     C_R   0.272840 0.824289 0.751777 -0.046177
C176  C     C_R   0.728408 0.822152 0.231376 -0.052298
C177  C     C_R   0.733736 0.816360 0.778177 -0.062048
C178  C     C_R   0.773019 0.324838 0.746958 -0.062922
C179  C     C_R   0.773144 0.324512 0.255734 -0.063067
C180  C     C_R   0.267744 0.283423 0.702065 -0.052429
H1    H     H_    0.980071 0.884650 0.452965 0.130316
H2    H     H_    0.383084 0.783126 0.752366 0.130096
H3    H     H_    0.901098 0.399666 0.223145 0.161585
H4    H     H_    0.768799 0.436841 0.231409 0.153965
H5    H     H_    0.775652 0.423592 0.300277 0.171747
H6    H     H_    0.341215 0.268178 0.551949 0.143017
H7    H     H_    0.390993 0.348754 0.571366 0.151474
H8    H     H_    0.436856 0.261847 0.568412 0.147451
H9    H     H_    0.409318 0.296424 0.658988 0.174628
H10   H     H_    0.362792 0.214561 0.639880 0.158833
H11   H     H_    0.250231 0.292408 0.619536 0.121759
H12   H     H_    0.293115 0.369253 0.646322 0.172123
H13   H     H_    0.627109 0.773400 0.208842 0.139126
H14   H     H_    0.177267 0.469301 0.395482 0.146957
H15   H     H_    0.139653 0.508069 0.336920 0.136097
H16   H     H_    0.080173 0.465662 0.383281 0.140702
H17   H     H_    0.100299 0.384072 0.308677 0.158105
H18   H     H_    0.138570 0.345750 0.367414 0.148649
H19   H     H_    0.261562 0.387056 0.342971 0.176974
H20   H     H_    0.224023 0.431476 0.285966 0.170478
H21   H     H_    0.124607 0.651204 0.325748 0.114814
H22   H     H_    0.097205 0.601449 0.267947 0.121514
H23   H     H_    0.973433 0.655061 0.274268 0.192456
H24   H     H_    0.633381 0.764323 0.800308 0.147835
H25   H     H_    0.998457 0.607909 0.333114 0.076227
H26   H     H_    0.001878 0.706311 0.330346 0.210277
H27   H     H_    0.094682 0.600654 0.742932 0.125671
H28   H     H_    0.120432 0.645577 0.682894 0.114233
H29   H     H_    0.999181 0.702290 0.677703 0.213842
H30   H     H_    0.993393 0.603950 0.679266 0.078457
H31   H     H_    0.971311 0.656482 0.736274 0.189449
H32   H     H_    0.789658 0.735046 0.381358 0.109711
H33   H     H_    0.829323 0.823075 0.366749 0.133743
H34   H     H_    0.949782 0.779112 0.397999 0.161686
H35   H     H_    0.716540 0.120372 0.758199 0.111062
H36   H     H_    0.880443 0.768919 0.446804 0.084857
H37   H     H_    0.911533 0.690103 0.411091 0.139790
H38   H     H_    0.811596 0.804641 0.629431 0.127224
H39   H     H_    0.805603 0.706881 0.618127 0.116612
H40   H     H_    0.934227 0.700800 0.594198 0.130518
H41   H     H_    0.889223 0.771280 0.557079 0.082347
H42   H     H_    0.946755 0.795637 0.611092 0.184423
H43   H     H_    0.618154 0.171515 0.830857 0.115498
H44   H     H_    0.594514 0.107023 0.780243 0.121386
H45   H     H_    0.470753 0.163283 0.773723 0.161260
H46   H     H_    0.718535 0.120300 0.239760 0.105914
H47   H     H_    0.489982 0.130642 0.838101 0.083647
H48   H     H_    0.494501 0.227072 0.824099 0.204658
H49   H     H_    0.597480 0.102517 0.225932 0.120402
H50   H     H_    0.624148 0.157864 0.170645 0.114241
H51   H     H_    0.501037 0.213487 0.169331 0.212980
H52   H     H_    0.497806 0.115481 0.161515 0.075949
H53   H     H_    0.473558 0.156221 0.222666 0.188939
H54   H     H_    0.234556 0.289160 0.886239 0.112438
H55   H     H_    0.264068 0.372229 0.854238 0.125115
H56   H     H_    0.375766 0.373660 0.908902 0.185285
H57   H     H_    0.223747 0.181645 0.829988 0.121500
H58   H     H_    0.293623 0.373864 0.947386 0.093782
H59   H     H_    0.346616 0.290934 0.940656 0.143756
H60   H     H_    0.292070 0.293886 0.126583 0.122936
H61   H     H_    0.309426 0.197198 0.115951 0.120057
H62   H     H_    0.434876 0.222449 0.089414 0.129044
H63   H     H_    0.372532 0.279115 0.053069 0.086974
H64   H     H_    0.424016 0.317955 0.105639 0.190498
H65   H     H_    0.179100 0.178315 0.127564 0.160068
H66   H     H_    0.190314 0.219488 0.064589 0.133757
H67   H     H_    0.125330 0.257018 0.109784 0.139453
H68   H     H_    0.263981 0.141789 0.194474 0.129714
H69   H     H_    0.063014 0.184227 0.042003 0.152121
H70   H     H_    0.050955 0.146063 0.105340 0.162218
H71   H     H_    0.151069 0.052584 0.086357 0.176775
H72   H     H_    0.168677 0.096929 0.028680 0.133988
H73   H     H_    0.284536 0.069759 0.960667 0.140125
H74   H     H_    0.275889 0.022803 0.899649 0.150208
H75   H     H_    0.281644 0.120987 0.901546 0.156074
H76   H     H_    0.154415 0.083985 0.885933 0.206733
H77   H     H_    0.162194 0.128478 0.946314 0.142507
H78   H     H_    0.182138 0.992485 0.983925 0.122375
H79   H     H_    0.218903 0.620150 0.258794 0.106452
H80   H     H_    0.145209 0.961608 0.926809 0.168363
H81   H     H_    0.723979 0.095548 0.079926 0.130560
H82   H     H_    0.771504 0.063623 0.137149 0.187295
H83   H     H_    0.761145 0.159980 0.125380 0.141396
H84   H     H_    0.886828 0.118373 0.105546 0.182993
H85   H     H_    0.841244 0.151491 0.049387 0.139290
H86   H     H_    0.811838 0.023166 0.021920 0.107471
H87   H     H_    0.848568 0.985521 0.076097 0.172557
H88   H     H_    0.809930 0.165929 0.865061 0.173484
H89   H     H_    0.808736 0.222049 0.922289 0.138705
H90   H     H_    0.218249 0.619481 0.747610 0.110101
H91   H     H_    0.867169 0.245541 0.868963 0.139435
H92   H     H_    0.936526 0.187580 0.942361 0.145635
H93   H     H_    0.943604 0.138091 0.882888 0.172221
H94   H     H_    0.845910 0.049659 0.915165 0.173219
H95   H     H_    0.833521 0.106882 0.968215 0.128029
H96   H     H_    0.678700 0.675889 0.629420 0.162603
H97   H     H_    0.688071 0.720833 0.567605 0.132050
H98   H     H_    0.623897 0.755156 0.614599 0.139443
H99   H     H_    0.561099 0.685540 0.544994 0.152258
H100  H     H_    0.549775 0.644689 0.607533 0.163941
H101  H     H_    0.768467 0.637942 0.300614 0.138874
H102  H     H_    0.650484 0.552515 0.585969 0.177676
H103  H     H_    0.666525 0.599253 0.529137 0.127535
H104  H     H_    0.788043 0.532165 0.433758 0.137190
H105  H     H_    0.746759 0.511630 0.371970 0.163689
H106  H     H_    0.779099 0.602302 0.385926 0.137102
H107  H     H_    0.642136 0.593155 0.391352 0.200939
H108  H     H_    0.683847 0.622373 0.449092 0.130243
H109  H     H_    0.681405 0.493718 0.484543 0.117665
H110  H     H_    0.642124 0.459734 0.428842 0.173057
H111  H     H_    0.214746 0.556106 0.582615 0.127593
H112  H     H_    0.982039 0.883907 0.546416 0.127952
H113  H     H_    0.765844 0.640007 0.696708 0.133304
H114  H     H_    0.269177 0.528873 0.637820 0.180506
H115  H     H_    0.242884 0.623117 0.629420 0.139645
H116  H     H_    0.372136 0.606692 0.605033 0.190243
H117  H     H_    0.318433 0.631820 0.550688 0.134577
H118  H     H_    0.313021 0.503094 0.520143 0.108281
H119  H     H_    0.353386 0.468929 0.574557 0.164946
H120  H     H_    0.299048 0.652941 0.365975 0.174518
H121  H     H_    0.292415 0.707937 0.423564 0.140261
H122  H     H_    0.349158 0.737137 0.370750 0.143047
H123  H     H_    0.422457 0.684303 0.444133 0.146249
H124  H     H_    0.933600 0.160960 0.596062 0.164305
H125  H     H_    0.434441 0.636269 0.384478 0.173956
H126  H     H_    0.343191 0.539847 0.415989 0.172182
H127  H     H_    0.327168 0.594816 0.469519 0.127033
H128  H     H_    0.915910 0.194103 0.531883 0.148367
H129  H     H_    0.950864 0.318996 0.559666 0.161918
H130  H     H_    0.876827 0.282844 0.597808 0.096166
H131  H     H_    0.968279 0.285091 0.624127 0.157473
H132  H     H_    0.919222 0.157611 0.406027 0.147169
H133  H     H_    0.003391 0.192513 0.377243 0.198727
H134  H     H_    0.965736 0.317922 0.398395 0.142936
H135  H     H_    0.897396 0.272907 0.359677 0.116159
H136  H     H_    0.524203 0.383486 0.953486 0.140393
H137  H     H_    0.882912 0.284455 0.428018 0.153411
H138  H     H_    0.117107 0.129685 0.616012 0.193912
H139  H     H_    0.161087 0.195113 0.573557 0.143021
H140  H     H_    0.260886 0.106131 0.556987 0.156300
H141  H     H_    0.251919 0.124715 0.624978 0.094303
H142  H     H_    0.217066 0.040605 0.598843 0.156892
H143  H     H_    0.152040 0.210813 0.476536 0.157464
H144  H     H_    0.114776 0.232018 0.413685 0.132741
H145  H     H_    0.205627 0.148869 0.373030 0.165975
H146  H     H_    0.248480 0.220319 0.410007 0.090414
H147  H     H_    0.523042 0.384309 0.047540 0.136743
H148  H     H_    0.243816 0.128881 0.435941 0.163312
H149  H     H_    0.404115 0.659646 0.118760 0.204550
H150  H     H_    0.364297 0.574816 0.095594 0.131341
H151  H     H_    0.248031 0.641600 0.077272 0.163186
H152  H     H_    0.274271 0.646424 0.144261 0.110197
H153  H     H_    0.288133 0.724177 0.102658 0.150078
H154  H     H_    0.424872 0.750312 0.905114 0.162420
H155  H     H_    0.381518 0.753528 0.968037 0.132662
H156  H     H_    0.267878 0.702974 0.929681 0.168355
H157  H     H_    0.294682 0.787195 0.899110 0.087759
H158  H     H_    0.882803 0.280877 0.742065 0.131255
H159  H     H_    0.311174 0.701250 0.867054 0.174473
H160  H     H_    0.435548 0.770508 0.070442 0.143310
H161  H     H_    0.491911 0.778739 0.013476 0.150414
H162  H     H_    0.602240 0.789230 0.068740 0.154230
H163  H     H_    0.535009 0.859116 0.082465 0.083839
H164  H     H_    0.545459 0.782253 0.125587 0.160924
H165  H     H_    0.607643 0.609630 0.931745 0.139292
H166  H     H_    0.606378 0.641691 0.997843 0.158708
H167  H     H_    0.642945 0.765573 0.966380 0.150097
H168  H     H_    0.709008 0.695135 0.951108 0.098370
H169  H     H_    0.883026 0.280575 0.260125 0.127541
H170  H     H_    0.648349 0.729226 0.901597 0.155346
H171  H     H_    0.371969 0.026688 0.206932 0.153376
H172  H     H_    0.364693 0.030272 0.276463 0.158326
H173  H     H_    0.451943 0.012596 0.246558 0.138222
H174  H     H_    0.399524 0.898340 0.281836 0.160382
H175  H     H_    0.407579 0.895397 0.212212 0.152249
H176  H     H_    0.276839 0.925619 0.202504 0.176219
H177  H     H_    0.267433 0.936125 0.271392 0.153611
H178  H     H_    0.382692 0.847750 0.835522 0.158548
H179  H     H_    0.430585 0.920868 0.803248 0.146515
H180  H     H_    0.180383 0.220282 0.670047 0.120435
H181  H     H_    0.392254 0.934824 0.866426 0.126342
H182  H     H_    0.313589 0.994231 0.802214 0.152468
H183  H     H_    0.266242 0.919182 0.830987 0.187254
H184  H     H_    0.350035 0.906808 0.727570 0.124186
H185  H     H_    0.259128 0.937894 0.729773 0.135019
H186  H     H_    0.590180 0.946038 0.145872 0.145708
H187  H     H_    0.657485 0.015197 0.157948 0.136105
H188  H     H_    0.652654 0.971906 0.095444 0.136257
H189  H     H_    0.756896 0.918736 0.142337 0.183198
H190  H     H_    0.685724 0.852141 0.136511 0.158605
H191  H     H_    0.136816 0.261055 0.304078 0.141712
H192  H     H_    0.643089 0.902330 0.228422 0.123337
H193  H     H_    0.729691 0.941997 0.232637 0.159334
H194  H     H_    0.673459 0.969509 0.894104 0.146626
H195  H     H_    0.642382 0.011680 0.834923 0.136911
H196  H     H_    0.577382 0.970576 0.878108 0.139863
H197  H     H_    0.598771 0.889363 0.803896 0.158610
H198  H     H_    0.633558 0.848928 0.862952 0.159337
H199  H     H_    0.758695 0.889099 0.841146 0.179862
H200  H     H_    0.723818 0.933219 0.783217 0.170275
H201  H     H_    0.873730 0.528752 0.717036 0.155984
H202  H     H_    0.383058 0.781019 0.240373 0.131121
H203  H     H_    0.862084 0.527887 0.786307 0.156103
H204  H     H_    0.951161 0.512115 0.758711 0.139933
H205  H     H_    0.896806 0.395774 0.788517 0.160076
H206  H     H_    0.909234 0.397246 0.719199 0.155063
H207  H     H_    0.779119 0.427154 0.706066 0.176388
H208  H     H_    0.765487 0.435196 0.774707 0.148946
H209  H     H_    0.866006 0.531406 0.231610 0.158940
H210  H     H_    0.871808 0.523580 0.301076 0.152728
H211  H     H_    0.952534 0.511419 0.262098 0.140271
H212  H     H_    0.906517 0.392736 0.292798 0.152031
O1    O     O_3   0.000000 0.000010 0.249960 -0.430143
O2    O     O_R   0.414520 0.646190 0.219700 -0.567769
O3    O     O_R   0.585480 0.646190 0.780300 -0.549566
O4    O     O_R   0.585480 0.646190 0.219700 -0.540219
O5    O     O_R   0.085460 0.853840 0.280340 -0.492569
O6    O     O_R   0.085460 0.853840 0.719660 -0.500336
O7    O     O_R   0.914540 0.853840 0.280340 -0.489920
O8    O     O_R   0.914540 0.853840 0.719660 -0.482828
O9    O     O_R   0.585460 0.353840 0.780340 -0.508411
O10   O     O_R   0.585460 0.353840 0.219660 -0.495515
O11   O     O_R   0.414540 0.353840 0.780340 -0.494789
O12   O     O_3   0.000000 0.000010 0.750040 -0.429549
O13   O     O_R   0.414540 0.353840 0.219660 -0.481284
O14   O     O_R   0.853820 0.914550 0.219610 -0.568304
O15   O     O_R   0.853820 0.914550 0.780390 -0.579373
O16   O     O_R   0.146180 0.914550 0.219610 -0.570673
O17   O     O_R   0.146180 0.914550 0.780390 -0.566432
O18   O     O_R   0.353820 0.414550 0.719610 -0.572941
O19   O     O_R   0.353820 0.414550 0.280390 -0.581506
O20   O     O_R   0.646180 0.414550 0.719610 -0.568672
O21   O     O_R   0.646180 0.414550 0.280390 -0.573111
O22   O     O_R   0.146170 0.085440 0.219600 -0.559967
O23   O     O_3   0.500000 0.500010 0.749960 -0.435561
O24   O     O_R   0.146170 0.085440 0.780400 -0.565738
O25   O     O_R   0.853830 0.085440 0.219600 -0.564710
O26   O     O_R   0.853830 0.085440 0.780400 -0.559585
O27   O     O_R   0.646170 0.585440 0.719600 -0.563279
O28   O     O_R   0.646170 0.585440 0.280400 -0.566441
O29   O     O_R   0.353830 0.585440 0.719600 -0.560140
O30   O     O_R   0.353830 0.585440 0.280400 -0.558277
O31   O     O_R   0.939270 0.999980 0.134160 -0.559388
O32   O     O_R   0.939270 0.999980 0.865840 -0.549843
O33   O     O_R   0.060730 0.999980 0.134160 -0.547597
O34   O     O_3   0.500000 0.500010 0.250040 -0.430758
O35   O     O_R   0.060730 0.999980 0.865840 -0.564966
O36   O     O_R   0.439270 0.499980 0.634160 -0.563949
O37   O     O_R   0.439270 0.499980 0.365840 -0.551420
O38   O     O_R   0.560730 0.499980 0.634160 -0.547814
O39   O     O_R   0.560730 0.499980 0.365840 -0.559155
O40   O     O_R   0.000000 0.060760 0.365760 -0.550233
O41   O     O_R   0.000000 0.060760 0.634240 -0.560616
O42   O     O_R   0.500000 0.560760 0.865760 -0.499864
O43   O     O_R   0.500000 0.560760 0.134240 -0.530776
O44   O     O_R   0.000000 0.939310 0.365770 -0.561695
O45   O     O_R   0.914520 0.146190 0.280300 -0.566893
O46   O     O_R   0.000000 0.939310 0.634230 -0.563330
O47   O     O_R   0.500000 0.439310 0.865770 -0.564464
O48   O     O_R   0.500000 0.439310 0.134230 -0.569795
O49   O     O_3   0.026151 0.194295 0.555643 -0.567769
O50   O     O_3   0.994603 0.202020 0.457026 -0.596150
O51   O     O_3   0.118456 0.103196 0.537988 -0.554874
O52   O     O_3   0.097857 0.125451 0.438671 -0.531448
O53   O     O_3   0.380927 0.654134 0.039853 -0.580622
O54   O     O_3   0.402442 0.649386 0.938310 -0.519134
O55   O     O_3   0.506618 0.682905 0.056226 -0.566568
O56   O     O_R   0.914520 0.146190 0.719700 -0.550057
O57   O     O_3   0.526092 0.685660 0.948560 -0.579894
O58   O     O_3   0.103774 0.713746 0.259160 -0.536087
O59   O     O_3   0.102986 0.713332 0.747338 -0.539454
O60   O     O_3   0.863921 0.737136 0.319931 -0.559729
O61   O     O_3   0.865308 0.737267 0.682858 -0.559090
O62   O     O_3   0.603293 0.214133 0.756024 -0.544073
O63   O     O_3   0.603923 0.213721 0.240119 -0.537092
O64   O     O_3   0.326825 0.279045 0.839584 -0.549127
O65   O     O_3   0.362182 0.241304 0.179454 -0.555539
O66   O     O_R   0.085480 0.146190 0.280300 -0.557090
O67   O     O_R   0.085480 0.146190 0.719700 -0.554345
O68   O     O_R   0.414520 0.646190 0.780300 -0.534895
Zn1   Zn    Zn3+2 1.000000 0.913260 0.293350 0.958998
Zn2   Zn    Zn3+2 0.413230 0.500000 0.293420 0.889988
Zn3   Zn    Zn3+2 0.586770 0.500000 0.706580 0.897257
Zn4   Zn    Zn3+2 0.586770 0.500000 0.293420 0.894773
Zn5   Zn    Zn3+2 0.000000 0.086780 0.293330 0.896262
Zn6   Zn    Zn3+2 0.000000 0.086780 0.706670 0.901944
Zn7   Zn    Zn3+2 0.500000 0.586780 0.793330 0.946422
Zn8   Zn    Zn3+2 0.500000 0.586780 0.206670 0.912851
Zn9   Zn    Zn3+2 0.000000 0.913260 0.706650 0.952352
Zn10  Zn    Zn3+2 0.500000 0.413260 0.793350 0.947963
Zn11  Zn    Zn3+2 0.500000 0.413260 0.206650 0.950528
Zn12  Zn    Zn3+2 0.913230 0.000000 0.206580 0.887645
Zn13  Zn    Zn3+2 0.913230 0.000000 0.793420 0.895877
Zn14  Zn    Zn3+2 0.086770 0.000000 0.206580 0.907623
Zn15  Zn    Zn3+2 0.086770 0.000000 0.793420 0.891671
Zn16  Zn    Zn3+2 0.413230 0.500000 0.706580 0.888076

loop_
_geom_bond_atom_site_label_1
_geom_bond_atom_site_label_2
_ccdc_geom_bond_type
C53   H34   S    
C41   C180  S    
C19   C20   S    
C96   C105  A    
C154  O47   A    
O1    Zn1   S    
C3    C124  A    
C170  C178  A    
C81   H97   S    
C145  O18   A    
C97   C159  S    
C79   C99   A    
C88   C133  S    
C110  O60   S    
O8    Zn9   S    
C67   H66   S    
C108  O58   S    
C63   H61   S    
C73   C74   S    
C2    C90   A    
C63   O65   S    
C157  C169  S    
C113  C122  A    
C123  C145  S    
C91   H122  S    
C104  O22   A    
O16   Zn14  S    
O1    Zn14  S    
O46   Zn9   S    
C11   H145  S    
C168  H147  S    
O14   Zn12  S    
C172  O53   S    
C73   H84   S    
C74   H83   S    
C125  C135  A    
C94   C104  S    
C59   C60   S    
C21   C22   S    
C117  C139  S    
C93   O26   A    
C118  C140  S    
C27   H179  S    
C109  C118  A    
C54   H38   S    
C45   C47   S    
C122  C179  A    
C29   H189  S    
C60   H53   S    
C164  C168  A    
C128  C135  A    
C70   H76   S    
C159  O28   A    
C4    C5    S    
C69   C127  S    
C144  O21   A    
C62   H59   S    
C25   H184  S    
C120  C177  A    
C71   H74   S    
C12   H150  S    
C119  C176  A    
C42   H10   S    
C43   H7    S    
C57   C97   A    
C72   H86   S    
C116  O65   S    
C160  C172  S    
C102  H68   S    
C10   H143  S    
C153  O46   A    
C12   O53   S    
C54   O61   S    
C171  O52   S    
C30   H186  S    
C69   H80   S    
C31   H200  S    
C53   H36   S    
C28   H193  S    
O38   Zn3   S    
C119  C141  S    
C27   H181  S    
C130  C138  A    
O4    Zn8   S    
C14   H153  S    
C47   H15   S    
C105  H90   S    
C9    H142  S    
C7    H137  S    
C38   C179  S    
C75   H95   S    
C159  O4    A    
C146  O19   A    
C59   O63   S    
C72   C73   S    
C6    C7    S    
C86   H117  S    
C37   H204  S    
C130  C131  A    
C79   C93   S    
C34   H208  S    
C173  O57   S    
C6    H133  S    
C91   H120  S    
C61   O64   S    
O27   Zn3   S    
C145  O11   A    
C76   H93   S    
C172  O55   S    
C69   C70   S    
C20   H167  S    
C68   C98   A    
C78   H103  S    
C151  O39   A    
C74   H81   S    
C32   H198  S    
C46   C96   A    
C49   H26   S    
C94   C102  A    
C144  O10   A    
O1    Zn5   S    
C52   H32   S    
C155  O48   A    
O30   Zn2   S    
C126  O68   A    
C82   C131  S    
C157  C162  A    
C161  C165  A    
C50   H28   S    
C4    O49   S    
C35   H202  S    
C66   H70   S    
C88   H126  S    
C19   H165  S    
C68   H24   S    
C146  O13   A    
C51   H30   S    
C127  C134  A    
O19   Zn2   S    
O12   Zn9   S    
C92   C115  S    
C64   H63   S    
C85   C86   S    
C13   H180  S    
C167  H136  S    
C79   C170  A    
C36   C37   S    
C19   O57   S    
C154  O42   A    
C38   C39   S    
C78   C80   S    
O24   Zn15  S    
C45   H17   S    
C48   H22   S    
C68   C177  A    
O23   Zn7   S    
O45   Zn5   S    
O2    Zn8   S    
O20   Zn3   S    
C22   H175  S    
C171  O50   S    
C48   O58   S    
C148  O27   A    
C67   H67   S    
C2    H169  S    
C31   C32   S    
C26   H183  S    
C80   H99   S    
O67   Zn6   S    
C89   C91   S    
C18   H163  S    
C14   H151  S    
O47   Zn10  S    
C66   C67   S    
O26   Zn13  S    
O23   Zn10  S    
C111  O61   S    
C169  C171  S    
C3    C24   A    
O21   Zn4   S    
C40   H211  S    
C95   C103  A    
C53   H37   S    
C3    C44   S    
C95   C137  S    
C41   H11   S    
C8    H139  S    
C101  H57   S    
C24   H191  S    
C131  C136  A    
C39   C40   S    
O48   Zn11  S    
O34   Zn11  S    
O3    Zn7   S    
C25   C26   S    
C134  C149  S    
C124  C146  S    
C147  O33   A    
C29   H190  S    
C29   C30   S    
C151  O37   A    
C82   H109  S    
O12   Zn6   S    
C9    H140  S    
C25   C175  S    
C83   C84   S    
C52   O60   S    
C71   H75   S    
C77   H91   S    
C17   C18   S    
C96   C126  S    
C17   O55   S    
C100  H46   S    
O56   Zn6   S    
C158  C163  A    
C4    H128  S    
C55   H42   S    
C17   H161  S    
C114  C123  A    
C5    H129  S    
C156  C161  A    
C44   H20   S    
C135  C147  S    
C61   H55   S    
C77   H89   S    
C59   H49   S    
C139  O16   A    
C83   H107  S    
C52   C53   S    
C125  C127  A    
O12   Zn13  S    
C105  C109  A    
C54   C55   S    
C28   H192  S    
C22   C23   S    
C107  C111  A    
C108  C117  A    
O6    Zn9   S    
C140  O6    A    
C110  C119  A    
C56   H43   S    
O23   Zn3   S    
C137  O2    A    
C13   C180  A    
C7    H134  S    
C77   H88   S    
C81   H96   S    
C21   H177  S    
C46   H2    S    
C65   H71   S    
C78   C130  S    
C112  C121  A    
C75   H94   S    
C67   H65   S    
C85   H119  S    
C149  O32   A    
C148  O3    A    
C56   C58   S    
C34   C36   S    
C8    O51   S    
C61   C62   S    
C18   H164  S    
C10   C11   S    
C89   H123  S    
C169  O49   S    
C63   C64   S    
O34   Zn8   S    
C91   H121  S    
O23   Zn16  S    
C65   H72   S    
C21   H176  S    
C1    O45   A    
C11   H148  S    
C36   H205  S    
C58   H47   S    
C16   H156  S    
C104  O66   A    
C142  O15   A    
C84   H105  S    
C49   H23   S    
C1    C90   S    
C36   H206  S    
C41   C42   S    
O11   Zn10  S    
C54   H39   S    
C23   H172  S    
C26   C27   S    
C147  O31   A    
C160  C164  A    
C28   C29   S    
C23   H173  S    
C15   O54   S    
C80   C81   S    
C64   H62   S    
C132  C138  A    
C60   H51   S    
C86   H116  S    
C4    H124  S    
C93   O56   A    
C143  O9    A    
C71   H73   S    
O29   Zn16  S    
C162  C166  A    
C5    H131  S    
C6    H132  S    
C87   H111  S    
O15   Zn13  S    
C70   C71   S    
C10   H144  S    
C40   H209  S    
C30   H187  S    
C31   H199  S    
C128  C129  A    
C158  C160  A    
C101  C114  A    
C143  O20   A    
C9    H141  S    
C87   H114  S    
C81   H98   S    
C152  O40   A    
C47   H16   S    
C167  C168  A    
C86   C87   S    
C28   C176  S    
O43   Zn8   S    
C82   C83   S    
C98   C107  A    
C8    H138  S    
C37   H203  S    
O41   Zn6   S    
O34   Zn4   S    
C89   H125  S    
C158  C173  S    
O22   Zn14  S    
C126  O29   A    
C50   C51   S    
C11   H146  S    
C20   H168  S    
C121  C178  A    
C58   H45   S    
C73   H85   S    
C92   C101  A    
C97   C106  A    
C74   H82   S    
C48   C49   S    
C72   C128  S    
C13   C92   A    
C34   C178  S    
C15   H154  S    
C42   C43   S    
O66   Zn5   S    
C63   H60   S    
C136  C151  S    
C44   C45   S    
C116  C124  A    
C60   H52   S    
C103  H79   S    
C150  O36   A    
C115  O67   A    
C10   O52   S    
C107  H113  S    
C50   O59   S    
C33   H195  S    
C64   H64   S    
C35   C95   A    
C62   H58   S    
C25   H185  S    
C153  C162  S    
C32   C33   S    
C33   H194  S    
C12   H149  S    
C42   H9    S    
C98   C148  S    
C43   H8    S    
C76   H92   S    
C112  O62   S    
C137  O30   A    
C141  O14   A    
C56   O62   S    
C39   H212  S    
O12   Zn15  S    
O17   Zn15  S    
C129  C134  A    
C169  O51   S    
C21   C174  S    
C80   H100  S    
O35   Zn15  S    
C14   H152  S    
C117  C174  A    
C152  O44   A    
C165  C166  A    
C150  O38   A    
C121  C143  S    
C47   H14   S    
C122  C144  S    
C75   C76   S    
C113  O63   S    
C38   H4    S    
C138  C150  S    
C84   H104  S    
C31   C177  S    
C156  C157  A    
C34   H207  S    
O34   Zn2   S    
C85   C132  S    
C142  O8    A    
C7    H135  S    
C15   C16   S    
O40   Zn5   S    
C51   H29   S    
C78   H102  S    
C20   H170  S    
C82   H110  S    
C149  O35   A    
C32   H197  S    
C132  C133  A    
C133  C136  A    
C103  C108  A    
O32   Zn13  S    
C6    O50   S    
C27   H178  S    
C37   H201  S    
O10   Zn11  S    
O36   Zn16  S    
C115  O24   A    
C55   H41   S    
C17   H160  S    
C88   C89   S    
C166  H112  S    
C66   H69   S    
C19   H166  S    
C61   H54   S    
C139  O5    A    
O39   Zn4   S    
C90   C100  A    
C16   H157  S    
C23   H171  S    
C109  O59   S    
O5    Zn1   S    
C70   H77   S    
C62   H56   S    
C154  C163  S    
C120  C142  S    
C76   C77   S    
C33   H196  S    
O28   Zn4   S    
C56   H44   S    
C8    C9    S    
O37   Zn2   S    
C43   H6    S    
C45   H18   S    
C48   H21   S    
C72   H87   S    
C87   H115  S    
O9    Zn10  S    
C57   H13   S    
C111  C120  A    
C65   C125  S    
C163  C167  A    
O13   Zn11  S    
C22   H174  S    
C24   C94   A    
C57   C176  A    
C85   H118  S    
C26   H182  S    
O31   Zn12  S    
C39   H3    S    
C18   H162  S    
C44   H19   S    
O25   Zn12  S    
C12   C14   S    
C118  C175  A    
C141  O7    A    
O1    Zn12  S    
C2    C179  A    
O18   Zn16  S    
O44   Zn1   S    
C173  O54   S    
C58   H48   S    
C172  C173  S    
C106  C110  A    
C84   H106  S    
C41   H12   S    
C46   C175  A    
C35   C174  A    
C15   H155  S    
C100  C113  A    
C152  C161  S    
C49   H25   S    
C123  C180  A    
C170  H158  S    
C55   H40   S    
C155  C164  S    
C38   H5    S    
C156  C171  S    
C140  O17   A    
C106  H101  S    
C165  H1    S    
C1    O25   A    
C114  O64   S    
C50   H27   S    
O7    Zn1   S    
C99   H35   S    
C99   C112  A    
O68   Zn7   S    
C52   H33   S    
C155  O43   A    
O42   Zn7   S    
O33   Zn14  S    
C153  O41   A    
C102  C116  A    
C51   H31   S    
C5    H130  S    
C88   H127  S    
C65   C66   S    
C59   H50   S    
C40   H210  S    
C16   H159  S    
C83   H108  S    
C75   C129  S    
C30   H188  S    
C69   H78   S    
