data_mof_unit_63147.cif
_audit_creation_date              2012-12-10T16:57:32-0500
_audit_creation_method            fapswitch 2.2
_symmetry_space_group_name_H-M    P1
_symmetry_Int_Tables_number       1
_space_group_crystal_system       triclinic
_cell_length_a                    21.756055
_cell_length_b                    21.782334
_cell_length_c                    22.1888
_cell_angle_alpha                 59.74122
_cell_angle_beta                  118.885556
_cell_angle_gamma                 90.179912
_cell_volume                      7540.5835595

loop_
_atom_site_label
_atom_site_type_symbol
_atom_type_description
_atom_site_fract_x
_atom_site_fract_y
_atom_site_fract_z
_atom_type_partial_charge
C1    C     C_R   0.617594 0.501870 0.496974 0.933086
C2    C     C_2   0.817535 0.488603 0.504833 -0.332568
C3    C     C_2   0.692766 0.482216 0.451710 -0.156697
C4    C     C_R   0.418658 0.581815 0.337259 0.909962
C5    C     C_2   0.679068 0.508665 0.488299 -0.336447
C6    C     C_3   0.714067 0.206988 0.029762 -0.164654
C7    C     C_3   0.688424 0.293689 0.972342 -0.162998
C8    C     C_1   0.626153 0.372681 0.751827 -0.185037
C9    C     C_1   0.875141 0.125262 0.248187 -0.192310
C10   C     C_3   0.734690 0.203146 0.973744 -0.164361
C11   C     C_3   0.709838 0.289064 0.917914 0.206261
C12   C     C_3   0.290195 0.710690 0.082101 0.205279
C13   C     C_3   0.813852 0.202758 0.027728 -0.165530
C14   C     C_3   0.792412 0.207406 0.082127 0.206216
C15   C     C_3   0.788185 0.289482 0.970278 -0.161601
C16   C     C_R   0.382398 0.498137 0.503008 0.934154
C17   C     C_3   0.767550 0.293321 0.026275 -0.161728
C18   C     C_1   0.663999 0.334660 0.826934 -0.078604
C19   C     C_1   0.837899 0.162362 0.173094 -0.080889
C20   C     C_2   0.244171 0.508514 0.555842 -0.148358
C21   C     C_2   0.182468 0.511438 0.495172 -0.338683
C22   C     C_2   0.307309 0.517625 0.548422 -0.154414
C23   C     C_3   0.185202 0.735301 0.974039 -0.164142
C24   C     C_2   0.320902 0.491361 0.511636 -0.338473
C25   C     C_R   0.000258 0.880881 0.499992 0.801559
C26   C     C_R   0.081041 0.918514 0.662759 0.912598
C27   C     C_R   0.998933 0.120496 0.497097 0.934078
C28   C     C_R   0.581345 0.418181 0.662742 0.909875
C29   C     C_R   0.918963 0.081212 0.337246 0.901698
C30   C     C_R   0.995083 0.619187 0.499207 0.923602
C31   C     C_R   0.881252 0.497287 0.500825 0.927401
C32   C     C_R   0.998318 0.380374 0.500943 0.935920
C33   C     C_R   0.118746 0.502725 0.499176 0.949649
C34   C     C_3   0.207622 0.792153 0.917895 0.205466
C35   C     C_2   0.002401 0.685103 0.562994 -0.125557
C36   C     C_2   0.980149 0.685907 0.494986 -0.251522
C37   C     C_2   0.992706 0.756286 0.553949 -0.282832
C38   C     C_2   0.003601 0.814184 0.500916 0.391598
C39   C     C_2   0.935841 0.311466 0.444801 -0.157451
C40   C     C_3   0.285072 0.736160 0.971864 -0.163231
C41   C     C_2   0.993878 0.312535 0.505193 -0.334655
C42   C     C_2   0.934147 0.240912 0.452286 -0.155892
C43   C     C_2   0.997261 0.190446 0.488857 -0.336855
C44   C     C_3   0.312612 0.767542 0.025953 -0.163267
C45   C     C_3   0.212746 0.766677 0.028155 -0.161921
C46   C     C_1   0.373862 0.627285 0.248179 -0.185080
C47   C     C_1   0.124875 0.874332 0.751830 -0.187377
C48   C     C_3   0.263446 0.678525 0.029583 -0.164405
C49   C     C_3   0.997697 0.863855 0.378063 -0.334102
C50   C     C_3   0.234361 0.824338 0.970393 -0.161970
C51   C     C_1   0.336025 0.665223 0.173074 -0.078339
C52   C     C_1   0.162129 0.837171 0.826927 -0.077387
C53   C     C_2   0.755909 0.491302 0.444290 -0.157103
H1    H     H_    0.365626 0.779988 0.048795 0.134574
H2    H     H_    0.289284 0.458419 0.492925 0.157285
H3    H     H_    0.028233 0.632922 0.624916 0.161588
H4    H     H_    0.947555 0.737992 0.432586 0.175473
H5    H     H_    0.980249 0.759913 0.594185 0.127541
H6    H     H_    0.888528 0.361626 0.391541 0.162355
H7    H     H_    0.037094 0.260915 0.562990 0.156688
H8    H     H_    0.881143 0.231891 0.424788 0.165014
H9    H     H_    0.049058 0.203190 0.507619 0.157395
H10   H     H_    0.221633 0.884904 0.944544 0.134384
H11   H     H_    0.183897 0.778417 0.052811 0.134856
H12   H     H_    0.710596 0.541740 0.506833 0.156680
H13   H     H_    0.132191 0.722852 0.951194 0.134423
H14   H     H_    0.276166 0.617963 0.055410 0.134939
H15   H     H_    0.752736 0.497490 0.391027 0.162639
H16   H     H_    0.823759 0.473754 0.562619 0.155935
H17   H     H_    0.656179 0.456705 0.424393 0.165228
H18   H     H_    0.636212 0.331730 0.948085 0.133824
H19   H     H_    0.720419 0.166963 0.950637 0.134833
H20   H     H_    0.343993 0.542970 0.575922 0.167526
H21   H     H_    0.015188 0.913879 0.370249 0.190232
H22   H     H_    0.936411 0.878578 0.345800 0.130586
H23   H     H_    0.684467 0.172387 0.055723 0.134235
H24   H     H_    0.012447 0.846458 0.346330 0.196049
H25   H     H_    0.781809 0.329520 0.049364 0.133644
H26   H     H_    0.817786 0.324084 0.944319 0.133747
H27   H     H_    0.866071 0.164702 0.052019 0.133273
H28   H     H_    0.247425 0.502103 0.609235 0.167625
H29   H     H_    0.176201 0.526474 0.437310 0.156355
H30   H     H_    0.313938 0.724403 0.947231 0.135575
O1    O     O_R   0.590490 0.448940 0.499990 -0.617117
O2    O     O_R   0.034710 0.555670 0.569560 -0.623306
O3    O     O_R   0.874770 0.534770 0.430450 -0.622851
O4    O     O_R   0.590420 0.551070 0.499980 -0.624623
O5    O     O_R   0.944330 0.465210 0.569580 -0.628209
O6    O     O_R   0.965290 0.444330 0.430440 -0.620395
O7    O     O_R   0.034850 0.374760 0.569570 -0.623607
O8    O     O_R   0.055670 0.534790 0.430420 -0.621285
O9    O     O_R   0.125230 0.465230 0.569550 -0.615905
O10   O     O_R   0.438430 0.510550 0.376780 -0.620935
O11   O     O_R   0.438360 0.612680 0.376770 -0.616187
O12   O     O_R   0.948920 0.909510 0.500030 -0.645231
O13   O     O_R   0.409580 0.448930 0.500020 -0.624378
O14   O     O_R   0.409510 0.551060 0.500010 -0.616190
O15   O     O_R   0.561640 0.387320 0.623230 -0.616609
O16   O     O_R   0.561570 0.489450 0.623220 -0.620435
O17   O     O_R   0.051050 0.909420 0.500010 -0.595564
O18   O     O_3   0.035497 0.803834 0.463915 -0.583135
O19   O     O_R   0.112670 0.938280 0.623210 -0.614692
O20   O     O_R   0.010540 0.938370 0.623230 -0.616484
O21   O     O_R   0.051080 0.090340 0.499970 -0.623916
O22   O     O_R   0.948950 0.090430 0.499990 -0.615976
O23   O     O_R   0.989460 0.061480 0.376770 -0.622175
O24   O     O_R   0.887330 0.061570 0.376790 -0.617269
O25   O     O_R   0.965150 0.625240 0.430430 -0.626799
Zn1   Zn    Zn3+2 0.500050 0.431810 0.500010 0.955184
Zn2   Zn    Zn3+2 0.499950 0.568190 0.499990 0.957059
Zn3   Zn    Zn3+2 0.068190 0.999870 0.499990 0.965780
Zn4   Zn    Zn3+2 0.931810 0.999990 0.500010 0.950338
Zn5   Zn    Zn3+2 0.953560 0.546450 0.407100 0.948437
Zn6   Zn    Zn3+2 0.046440 0.453550 0.592900 0.950008

loop_
_geom_bond_atom_site_label_1
_geom_bond_atom_site_label_2
_ccdc_geom_bond_type
C1    O4    A    
C11   C18   S    
C23   C45   S    
O24   Zn4   S    
C35   C36   D    
C14   C17   S    
C12   C48   S    
C39   C41   D    
O4    Zn2   S    
C4    C46   S    
C24   H2    S    
C7    C11   S    
O3    Zn5   S    
C1    C5    S    
C23   H13   S    
O2    Zn6   S    
C35   C37   S    
C38   O18   S    
O12   Zn4   S    
C33   O8    A    
C49   O18   S    
C25   C38   S    
C16   O14   A    
C21   C33   S    
C27   O22   A    
C44   C50   S    
C27   O21   A    
C40   C48   S    
C53   H15   S    
C11   C15   S    
C9    C19   T    
C32   O7    A    
C7    C17   S    
C32   C41   S    
C49   H22   S    
C23   C48   S    
C2    H16   S    
C37   H5    S    
C9    C29   S    
C13   H27   S    
C16   C24   S    
C31   O3    A    
C13   C14   S    
C50   H10   S    
C40   H30   S    
O19   Zn3   S    
C39   C42   S    
O23   Zn3   S    
O6    Zn5   S    
C34   C50   S    
C16   O13   A    
C3    H17   S    
C5    H12   S    
C36   H4    S    
C33   O9    A    
O16   Zn2   S    
C46   C51   T    
C10   C13   S    
C8    C18   T    
O8    Zn5   S    
C2    C31   S    
C1    O1    A    
O25   Zn5   S    
C37   C38   D    
C44   H1    S    
C26   O20   A    
C6    C14   S    
C25   O17   A    
C32   O6    A    
C23   C34   S    
C39   H6    S    
C20   C21   D    
C30   O2    A    
C42   H8    S    
C47   C52   T    
C26   C47   S    
C4    O11   A    
C28   O16   A    
O22   Zn4   S    
C20   C22   S    
C25   O12   A    
C13   C15   S    
C8    C28   S    
C34   C40   S    
C29   O23   A    
C42   C43   D    
C12   C51   S    
C28   O15   A    
C15   C17   S    
C31   O5    A    
C30   O25   A    
C35   H3    S    
C14   C19   S    
C41   H7    S    
C12   C45   S    
C3    C5    D    
C2    C53   D    
C6    C10   S    
O21   Zn3   S    
C6    H23   S    
C6    C7    S    
C15   H26   S    
O13   Zn1   S    
C45   H11   S    
C34   C52   S    
O1    Zn1   S    
C30   C36   S    
O11   Zn2   S    
C12   C44   S    
C26   O19   A    
C7    H18   S    
O14   Zn2   S    
C3    C53   S    
C45   C50   S    
C17   H25   S    
C49   H24   S    
C22   C24   D    
O7    Zn6   S    
C48   H14   S    
O5    Zn6   S    
O20   Zn4   S    
C10   C11   S    
C4    O10   A    
C27   C43   S    
C40   C44   S    
C21   H29   S    
O17   Zn3   S    
O15   Zn1   S    
C49   H21   S    
C29   O24   A    
C22   H20   S    
C20   H28   S    
O9    Zn6   S    
C43   H9    S    
O10   Zn1   S    
C10   H19   S    
