data_mof_unit_16275.cif
_audit_creation_date              2012-10-26T21:10:50-0400
_audit_creation_method            fapswitch 2.2
_symmetry_space_group_name_H-M    P1
_symmetry_Int_Tables_number       1
_space_group_crystal_system       triclinic
_cell_length_a                    10.924704
_cell_length_b                    14.938504
_cell_length_c                    14.907296
_cell_angle_alpha                 63.824958
_cell_angle_beta                  106.896344
_cell_angle_gamma                 103.006019
_cell_volume                      2075.78404307

loop_
_atom_site_label
_atom_site_type_symbol
_atom_type_description
_atom_site_fract_x
_atom_site_fract_y
_atom_site_fract_z
_atom_type_partial_charge
C1    C     C_R   0.475097 0.119681 0.312175 0.576733
C2    C     C_R   0.694364 0.766127 0.964675 -0.115236
C3    C     C_R   0.349411 0.163059 0.132484 -0.093928
C4    C     C_R   0.654187 0.837767 0.866576 -0.100454
C5    C     C_R   0.512393 0.286282 0.173855 -0.061667
C6    C     C_R   0.490895 0.713848 0.826958 -0.042101
C7    C     C_R   0.476100 0.360813 0.074725 0.035458
C8    C     C_R   0.527099 0.640308 0.926662 0.044214
C9    C     C_R   0.366934 0.335097 0.007829 0.023160
C10   C     C_R   0.636156 0.666634 0.993056 0.020394
C11   C     C_R   0.535310 0.462347 0.044733 -0.002171
C12   C     C_R   0.525586 0.880350 0.687809 0.576335
C13   C     C_R   0.467384 0.539034 0.957740 0.002341
C14   C     C_R   0.344352 0.510854 0.903682 0.059625
C15   C     C_R   0.657512 0.491003 0.099565 0.058946
C16   C     C_R   0.262510 0.001217 0.498513 0.586109
C17   C     C_R   0.737167 0.998641 0.501409 0.616561
C18   C     C_R   0.305150 0.410094 0.921488 -0.113843
C19   C     C_R   0.696815 0.592129 0.080586 -0.113934
C20   C     C_R   0.714711 0.280651 0.673811 -0.139511
C21   C     C_R   0.287280 0.720190 0.324856 -0.132031
C22   C     C_R   0.676283 0.198569 0.647145 0.234379
C23   C     C_R   0.870565 0.996156 0.501764 0.053565
C24   C     C_R   0.325330 0.802043 0.351785 0.231363
C25   C     C_R   0.520740 0.289644 0.503128 0.174054
C26   C     C_R   0.478495 0.710011 0.497381 0.172334
C27   C     C_R   0.546231 0.370796 0.535201 -0.007571
C28   C     C_R   0.453620 0.629210 0.464955 -0.014429
C29   C     C_R   0.653213 0.367199 0.616685 0.004605
C30   C     C_R   0.347715 0.633323 0.382670 0.002020
C31   C     C_R   0.474994 0.457236 0.487762 0.058676
C32   C     C_R   0.524281 0.542538 0.512991 0.033962
C33   C     C_R   0.645369 0.539709 0.581180 -0.117215
C34   C     C_R   0.128416 0.003107 0.498031 0.034871
C35   C     C_R   0.354244 0.460623 0.418976 -0.075357
C36   C     C_R   0.703231 0.452020 0.637232 -0.112663
C37   C     C_R   0.297491 0.548659 0.362078 -0.109952
C38   C     C_R   0.365896 0.109823 0.762442 0.015789
C39   C     C_R   0.636962 0.888089 0.236206 0.016036
C40   C     C_R   0.280515 0.048845 0.713660 0.056933
C41   C     C_R   0.718652 0.949115 0.286389 0.076218
C42   C     C_R   0.196862 0.096199 0.617485 -0.005341
C43   C     C_R   0.802592 0.902353 0.382584 0.035630
C44   C     C_R   0.190555 0.200000 0.578146 -0.095213
C45   C     C_R   0.899686 0.959773 0.437898 0.019843
C46   C     C_R   0.814070 0.799429 0.419872 -0.063607
C47   C     C_R   0.260668 0.256380 0.634194 0.060714
C48   C     C_R   0.748232 0.743672 0.362131 0.072882
C49   C     C_R   0.352040 0.212443 0.722725 -0.107242
C50   C     C_R   0.656764 0.786971 0.273331 -0.105359
C51   C     C_R   0.970216 0.031606 0.566261 0.061582
C52   C     C_R   0.027626 0.967060 0.433773 0.053089
C53   C     C_2   0.243745 0.580038 0.841579 0.563951
C54   C     C_2   0.757796 0.421909 0.163063 0.565280
C55   C     C_2   0.552669 0.693313 0.602172 0.589632
C56   C     C_R   0.098958 0.039669 0.561892 -0.002432
C57   C     C_2   0.443223 0.305139 0.399505 0.578358
C58   C     C_2   0.472295 0.070499 0.853244 0.596746
C59   C     C_2   0.529045 0.926078 0.146156 0.595706
C60   C     C_2   0.267414 0.937511 0.767914 0.605752
C61   C     C_2   0.729629 0.060398 0.232458 0.613421
C62   C     C_R   0.448906 0.188661 0.203458 0.049476
C63   C     C_R   0.553774 0.811592 0.796473 0.037595
C64   C     C_R   0.309392 0.235486 0.034860 -0.112480
Cu1   Cu    Cu3+1 0.466270 0.918260 0.475690 1.046389
Cu2   Cu    Cu3+1 0.533730 0.081740 0.524310 1.077741
H1    H     H_    0.411553 0.259209 0.761327 0.181074
H2    H     H_    0.297413 0.395213 0.410165 0.152482
H3    H     H_    0.122806 0.235305 0.507065 0.140313
H4    H     H_    0.883720 0.765039 0.489998 0.126766
H5    H     H_    0.214924 0.389565 0.876386 0.143346
H6    H     H_    0.786637 0.613056 0.125820 0.149909
H7    H     H_    0.420399 0.694571 0.768870 0.186870
H8    H     H_    0.582295 0.304789 0.232665 0.182180
H9    H     H_    0.707625 0.911431 0.843641 0.141169
H10   H     H_    0.295889 0.089413 0.154586 0.134188
H11   H     H_    0.093923 0.620086 0.720253 0.344740
H12   H     H_    0.601808 0.740973 0.232474 0.173421
H13   H     H_    0.846903 0.308959 0.180815 0.361089
H14   H     H_    0.713905 0.728311 0.694126 0.326887
H15   H     H_    0.416074 0.395029 0.248840 0.330544
H16   H     H_    0.294219 0.918720 0.216945 0.232414
H17   H     H_    0.168082 0.873938 0.271519 0.204961
H18   H     H_    0.712207 0.082405 0.782037 0.223674
H19   H     H_    0.834923 0.127868 0.723195 0.205739
H20   H     H_    0.591811 0.963896 0.939649 0.353311
H21   H     H_    0.407238 0.031266 0.060348 0.351575
H22   H     H_    0.259080 0.817157 0.901402 0.380925
H23   H     H_    0.226579 0.215291 0.983436 0.109277
H24   H     H_    0.735969 0.181153 0.098847 0.372797
H25   H     H_    0.207721 0.360644 0.662348 0.245827
H26   H     H_    0.162724 0.378301 0.539141 0.235044
H27   H     H_    0.696067 0.595912 0.391927 0.251487
H28   H     H_    0.842076 0.619967 0.460471 0.232789
H29   H     H_    0.992555 0.013290 0.713480 0.235968
H30   H     H_    0.964932 0.131080 0.623625 0.234777
H31   H     H_    0.114053 0.996733 0.317838 0.255414
H32   H     H_    0.089937 0.871311 0.398364 0.266584
H33   H     H_    0.777372 0.786833 0.015605 0.118307
H34   H     H_    0.792377 0.452421 0.693331 0.132950
H35   H     H_    0.208858 0.548624 0.305381 0.136461
H36   H     H_    0.793186 0.276478 0.739348 0.111373
H37   H     H_    0.209926 0.724815 0.258524 0.118890
H38   H     H_    0.701332 0.605504 0.589794 0.144825
N1    N     N_R   0.584450 0.204570 0.560790 -0.230908
N2    N     N_R   0.415550 0.795430 0.439210 -0.230357
N3    N     N_3   0.267773 0.892436 0.286944 -0.574683
N4    N     N_3   0.735367 0.108659 0.710772 -0.541694
N5    N     N_3   0.238579 0.357990 0.603500 -0.609977
N6    N     N_3   0.780293 0.645783 0.388186 -0.606908
N7    N     N_3   0.939920 0.054551 0.640757 -0.606976
N8    N     N_3   0.051783 0.940002 0.359865 -0.628502
O1    O     O_R   0.455540 0.022090 0.338120 -0.472217
O2    O     O_R   0.158477 0.569027 0.755716 -0.702002
O3    O     O_2   0.829220 0.430075 0.239925 -0.510530
O4    O     O_R   0.773470 0.349698 0.132834 -0.688597
O5    O     O_2   0.512598 0.625801 0.674845 -0.533283
O6    O     O_R   0.671863 0.748890 0.618702 -0.703049
O7    O     O_2   0.341240 0.253210 0.387456 -0.525849
O8    O     O_R   0.481767 0.386128 0.315292 -0.719086
O9    O     O_2   0.526107 0.120027 0.903721 -0.500703
O10   O     O_R   0.516125 0.979745 0.878645 -0.651185
O11   O     O_2   0.475483 0.875963 0.096255 -0.502162
O12   O     O_R   0.544460 0.977910 0.661880 -0.466201
O13   O     O_R   0.483497 0.016167 0.120921 -0.654004
O14   O     O_2   0.252084 0.884521 0.721395 -0.514906
O15   O     O_R   0.268641 0.893165 0.872649 -0.643179
O16   O     O_2   0.742883 0.112900 0.279120 -0.544524
O17   O     O_R   0.728939 0.105255 0.127793 -0.635311
O18   O     O_R   0.512510 0.160150 0.379180 -0.485508
O19   O     O_R   0.487490 0.839850 0.620820 -0.485705
O20   O     O_R   0.291160 0.930970 0.479480 -0.496363
O21   O     O_R   0.708840 0.069030 0.520520 -0.448546
O22   O     O_R   0.348130 0.069020 0.520540 -0.472044
O23   O     O_R   0.651870 0.930980 0.479460 -0.484598
O24   O     O_2   0.232960 0.644680 0.867230 -0.505520

loop_
_geom_bond_atom_site_label_1
_geom_bond_atom_site_label_2
_ccdc_geom_bond_type
C48   N6    S    
C34   C56   A    
C8    C13   A    
C40   C60   S    
C12   O19   A    
C27   C29   A    
C9    C64   A    
C14   C18   A    
C41   C61   S    
C16   O22   A    
C26   C55   S    
C26   N2    A    
C25   N1    A    
C39   C41   A    
C38   C49   A    
C3    C64   A    
C48   C50   A    
C7    C11   A    
H15   O8    S    
C17   C23   S    
C1    O1    A    
C23   C45   A    
C35   C37   A    
C15   C19   A    
H22   O15   S    
H26   N5    S    
C20   H36   S    
C52   N8    S    
C33   H38   S    
C33   C36   A    
C51   C56   A    
C5    H8    S    
C4    H9    S    
C16   C34   S    
C38   C58   S    
H24   O17   S    
C11   C15   A    
C54   O4    S    
C17   O23   A    
H19   N4    S    
C44   C47   A    
C61   O17   S    
H27   N6    S    
C57   O7    D    
C42   C56   S    
C40   C42   A    
C38   C40   A    
Cu2   O22   S    
C13   C14   A    
C1    C62   S    
C41   C43   A    
C19   H6    S    
C53   O24   D    
C42   C44   A    
C64   H23   S    
C50   H12   S    
C26   C28   A    
Cu1   O19   S    
H14   O6    S    
C20   C29   A    
C59   O11   D    
H30   N7    S    
C46   C48   A    
C58   O10   S    
H32   N8    S    
C27   C31   A    
C25   C57   S    
C15   C54   S    
C28   C32   A    
C47   C49   A    
C1    O18   A    
C5    C7    A    
C12   C63   S    
C6    C8    A    
C45   C52   A    
C47   N5    S    
H28   N6    S    
C30   C37   A    
C6    C63   A    
C2    C4    A    
H20   O10   S    
Cu2   O21   S    
C43   C45   S    
C23   C51   A    
C31   C32   A    
C12   O12   A    
C10   C19   A    
C39   C59   S    
C54   O3    D    
C14   C53   S    
C44   H3    S    
C36   H34   S    
C24   N3    S    
H16   N3    S    
C3    H10   S    
C29   C36   A    
Cu1   O23   S    
C57   O8    S    
C4    C63   A    
C20   C22   A    
C2    H33   S    
H31   N8    S    
C17   O21   A    
Cu2   O12   S    
C24   N2    A    
Cu2   N1    S    
H11   O2    S    
C2    C10   A    
Cu1   N2    S    
H21   O13   S    
Cu1   O20   S    
C53   O2    S    
C6    H7    S    
C55   O5    D    
C3    C62   A    
C18   H5    S    
C7    C9    A    
C58   O9    D    
C51   N7    S    
C49   H1    S    
Cu1   O1    S    
C60   O15   S    
C25   C27   A    
C22   N1    A    
C21   C30   A    
C34   C52   A    
C32   C33   A    
H25   N5    S    
C60   O14   D    
H29   N7    S    
C59   O13   S    
C37   H35   S    
C11   C13   A    
C35   H2    S    
C22   N4    S    
C28   C30   A    
H18   N4    S    
H17   N3    S    
C5    C62   A    
C61   O16   D    
C31   C35   A    
C16   O20   A    
C43   C46   A    
C46   H4    S    
C21   H37   S    
C9    C18   A    
C39   C50   A    
C8    C10   A    
Cu1   Cu2   S    
C21   C24   A    
H13   O4    S    
Cu2   O18   S    
C55   O6    S    
