data_mof_unit_59611.cif
_audit_creation_date              2013-03-05T16:16:19-0500
_audit_creation_method            fapswitch 2.2
_symmetry_space_group_name_H-M    P1
_symmetry_Int_Tables_number       1
_space_group_crystal_system       triclinic
_cell_length_a                    27.689389
_cell_length_b                    15.857791
_cell_length_c                    14.604822
_cell_angle_alpha                 90.091449
_cell_angle_beta                  89.490905
_cell_angle_gamma                 90.905691
_cell_volume                      6411.80735557

loop_
_atom_site_label
_atom_site_type_symbol
_atom_site_description
_atom_site_fract_x
_atom_site_fract_y
_atom_site_fract_z
_atom_type_partial_charge
O1    O     O_R   0.500010 0.379080 0.576170 -0.576905
O2    O     O_R   0.499990 0.620920 0.423830 -0.578172
O3    O     O_R   0.500000 0.379080 0.423800 -0.558305
O4    O     O_R   0.500000 0.620920 0.576200 -0.552152
C1    C     C_R   0.500652 0.339618 0.499995 0.818291
C2    C     C_R   0.500135 0.660449 0.499905 0.819731
O5    O     O_R   0.430270 0.500020 0.576180 -0.579867
O6    O     O_R   0.569730 0.499980 0.423820 -0.578220
O7    O     O_R   0.430260 0.500010 0.423810 -0.554418
O8    O     O_R   0.569740 0.499990 0.576190 -0.553547
C3    C     C_R   0.407164 0.500357 0.500341 0.821504
C4    C     C_R   0.592943 0.500282 0.499544 0.820749
Cu1   Cu    Cu3+1 0.500010 0.500000 0.590220 1.007469
Cu2   Cu    Cu3+1 0.499990 0.500000 0.409780 1.003615
C5    C     C_R   0.174572 0.459781 0.594360 0.616167
C6    C     C_R   0.822965 0.590274 0.524173 0.598990
O9    O     O_2   0.195250 0.418554 0.663884 -0.490813
O10   O     O_2   0.795561 0.656065 0.549212 -0.515918
N1    N     N_R   0.201533 0.515034 0.542083 -0.449082
N2    N     N_R   0.800271 0.516818 0.499152 -0.444756
C7    C     C_R   0.180488 0.591020 0.524338 0.628955
C8    C     C_R   0.825273 0.446532 0.475427 0.653637
C9    C     C_R   0.275907 0.546766 0.444446 -0.013059
C10   C     C_R   0.723500 0.466723 0.568732 -0.056764
C11   C     C_R   0.327221 0.548208 0.439923 -0.081708
C12   C     C_R   0.672614 0.459900 0.567054 -0.076101
C13   C     C_R   0.328919 0.437856 0.555578 -0.136177
C14   C     C_R   0.671968 0.548243 0.429363 -0.146335
C15   C     C_R   0.278518 0.431801 0.551654 0.401741
C16   C     C_R   0.722642 0.551851 0.429706 0.395707
C17   C     C_R   0.252022 0.499100 0.514922 0.127318
C18   C     C_R   0.748260 0.512585 0.499753 0.212385
C19   C     C_R   0.101898 0.523977 0.541111 -0.124149
C20   C     C_R   0.900248 0.522360 0.505645 -0.116838
C21   C     C_R   0.124092 0.454552 0.582817 -0.045794
C22   C     C_R   0.874095 0.596541 0.524567 -0.035617
C23   C     C_R   0.095119 0.385499 0.614898 -0.057234
C24   C     C_R   0.899874 0.672266 0.548060 -0.058418
C25   C     C_R   0.129776 0.595836 0.515760 -0.179483
C26   C     C_R   0.876039 0.445878 0.481774 -0.177901
C27   C     C_R   0.353777 0.497901 0.501078 -0.176299
C28   C     C_R   0.646526 0.502439 0.498382 -0.179911
C29   C     C_R   0.976315 0.447701 0.512733 -0.100462
C30   C     C_R   0.027791 0.599062 0.508273 -0.097197
C31   C     C_R   0.976663 0.600998 0.520241 0.085174
C32   C     C_R   0.024445 0.449397 0.544956 0.082644
C33   C     C_R   0.950919 0.523921 0.512309 0.002758
C34   C     C_R   0.051535 0.524088 0.531186 0.005163
C35   C     C_R   0.953744 0.374559 0.477594 0.324576
C36   C     C_R   0.055567 0.666685 0.471805 0.322826
C37   C     C_R   0.903679 0.372655 0.463463 0.371749
C38   C     C_R   0.106277 0.666712 0.478237 0.372140
O11   O     O_2   0.800391 0.377874 0.446765 -0.472011
O12   O     O_2   0.208224 0.661439 0.520928 -0.481920
C39   C     C_R   0.044934 0.382731 0.595788 -0.008616
C40   C     C_R   0.951232 0.674275 0.546921 -0.009178
C41   C     C_3   0.539743 0.969881 0.544890 0.340030
C42   C     C_3   0.464900 0.030470 0.453531 0.330119
C43   C     C_3   0.543356 0.030458 0.462266 0.330576
C44   C     C_3   0.461286 0.969941 0.536111 0.322308
C45   C     C_1   0.502070 0.250424 0.500560 -0.171803
C46   C     C_1   0.500587 0.749778 0.498822 -0.162459
C47   C     C_3   0.499333 0.023702 0.587761 -0.196196
C48   C     C_3   0.505281 0.976654 0.410625 -0.191138
C49   C     C_3   0.502970 0.083862 0.504772 -0.122193
C50   C     C_3   0.501677 0.916464 0.493627 -0.120956
C51   C     C_1   0.502920 0.175167 0.502615 0.053804
C52   C     C_1   0.501060 0.825093 0.496108 0.070472
C53   C     C_3   0.543171 0.529377 0.969067 0.393110
C54   C     C_3   0.458028 0.470918 0.031001 0.399552
C55   C     C_3   0.508057 0.579432 0.031625 -0.280215
C56   C     C_3   0.492983 0.420833 0.968638 -0.296703
H1    H     H_    0.515293 0.643894 0.058359 0.148099
H2    H     H_    0.486606 0.355729 0.942837 0.158187
N3    N     N_1   0.499980 0.500000 0.274190 -0.145528
N4    N     N_1   0.500020 0.500000 0.725810 -0.147747
C57   C     C_3   0.535655 0.450319 0.030124 -0.045709
C58   C     C_3   0.465489 0.549724 0.970397 -0.032343
C59   C     C_3   0.500366 0.499727 0.091861 -0.082647
C60   C     C_3   0.500554 0.500518 0.908305 -0.066011
C61   C     C_1   0.500064 0.499986 0.194258 0.214245
C62   C     C_1   0.500328 0.500181 0.805786 0.218467
C63   C     C_R   0.354578 0.376178 0.612622 0.166528
C64   C     C_R   0.352753 0.383874 0.708314 -0.081284
C65   C     C_R   0.373072 0.322244 0.763571 -0.138962
C66   C     C_R   0.394356 0.251764 0.723592 -0.113231
C67   C     C_R   0.396342 0.243678 0.628307 -0.096782
C68   C     C_R   0.376930 0.306127 0.572670 -0.075898
H3    H     H_    0.334945 0.436938 0.739904 0.123319
H4    H     H_    0.371475 0.328292 0.837374 0.162285
H5    H     H_    0.408618 0.202898 0.766598 0.155225
H6    H     H_    0.412237 0.188372 0.597711 0.174046
H7    H     H_    0.377952 0.298738 0.498941 0.154404
C69   C     C_R   0.646035 0.595609 0.358258 0.176592
C70   C     C_R   0.626101 0.674202 0.379236 -0.095839
C71   C     C_R   0.601302 0.718675 0.312334 -0.106258
C72   C     C_R   0.596039 0.684712 0.224512 -0.098893
C73   C     C_R   0.615641 0.606302 0.203407 -0.124453
C74   C     C_R   0.640684 0.561753 0.269954 -0.053360
H8    H     H_    0.629809 0.700841 0.447198 0.149911
H9    H     H_    0.586343 0.779513 0.328647 0.153577
H10   H     H_    0.576981 0.719176 0.172648 0.135206
H11   H     H_    0.611429 0.580151 0.135490 0.166797
H12   H     H_    0.655638 0.500912 0.253049 0.143477
Cl1   Cl    Cl    0.590474 0.929110 0.603734 -0.541167
Cl2   Cl    Cl    0.414179 0.071373 0.394747 -0.547156
C75   C     C_R   0.508232 0.959700 0.309088 0.212808
C76   C     C_R   0.514254 0.028097 0.248755 -0.039546
C77   C     C_R   0.517312 0.014649 0.154336 -0.139324
C78   C     C_R   0.513763 0.932874 0.119156 -0.087947
C79   C     C_R   0.507113 0.864554 0.178394 -0.155649
C80   C     C_R   0.504508 0.877709 0.273018 -0.154140
H13   H     H_    0.516724 0.091935 0.274971 0.151594
H14   H     H_    0.522435 0.067697 0.108580 0.122239
H15   H     H_    0.516146 0.922404 0.046086 0.126829
H16   H     H_    0.503981 0.801325 0.150897 0.112205
H17   H     H_    0.499497 0.823749 0.317030 0.125012
C81   C     C_R   0.496325 0.040678 0.689300 0.201780
C82   C     C_R   0.490955 0.972204 0.749719 -0.024956
C83   C     C_R   0.487842 0.985654 0.844135 -0.132703
C84   C     C_R   0.490586 0.067529 0.879243 -0.097588
C85   C     C_R   0.496444 0.135965 0.819912 -0.165773
C86   C     C_R   0.499138 0.122790 0.725279 -0.164685
H18   H     H_    0.488970 0.908288 0.723585 0.164161
H19   H     H_    0.483185 0.932526 0.889927 0.125995
H20   H     H_    0.487996 0.078002 0.952299 0.128103
H21   H     H_    0.498300 0.199430 0.847203 0.126734
H22   H     H_    0.503121 0.176922 0.681209 0.133240
Cl3   Cl    Cl    0.597318 0.575653 0.923504 -0.679302
Cl4   Cl    Cl    0.401471 0.430536 0.071969 -0.663065
C87   C     C_R   0.425169 0.603278 0.935935 0.142218
C88   C     C_R   0.422361 0.689012 0.959521 -0.157287
C89   C     C_R   0.384787 0.737872 0.926205 -0.130611
C90   C     C_R   0.349854 0.701612 0.869253 -0.076693
C91   C     C_R   0.352374 0.616348 0.845663 -0.126564
C92   C     C_R   0.389845 0.567271 0.878973 -0.102555
H23   H     H_    0.448976 0.718367 0.003522 0.117098
H24   H     H_    0.382788 0.803911 0.944493 0.142062
H25   H     H_    0.320830 0.739560 0.843443 0.149098
H26   H     H_    0.325298 0.588337 0.801560 0.140294
H27   H     H_    0.391473 0.501275 0.860314 0.133670
C93   C     C_R   0.571123 0.389146 0.069308 0.111707
C94   C     C_R   0.621272 0.402828 0.062669 -0.182421
C95   C     C_R   0.653013 0.345759 0.101902 -0.142486
C96   C     C_R   0.635027 0.274768 0.148220 -0.072605
C97   C     C_R   0.585227 0.260713 0.155417 -0.124480
C98   C     C_R   0.553399 0.317616 0.116267 -0.149308
H28   H     H_    0.636231 0.457519 0.028393 0.187974
H29   H     H_    0.691614 0.356813 0.096723 0.158644
H30   H     H_    0.659665 0.230798 0.178714 0.161658
H31   H     H_    0.571284 0.205874 0.191583 0.147978
H32   H     H_    0.514858 0.306139 0.122922 0.156339
Cl5   Cl    Cl    0.253853 0.327865 0.552278 -0.582529
Cl6   Cl    Cl    0.754779 0.606141 0.341981 -0.564654
C99   C     C_R   0.116740 0.315274 0.666467 0.132685
C100  C     C_R   0.111025 0.310472 0.761925 -0.094786
C101  C     C_R   0.130932 0.243588 0.810251 -0.118513
C102  C     C_R   0.156586 0.181327 0.763611 -0.109512
C103  C     C_R   0.162326 0.185784 0.668538 -0.068519
C104  C     C_R   0.142440 0.252514 0.619946 -0.062626
H33   H     H_    0.091112 0.358333 0.798566 0.129287
H34   H     H_    0.126448 0.239982 0.883836 0.144956
H35   H     H_    0.171973 0.129594 0.801125 0.144353
H36   H     H_    0.182143 0.137503 0.632491 0.166626
H37   H     H_    0.146825 0.255260 0.546242 0.163972
C105  C     C_R   0.874056 0.748947 0.577957 0.142557
C106  C     C_R   0.868300 0.766586 0.671604 -0.116479
C107  C     C_R   0.844725 0.839654 0.699690 -0.117859
C108  C     C_R   0.826756 0.895276 0.634574 -0.088615
C109  C     C_R   0.832295 0.877904 0.541221 -0.093012
C110  C     C_R   0.855879 0.804950 0.512798 -0.074996
H38   H     H_    0.882253 0.723977 0.722494 0.125187
H39   H     H_    0.840434 0.853224 0.771925 0.143575
H40   H     H_    0.808547 0.951842 0.656454 0.146605
H41   H     H_    0.818379 0.921036 0.490903 0.163572
H42   H     H_    0.860172 0.792087 0.440354 0.159901
C111  C     C_R   0.647086 0.405160 0.634852 0.112986
C112  C     C_R   0.626311 0.328102 0.606805 -0.148666
C113  C     C_R   0.602812 0.275755 0.670506 -0.099606
C114  C     C_R   0.599473 0.300364 0.762261 -0.129892
C115  C     C_R   0.619846 0.377174 0.790505 -0.115365
C116  C     C_R   0.643746 0.429472 0.727159 -0.061068
H43   H     H_    0.628683 0.308439 0.535864 0.146645
H44   H     H_    0.587442 0.215978 0.648677 0.159705
H45   H     H_    0.581352 0.259806 0.811612 0.136842
H46   H     H_    0.617246 0.395949 0.861540 0.167348
H47   H     H_    0.659531 0.488774 0.749761 0.168692
C117  C     C_R   0.353148 0.601790 0.371640 0.092091
C118  C     C_R   0.356239 0.576446 0.279594 -0.071405
C119  C     C_R   0.380810 0.627211 0.215660 -0.115679
C120  C     C_R   0.402291 0.703353 0.243181 -0.137677
C121  C     C_R   0.399422 0.728754 0.334762 -0.095971
C122  C     C_R   0.375256 0.677909 0.399046 -0.147740
H48   H     H_    0.339620 0.517623 0.257617 0.168410
H49   H     H_    0.383049 0.607786 0.144716 0.177706
H50   H     H_    0.420949 0.742761 0.193432 0.129268
H51   H     H_    0.415707 0.787981 0.356016 0.160468
H52   H     H_    0.373344 0.698068 0.469865 0.153981
C123  C     C_R   0.751479 0.424648 0.641368 0.102988
C124  C     C_R   0.776811 0.473037 0.706267 -0.164993
C125  C     C_R   0.803927 0.433463 0.773592 -0.136862
C126  C     C_R   0.805837 0.345491 0.776649 -0.120246
C127  C     C_R   0.780791 0.296942 0.712168 -0.112504
C128  C     C_R   0.753702 0.336267 0.644646 -0.058729
H53   H     H_    0.775475 0.541230 0.704727 0.164832
H54   H     H_    0.823417 0.470989 0.823462 0.144599
H55   H     H_    0.826696 0.314930 0.829001 0.130019
H56   H     H_    0.782445 0.228836 0.714404 0.144623
H57   H     H_    0.734777 0.298035 0.594548 0.162214
C129  C     C_R   0.247509 0.581619 0.367050 0.113670
C130  C     C_R   0.252405 0.666575 0.340052 -0.025092
C131  C     C_R   0.225741 0.697275 0.266812 -0.073642
C132  C     C_R   0.193595 0.643978 0.220434 -0.076115
C133  C     C_R   0.188136 0.559793 0.247066 -0.116100
C134  C     C_R   0.214997 0.528611 0.319800 -0.169744
H58   H     H_    0.276087 0.709458 0.376725 0.164192
H59   H     H_    0.229645 0.762680 0.246619 0.156409
H60   H     H_    0.172781 0.668001 0.164071 0.145771
H61   H     H_    0.163141 0.518589 0.211206 0.153113
H62   H     H_    0.210534 0.463042 0.339245 0.159735
Cl7   Cl    Cl    0.877806 0.276306 0.424333 -0.451037
Cl8   Cl    Cl    0.138809 0.754095 0.432208 -0.478042
Cl9   Cl    Cl    0.989286 0.292283 0.432019 -0.547102
Cl10  Cl    Cl    0.028390 0.740040 0.397788 -0.546481
C135  C     C_R   0.012717 0.319392 0.642797 0.107048
C136  C     C_R   0.975756 0.347148 0.701723 -0.178331
C137  C     C_R   0.945277 0.288984 0.746218 -0.112065
C138  C     C_R   0.951480 0.202589 0.732807 -0.093464
C139  C     C_R   0.988232 0.174198 0.674921 -0.108741
C140  C     C_R   0.018754 0.232143 0.630130 -0.047036
H63   H     H_    0.970611 0.413911 0.713283 0.128118
H64   H     H_    0.916937 0.310954 0.791338 0.130317
H65   H     H_    0.927819 0.157646 0.767299 0.129413
H66   H     H_    0.992961 0.107245 0.664447 0.122972
H67   H     H_    0.046415 0.208982 0.584204 0.151220
C141  C     C_R   0.977682 0.746069 0.591797 0.105646
C142  C     C_R   0.005946 0.730917 0.669445 -0.182324
C143  C     C_R   0.030279 0.797376 0.713103 -0.102941
C144  C     C_R   0.026436 0.879631 0.680158 -0.099406
C145  C     C_R   0.998302 0.895556 0.603395 -0.106477
C146  C     C_R   0.973988 0.829289 0.559417 -0.033883
H68   H     H_    0.008964 0.667616 0.696334 0.129251
H69   H     H_    0.052025 0.785109 0.772691 0.141279
H70   H     H_    0.045272 0.931032 0.714073 0.130193
H71   H     H_    0.995470 0.959242 0.577690 0.140644
H72   H     H_    0.953073 0.842657 0.499089 0.155423
Cl11  Cl    Cl    0.598813 0.071422 0.416289 -0.574183
Cl12  Cl    Cl    0.405751 0.929361 0.582124 -0.565515

loop_
_geom_bond_atom_site_label_1
_geom_bond_atom_site_label_2
_geom_bond_distance
_ccdc_geom_bond_type
C141  C146  1.408130 A    
C41   Cl1   1.783735 S    
C67   C68   1.398954 A    
C47   C49   1.545237 S    
C38   Cl8   1.770955 S    
C119  C120  1.397595 A    
C111  C116  1.404241 A    
C13   C15   1.399022 A    
C75   C80   1.404701 A    
C23   C99   1.482416 S    
C53   C57   1.549916 S    
C70   C71   1.397497 A    
C41   C50   1.540393 S    
C127  C128  1.397804 A    
N1    C17   1.475336 S    
C55   C59   1.551945 S    
C96   C97   1.396405 A    
C71   H9    1.081327 S    
C91   C92   1.398049 A    
C125  H54   1.082266 S    
C65   C66   1.396423 A    
C141  C142  1.406687 A    
O5    C3    1.284100 A    
C36   Cl10  1.770352 S    
C43   C48   1.546594 S    
C124  H53   1.082889 S    
C142  H68   1.083215 S    
C44   C47   1.545763 S    
O1    C1    1.275699 A    
C15   Cl5   1.774105 S    
C100  C101  1.398092 A    
N1    C7    1.372781 A    
C144  C145  1.396468 A    
C10   C12   1.411861 A    
C113  H44   1.081670 S    
C133  H61   1.082274 S    
C7    O12   1.345989 S    
C58   C60   1.542712 S    
C41   C43   1.545129 S    
Cu2   N3    1.980270 S    
C54   C58   1.542704 S    
C109  C110  1.398095 A    
C42   C44   1.544163 S    
C136  H63   1.083252 S    
C123  C128  1.404761 A    
C54   Cl4   1.781389 S    
C56   C60   1.552115 S    
C76   C77   1.397055 A    
C14   C69   1.480202 S    
C108  C109  1.398116 A    
C85   H21   1.082506 S    
C53   C55   1.554497 S    
C137  C138  1.396715 A    
C45   C51   1.194449 T    
C78   C79   1.396423 A    
C57   C93   1.508273 S    
C4    C28   1.483476 S    
C56   C57   1.556017 S    
C19   C21   1.410997 A    
C120  H50   1.081637 S    
C118  H48   1.083041 S    
C129  C130  1.408466 A    
C101  C102  1.398146 A    
C43   C49   1.539154 S    
C63   C64   1.403225 A    
C10   C123  1.484582 S    
C124  C125  1.397982 A    
C49   C51   1.448313 S    
C128  H57   1.082981 S    
C36   C38   1.408091 A    
C108  H40   1.082343 S    
C3    C27   1.478087 S    
C79   H16   1.082009 S    
C13   C63   1.480054 S    
C72   H10   1.080938 S    
C6    N2    1.365603 A    
C116  H47   1.083019 S    
C57   C59   1.545294 S    
C63   C68   1.403836 A    
C54   C59   1.540594 S    
C44   C50   1.539776 S    
C123  C124  1.404172 A    
C82   H18   1.083236 S    
Cu1   Cu2   2.635299 S    
C81   C82   1.405501 A    
C107  H39   1.082240 S    
O2    C2    1.274834 A    
C6    C22   1.417723 A    
C5    C21   1.410474 A    
C138  C139  1.396777 A    
C29   C32   1.417122 A    
C122  H52   1.083176 S    
C72   C73   1.397431 A    
C8    O11   1.347317 S    
C109  H41   1.082266 S    
C31   C33   1.410300 A    
C42   C48   1.545052 S    
C91   H26   1.082312 S    
C32   C34   1.405696 A    
C126  C127  1.397472 A    
C146  H72   1.081745 S    
C132  C133  1.396626 A    
C112  C113  1.397359 A    
C115  H46   1.080980 S    
C130  H58   1.081796 S    
C64   C65   1.396762 A    
C31   C40   1.420396 A    
C56   H2    1.110494 S    
C87   C92   1.403605 A    
C143  C144  1.396986 A    
C11   C27   1.416796 A    
C90   H25   1.082335 S    
C55   H1    1.109590 S    
C47   C81   1.508583 S    
C70   H8    1.083189 S    
C88   C89   1.398294 A    
O6    Cu2   1.943730 S    
C35   C37   1.403218 A    
C88   H23   1.081377 S    
C115  C116  1.398515 A    
C143  H69   1.082272 S    
C120  C121  1.398184 A    
C25   C38   1.420696 A    
C117  C118  1.404764 A    
C42   Cl2   1.783874 S    
C9    C17   1.429256 A    
C76   H13   1.083117 S    
C32   C39   1.421132 A    
C112  H43   1.083240 S    
C5    N1    1.370869 A    
O7    Cu2   1.939812 S    
C10   C18   1.410025 A    
C130  C131  1.397623 A    
C139  C140  1.397876 A    
C11   C117  1.484107 S    
C89   C90   1.397612 A    
C13   C27   1.409236 A    
C42   C49   1.540097 S    
C103  C104  1.397996 A    
C7    C25   1.414139 A    
Cu1   N4    1.980270 S    
C16   Cl6   1.770185 S    
C103  H36   1.082265 S    
O6    C4    1.284054 A    
C8    C26   1.409748 A    
C71   C72   1.398238 A    
C135  C136  1.406837 A    
C138  H65   1.082337 S    
C29   C35   1.407167 A    
C1    C45   1.415620 S    
C140  H67   1.081852 S    
C19   C25   1.414189 A    
C104  H37   1.083052 S    
C82   C83   1.397104 A    
C89   H24   1.082482 S    
O7    C3    1.282852 A    
C84   C85   1.396374 A    
C144  H70   1.082416 S    
O3    Cu2   1.928757 S    
O8    C4    1.285697 A    
C119  H49   1.081997 S    
C111  C112  1.404378 A    
C102  H35   1.082289 S    
C60   C62   1.497342 S    
C107  C108  1.398196 A    
C9    C129  1.494320 S    
N2    C8    1.364023 A    
C117  C122  1.404091 A    
C136  C137  1.397427 A    
C69   C70   1.403343 A    
C126  H55   1.082111 S    
C105  C106  1.403762 A    
C20   C26   1.420899 A    
O4    C2    1.279311 A    
O1    Cu1   1.928148 S    
C64   H3    1.082553 S    
C75   C76   1.405483 A    
N4    C62   1.168138 T    
C87   C88   1.405151 A    
C106  C107  1.398067 A    
C83   C84   1.396377 A    
C66   C67   1.397989 A    
C48   C75   1.508419 S    
C59   C61   1.495436 S    
C97   C98   1.397710 A    
N2    C18   1.440611 S    
C12   C111  1.484773 S    
C30   C36   1.411942 A    
C5    O9    1.345567 S    
C68   H7    1.083131 S    
C74   H12   1.083203 S    
C79   C80   1.398687 A    
C21   C23   1.424576 A    
C99   C104  1.403619 A    
C133  C134  1.397657 A    
C93   C98   1.405974 A    
C58   C87   1.504105 S    
N3    C61   1.167377 T    
C30   C31   1.425706 A    
C96   H30   1.082298 S    
C41   C47   1.545472 S    
C95   C96   1.397027 A    
O3    C1    1.277974 A    
O8    Cu1   1.939812 S    
C145  H71   1.082259 S    
C100  H33   1.083110 S    
C54   C56   1.550329 S    
C65   H4    1.082570 S    
C44   Cl12  1.783832 S    
C106  H38   1.083133 S    
C50   C52   1.449280 S    
C24   C105  1.483430 S    
C113  C114  1.397826 A    
C26   C37   1.424425 A    
C110  H42   1.083056 S    
C90   C91   1.397424 A    
C135  C140  1.407981 A    
C125  C126  1.397680 A    
C46   C52   1.194915 T    
C80   H17   1.077525 S    
C66   H5    1.080075 S    
C132  H60   1.082256 S    
C121  C122  1.397677 A    
C2    C46   1.416527 S    
C22   C24   1.430093 A    
C98   H32   1.083269 S    
C84   H20   1.081480 S    
C15   C17   1.413724 A    
C73   H11   1.081056 S    
C134  H62   1.083188 S    
C121  H51   1.081644 S    
C16   C18   1.402262 A    
C39   C135  1.496322 S    
C86   H22   1.077415 S    
C102  C103  1.397962 A    
C139  H66   1.082271 S    
C69   C74   1.404316 A    
C37   Cl7   1.773164 S    
C53   Cl3   1.782753 S    
C77   H14   1.081997 S    
C101  H34   1.082243 S    
C14   C28   1.418977 A    
C145  C146  1.397581 A    
C83   H19   1.081920 S    
C92   H27   1.082544 S    
C14   C16   1.403442 A    
C137  H64   1.081735 S    
C127  H56   1.082271 S    
C20   C22   1.416652 A    
C81   C86   1.404641 A    
C9    C11   1.421631 A    
C12   C28   1.418867 A    
C118  C119  1.398787 A    
O2    Cu2   1.928145 S    
C95   H29   1.082380 S    
C142  C143  1.397962 A    
C94   H28   1.077351 S    
C105  C110  1.404634 A    
C114  H45   1.081553 S    
C129  C134  1.406595 A    
C97   H31   1.082379 S    
C23   C39   1.419755 A    
C30   C34   1.409836 A    
O5    Cu1   1.943730 S    
C24   C40   1.421881 A    
C131  C132  1.396598 A    
C6    O10   1.347912 S    
C73   C74   1.397915 A    
C131  H59   1.082243 S    
C77   C78   1.396426 A    
C99   C100  1.403749 A    
C19   C34   1.403357 A    
C93   C94   1.404581 A    
C40   C141  1.497302 S    
C53   C60   1.545854 S    
C43   Cl11  1.783916 S    
C20   C33   1.407122 A    
C85   C86   1.398989 A    
C67   H6    1.081663 S    
C29   C33   1.407974 A    
C78   H15   1.081338 S    
C55   C58   1.552637 S    
C35   Cl9   1.772006 S    
C114  C115  1.397424 A    
C94   C95   1.398393 A    
O4    Cu1   1.928755 S    
C48   C50   1.545654 S    
