data_mof_unit_64586.cif
_audit_creation_date              2012-12-10T19:49:42-0500
_audit_creation_method            fapswitch 2.2
_symmetry_space_group_name_H-M    P1
_symmetry_Int_Tables_number       1
_space_group_crystal_system       triclinic
_cell_length_a                    10.815901
_cell_length_b                    16.06979
_cell_length_c                    17.196607
_cell_angle_alpha                 96.889269
_cell_angle_beta                  90.720421
_cell_angle_gamma                 92.8922
_cell_volume                      2963.04626036

loop_
_atom_site_label
_atom_site_type_symbol
_atom_type_description
_atom_site_fract_x
_atom_site_fract_y
_atom_site_fract_z
_atom_type_partial_charge
C1    C     C_R   0.500081 0.488995 0.349537 0.873447
C2    C     C_R   0.498917 0.511042 0.650529 0.949309
C3    C     C_R   0.871409 0.499369 0.498872 -0.285994
C4    C     C_R   0.128663 0.500468 0.501216 -0.277484
C5    C     C_R   0.931632 0.435016 0.453311 -0.199584
C6    C     C_R   0.068488 0.564626 0.547008 -0.201941
C7    C     C_R   0.508914 0.482833 0.264238 -0.342371
C8    C     C_R   0.490233 0.517359 0.735974 -0.253692
C9    C     C_R   0.599727 0.533941 0.232108 0.356268
C10   C     C_R   0.408492 0.461239 0.769407 0.318932
C11   C     C_R   0.613510 0.526196 0.150715 0.565110
C12   C     C_R   0.400136 0.467211 0.851035 0.558810
C13   C     C_R   0.538074 0.468299 0.102001 -0.232579
C14   C     C_R   0.472357 0.528053 0.898715 -0.181361
C15   C     C_R   0.449273 0.415069 0.133929 0.407512
C16   C     C_R   0.552191 0.586333 0.865695 0.308569
C17   C     C_R   0.432547 0.423834 0.214874 0.359779
C18   C     C_R   0.561284 0.580318 0.783456 0.361042
C19   C     C_2   0.543189 0.472356 0.017580 0.372633
C20   C     C_2   0.469441 0.525044 0.983356 0.366332
C21   C     C_R   0.443809 0.745883 0.457939 0.615759
C22   C     C_R   0.555347 0.254122 0.542505 0.620113
C23   C     C_R   0.262613 0.500123 0.500594 0.876501
C24   C     C_R   0.737414 0.499844 0.499370 0.907893
C25   C     C_R   0.452023 0.831939 0.453320 0.490453
C26   C     C_R   0.546987 0.168060 0.547072 0.488906
C27   C     C_R   0.533813 0.883938 0.503713 -0.450561
C28   C     C_R   0.465878 0.116074 0.496220 -0.455387
C29   C     C_R   0.605840 0.847654 0.557956 0.451022
C30   C     C_R   0.394756 0.152330 0.441514 0.461696
C31   C     C_R   0.595515 0.760717 0.560130 0.648095
C32   C     C_R   0.405298 0.239264 0.439331 0.647277
C33   C     C_2   0.549065 0.975504 0.496763 0.598849
C34   C     C_2   0.450514 0.024516 0.503102 0.598868
C35   C     C_R   0.254932 0.677461 0.720769 0.560382
C36   C     C_R   0.745928 0.320558 0.280039 0.567941
C37   C     C_R   0.181534 0.615794 0.674480 0.281614
C38   C     C_R   0.820287 0.382234 0.325650 0.292157
C39   C     C_R   0.138152 0.631760 0.599477 -0.101535
C40   C     C_R   0.862122 0.367407 0.401307 -0.102905
C41   C     C_R   0.167174 0.711296 0.573748 0.432176
C42   C     C_R   0.831772 0.288577 0.428082 0.434122
C43   C     C_R   0.240991 0.771230 0.621387 -0.227850
C44   C     C_R   0.757563 0.228430 0.380947 -0.229158
C45   C     C_R   0.286265 0.755091 0.694068 0.245765
C46   C     C_R   0.713048 0.243722 0.307822 0.245108
C47   C     C_R   0.939954 0.563510 0.545502 0.619398
C48   C     C_R   0.060145 0.436220 0.454732 0.606883
Cu1   Cu    Cu3+1 0.493640 0.415410 0.495980 1.102474
Cu2   Cu    Cu3+1 0.506360 0.584590 0.504020 1.115285
H1    H     H_    0.264673 0.831207 0.601110 0.239226
H2    H     H_    0.732886 0.168996 0.401992 0.238556
N1    N     N_R   0.515930 0.711660 0.510070 -0.391986
N2    N     N_R   0.484070 0.288340 0.489930 -0.391395
O1    O     O_R   0.494030 0.420280 0.382610 -0.573407
O2    O     O_R   0.505970 0.579720 0.617390 -0.541585
O3    O     O_R   0.504770 0.563150 0.389400 -0.491465
O4    O     O_R   0.495230 0.436850 0.610600 -0.506579
O5    O     O_R   0.314270 0.428570 0.496610 -0.505030
O6    O     O_R   0.685730 0.571430 0.503390 -0.495762
O7    O     O_R   0.325020 0.571440 0.503400 -0.580811
O8    O     O_R   0.674980 0.428560 0.496600 -0.578963
O9    O     O_3   0.360324 0.816736 0.737327 -0.616981
H3    H     H_    0.387442 0.796068 0.786469 0.405151
O10   O     O_3   0.638304 0.182011 0.265178 -0.612043
H4    H     H_    0.612070 0.201996 0.215534 0.409640
O11   O     O_3   0.372798 0.356565 0.088205 -0.564290
H5    H     H_    0.400450 0.350844 0.033309 0.378762
O12   O     O_3   0.624422 0.647782 0.911163 -0.644249
H6    H     H_    0.603905 0.648767 0.967104 0.389329
F1    F     F_    0.323600 0.412612 0.884673 -0.600181
F2    F     F_    0.697861 0.576730 0.118262 -0.596237
F3    F     F_    0.365211 0.696124 0.408483 -0.555821
F4    F     F_    0.633425 0.303860 0.592324 -0.551651
F5    F     F_    0.335063 0.274607 0.387750 -0.511560
F6    F     F_    0.666917 0.725337 0.611056 -0.496965
O13   O     O_3   0.335137 0.989173 0.517836 -0.660450
H7    H     H_    0.276094 0.034576 0.525123 0.374744
O14   O     O_3   0.664423 0.010923 0.482086 -0.660913
H8    H     H_    0.723459 0.965534 0.474572 0.375218
F7    F     F_    0.685913 0.895938 0.607874 -0.514665
F8    F     F_    0.315424 0.104012 0.391125 -0.508898
F9    F     F_    0.614136 0.136262 0.602785 -0.510476
F10   F     F_    0.384172 0.863684 0.397900 -0.510626
F11   F     F_    0.295070 0.661385 0.792342 -0.609109
F12   F     F_    0.706337 0.335838 0.208096 -0.606045
O15   O     O_3   0.155326 0.541275 0.705104 -0.622480
H9    H     H_    0.097678 0.504212 0.669917 0.349744
O16   O     O_3   0.849204 0.455570 0.293672 -0.619701
H10   H     H_    0.907311 0.492612 0.328556 0.348238
O17   O     O_3   0.128620 0.732951 0.502229 -0.602575
H11   H     H_    0.078471 0.686108 0.472910 0.359722
O18   O     O_3   0.869441 0.267851 0.500128 -0.601400
H12   H     H_    0.920732 0.314562 0.528752 0.360805
F13   F     F_    0.881860 0.623644 0.591721 -0.556304
F14   F     F_    0.118226 0.375934 0.408693 -0.575202
O19   O     O_3   0.674205 0.590121 0.281695 -0.659747
H13   H     H_    0.734422 0.620270 0.250759 0.399485
O20   O     O_3   0.336902 0.402223 0.720873 -0.658448
H14   H     H_    0.283199 0.368411 0.752747 0.402423
O21   O     O_3   0.641039 0.633307 0.747520 -0.589587
H15   H     H_    0.683864 0.675030 0.787094 0.415858
O22   O     O_3   0.338397 0.374958 0.242977 -0.542093
H16   H     H_    0.310856 0.402977 0.293729 0.370318
O23   O     O_3   0.387294 0.577102 0.023957 -0.615355
H17   H     H_    0.391381 0.572927 0.080761 0.326864
O24   O     O_3   0.626309 0.421032 0.977092 -0.608406
H18   H     H_    0.629974 0.430806 0.921509 0.331277

loop_
_geom_bond_atom_site_label_1
_geom_bond_atom_site_label_2
_ccdc_geom_bond_type
C30   C32   A    
O15   H9    S    
O18   H12   S    
C27   C29   A    
C42   O18   S    
C11   C13   A    
C19   C20   D    
C32   F5    S    
O19   H13   S    
C39   C41   A    
O13   H7    S    
C27   C33   S    
C23   O5    A    
C38   O16   S    
C26   F9    S    
C35   C37   A    
C34   O13   S    
Cu1   N2    S    
C21   F3    S    
C7    C9    A    
C7    C17   A    
C25   F10   S    
C9    O19   S    
O24   H18   S    
C36   C46   A    
C44   H2    S    
C40   C42   A    
C28   C34   S    
C38   C40   A    
C41   C43   A    
C3    C24   S    
O12   H6    S    
C42   C44   A    
C32   N2    A    
C44   C46   A    
C37   C39   A    
C5    C48   A    
Cu2   N1    S    
C6    C47   A    
C13   C19   S    
O11   H5    S    
O21   H15   S    
C14   C20   S    
C46   O10   S    
C22   N2    A    
O17   H11   S    
C4    C23   S    
C11   F2    S    
C33   O14   S    
C36   F12   S    
Cu1   O1    S    
C45   O9    S    
Cu2   O2    S    
Cu1   O4    S    
O14   H8    S    
C18   O21   S    
C30   F8    S    
C29   F7    S    
C1    O3    A    
C9    C11   A    
O20   H14   S    
C24   O6    A    
C15   O11   S    
C33   C34   D    
C16   C18   A    
C31   N1    A    
C43   C45   A    
C10   C12   A    
C4    C6    A    
C41   O17   S    
C12   F1    S    
C12   C14   A    
Cu1   Cu2   S    
C13   C15   A    
C14   C16   A    
C22   F4    S    
C36   C38   A    
C35   C45   A    
C20   O23   S    
C4    C48   A    
C15   C17   A    
C21   C25   A    
C24   O8    A    
Cu1   O8    S    
C48   F14   S    
C1    C7    S    
Cu2   O3    S    
C37   O15   S    
C2    C8    S    
C16   O12   S    
C3    C5    A    
C2    O4    A    
C25   C27   A    
O23   H17   S    
C26   C28   A    
Cu1   O5    S    
Cu2   O6    S    
C28   C30   A    
C1    O1    A    
C29   C31   A    
C2    O2    A    
C21   N1    A    
C35   F11   S    
C43   H1    S    
C31   F6    S    
C3    C47   A    
C17   O22   S    
C10   O20   S    
C8    C18   A    
O9    H3    S    
C23   O7    A    
C8    C10   A    
O10   H4    S    
C22   C26   A    
C5    C40   S    
O22   H16   S    
Cu2   O7    S    
C47   F13   S    
C6    C39   S    
O16   H10   S    
C19   O24   S    
