data_mof_unit_29432.cif
_audit_creation_date              2012-12-11T14:21:08-0500
_audit_creation_method            fapswitch 2.2
_symmetry_space_group_name_H-M    P1
_symmetry_Int_Tables_number       1
_space_group_crystal_system       triclinic
_cell_length_a                    11.661317
_cell_length_b                    11.690133
_cell_length_c                    19.492079
_cell_angle_alpha                 90.409157
_cell_angle_beta                  89.950994
_cell_angle_gamma                 59.955797
_cell_volume                      2300.09339106

loop_
_atom_site_label
_atom_site_type_symbol
_atom_type_description
_atom_site_fract_x
_atom_site_fract_y
_atom_site_fract_z
_atom_type_partial_charge
C1    C     C_R   0.640223 0.116684 0.599122 0.548835
C2    C     C_1   0.653086 0.149066 0.668476 0.008369
C3    C     C_R   0.636043 0.708319 0.181800 0.027848
C4    C     C_R   0.612026 0.746646 0.598457 0.552000
C5    C     C_R   0.520675 0.730048 0.215784 -0.018933
C6    C     C_R   0.525804 0.710819 0.286703 0.011201
C7    C     C_R   0.722086 0.735925 0.288621 -0.137154
C8    C     C_R   0.729340 0.725020 0.217238 0.171143
C9    C     C_R   0.411544 0.743119 0.178390 -0.011932
C10   C     C_R   0.336648 0.691727 0.204118 -0.063893
C11   C     C_R   0.344508 0.663981 0.272818 -0.133591
C12   C     C_1   0.640873 0.704170 0.667807 0.008371
C13   C     C_R   0.431225 0.681011 0.314694 -0.072613
C14   C     C_R   0.626037 0.720133 0.324762 -0.010434
C15   C     C_R   0.137441 0.203504 0.195594 0.013050
C16   C     C_R   0.241738 0.144970 0.598012 0.556455
C17   C     C_R   0.150676 0.296031 0.235878 -0.011308
C18   C     C_R   0.245625 0.249588 0.287445 0.002913
C19   C     C_R   0.245469 0.042511 0.285960 -0.111526
C20   C     C_R   0.182598 0.077007 0.222473 0.207047
C21   C     C_R   0.060437 0.433173 0.233646 -0.044073
C22   C     C_R   0.077704 0.519274 0.276588 -0.116774
C23   C     C_1   0.126299 0.199450 0.859437 0.007251
C24   C     C_R   0.190647 0.471669 0.315989 -0.111476
C25   C     C_R   0.282500 0.337706 0.314578 -0.054776
C26   C     C_R   0.275809 0.129456 0.320065 -0.051448
C27   C     C_R   0.697130 0.193638 0.205258 -0.027027
C28   C     C_R   0.650687 0.117130 0.407079 0.530416
C29   C     C_R   0.795644 0.076406 0.239858 0.028977
C30   C     C_R   0.804037 0.078563 0.311557 0.017402
C31   C     C_R   0.606925 0.288179 0.318911 0.024119
C32   C     C_R   0.609792 0.303106 0.247120 -0.171614
C33   C     C_R   0.887886 0.956487 0.207494 0.031727
C34   C     C_1   0.171529 0.170447 0.727638 -0.028957
C35   C     C_R   0.991494 0.854285 0.244227 -0.038203
C36   C     C_R   0.011206 0.871924 0.312553 -0.111217
C37   C     C_R   0.919385 0.985568 0.345898 -0.056822
C38   C     C_R   0.691956 0.166921 0.348062 -0.008401
C39   C     C_R   0.080891 0.231810 0.928728 0.543098
C40   C     C_R   0.610136 0.749298 0.398774 0.548146
C41   C     C_R   0.684095 0.603726 0.929637 0.543454
C42   C     C_R   0.708817 0.207037 0.930248 0.547837
C43   C     C_R   0.072702 0.242118 0.128419 0.557445
C44   C     C_R   0.676936 0.621747 0.121041 0.565213
C45   C     C_1   0.149998 0.182741 0.798988 -0.028403
C46   C     C_R   0.714347 0.214193 0.130794 0.546346
C47   C     C_R   0.306187 0.113669 0.394297 0.545161
C48   C     C_1   0.670446 0.646099 0.860267 0.010419
C49   C     C_1   0.654547 0.683710 0.728338 -0.028993
C50   C     C_1   0.663376 0.666514 0.799724 -0.028533
C51   C     C_2   0.553255 0.399944 0.367163 0.552908
C52   C     C_1   0.195567 0.160823 0.667202 0.005843
C53   C     C_1   0.678920 0.191408 0.860904 0.007897
C54   C     C_1   0.658778 0.166819 0.728948 -0.028492
C55   C     C_1   0.665953 0.180792 0.800376 -0.028241
Cl1   Cl    Cl    0.854242 0.729315 0.170130 -0.723785
Cl2   Cl    Cl    0.140650 0.969758 0.183723 -0.681236
Cr1   Cr    Cr6+3 0.404720 0.198220 0.499960 1.060715
Cr2   Cr    Cr6+3 0.698290 0.897110 0.500380 1.026932
Cr3   Cr    Cr6+3 0.396970 0.904720 0.499610 1.024113
Cr4   Cr    Cr6+3 0.926180 0.151990 0.028120 1.085981
Cr5   Cr    Cr6+3 0.921330 0.451820 0.027470 1.081934
Cr6   Cr    Cr6+3 0.626260 0.446870 0.028710 1.031658
H1    H     H_    0.791559 0.755366 0.315682 0.155040
H2    H     H_    0.395920 0.775952 0.125550 0.167771
H3    H     H_    0.267361 0.681371 0.171509 0.144708
H4    H     H_    0.281141 0.632095 0.293796 0.121647
H5    H     H_    0.425317 0.660585 0.367430 0.198862
H6    H     H_    0.264376 0.951529 0.309810 0.168709
H7    H     H_    0.969825 0.471533 0.205003 0.191990
H8    H     H_    0.598961 0.501597 0.435381 0.342661
H9    H     H_    0.003862 0.621714 0.280876 0.150825
H10   H     H_    0.201238 0.536228 0.351938 0.146859
H11   H     H_    0.369297 0.301444 0.345318 0.191296
H12   H     H_    0.880836 0.935484 0.154433 0.212921
H13   H     H_    0.549166 0.399607 0.224731 0.149254
H14   H     H_    0.060377 0.763620 0.218256 0.158996
H15   H     H_    0.093864 0.796500 0.340672 0.098638
H16   H     H_    0.933966 0.997124 0.399855 0.141495
O1    O     O_R   0.267740 0.231960 0.575440 -0.495677
O2    O     O_R   0.596130 0.579390 0.952730 -0.508853
O3    O     O_R   0.639060 0.321160 0.958670 -0.493397
O4    O     O_R   0.527280 0.186640 0.570530 -0.487397
O5    O     O_R   0.821240 0.124200 0.104370 -0.503242
O6    O     O_R   0.036890 0.167040 0.097840 -0.428706
O7    O     O_R   0.056180 0.349610 0.102880 -0.518559
O8    O     O_R   0.797660 0.564870 0.097950 -0.442456
O9    O     O_R   0.595880 0.584250 0.104270 -0.549257
O10   O     O_R   0.638830 0.325670 0.099150 -0.496507
O11   O     O_3   0.824590 0.350230 0.028100 -0.285589
O12   O     O_R   0.685970 0.784660 0.430010 -0.498696
O13   O     O_R   0.728090 0.003450 0.576380 -0.506545
O14   O     O_R   0.682970 0.789190 0.570490 -0.488886
O15   O     O_R   0.499290 0.771880 0.575530 -0.502586
O16   O     O_R   0.285330 0.030870 0.569730 -0.489676
O17   O     O_R   0.270980 0.227080 0.423890 -0.499829
O18   O     O_R   0.530280 0.182120 0.430050 -0.503577
O19   O     O_R   0.731330 0.998570 0.424830 -0.531530
O20   O     O_2   0.439672 0.449336 0.388277 -0.583602
O21   O     O_R   0.640260 0.436316 0.395995 -0.696650
O22   O     O_R   0.502530 0.767000 0.423990 -0.552262
O23   O     O_R   0.288330 0.026350 0.429250 -0.498519
O24   O     O_3   0.499990 0.000020 0.499980 -0.290366
O25   O     O_R   0.821500 0.119340 0.952830 -0.498780
O26   O     O_R   0.037130 0.162530 0.957360 -0.493297
O27   O     O_R   0.056440 0.344740 0.951340 -0.500880
O28   O     O_R   0.797900 0.560360 0.957470 -0.488727

loop_
_geom_bond_atom_site_label_1
_geom_bond_atom_site_label_2
_ccdc_geom_bond_type
C28   O18   A    
C39   O27   A    
C23   C45   T    
Cr6   O9    S    
C27   C29   A    
C53   C55   T    
C19   C20   A    
C42   O3    A    
Cr1   O18   S    
C8    Cl1   S    
C12   C49   T    
C7    C8    A    
C46   O10   A    
C37   H16   S    
Cr6   O2    S    
C36   C37   A    
C25   H11   S    
C42   C53   S    
C5    C6    A    
C24   H10   S    
C29   C33   A    
C30   C38   A    
C39   O26   A    
C1    C2    S    
C19   C26   A    
Cr1   O17   S    
C40   O22   A    
C33   H12   S    
C7    C14   A    
C35   C36   A    
C18   C26   A    
C47   O17   A    
C4    C12   S    
C44   O8    A    
Cr4   O26   S    
C9    C10   A    
Cr1   O1    S    
C48   C50   T    
C47   O23   A    
C21   C22   A    
C18   C25   A    
Cr3   O23   S    
C22   H9    S    
C11   H4    S    
C10   H3    S    
C51   O20   D    
C15   C20   A    
C3    C44   S    
Cr6   O3    S    
C43   O6    A    
Cr4   O25   S    
C24   C25   A    
C3    C8    A    
C2    C54   T    
Cr5   O28   S    
C35   H14   S    
C17   C21   A    
C30   C37   A    
C16   O1    A    
C5    C9    A    
C29   C30   A    
C6    C14   A    
Cr5   O7    S    
C31   C32   A    
C28   C38   S    
C41   O2    A    
Cr6   O10   S    
C17   C18   A    
C34   C45   S    
Cr2   O12   S    
Cr4   O6    S    
C26   C47   S    
C4    O15   A    
C27   C46   S    
C1    O13   A    
C22   C24   A    
C19   H6    S    
Cr3   O22   S    
Cr3   O24   S    
Cr4   O11   S    
Cr5   O8    S    
C28   O19   A    
C51   O21   S    
C15   C17   A    
C54   C55   S    
C16   O16   A    
C41   O28   A    
C27   C32   A    
C43   O7    A    
C16   C52   S    
C31   C51   S    
C3    C5    A    
Cr4   O5    S    
C42   O25   A    
C32   H13   S    
Cr5   O27   S    
C1    O4    A    
H8    O21   S    
C34   C52   T    
C31   C38   A    
C21   H7    S    
Cr2   O24   S    
C15   C43   S    
C36   H15   S    
Cr1   O4    S    
C6    C13   A    
C11   C13   A    
C23   C39   S    
Cr5   O11   S    
Cr6   O11   S    
C33   C35   A    
C41   C48   S    
C46   O5    A    
Cr2   O13   S    
C40   O12   A    
C9    H2    S    
C7    H1    S    
C10   C11   A    
C14   C40   S    
C4    O14   A    
Cr3   O16   S    
C49   C50   S    
Cr2   O19   S    
Cr1   O24   S    
Cr2   O14   S    
C20   Cl2   S    
C44   O9    A    
C13   H5    S    
Cr3   O15   S    
