data_mof_unit_50349.cif
_audit_creation_date              2012-12-10T19:16:17-0500
_audit_creation_method            fapswitch 2.2
_symmetry_space_group_name_H-M    P1
_symmetry_Int_Tables_number       1
_space_group_crystal_system       triclinic
_cell_length_a                    11.035556
_cell_length_b                    10.132625
_cell_length_c                    27.052502
_cell_angle_alpha                 88.319505
_cell_angle_beta                  91.745151
_cell_angle_gamma                 87.635064
_cell_volume                      3019.59261768

loop_
_atom_site_label
_atom_site_type_symbol
_atom_type_description
_atom_site_fract_x
_atom_site_fract_y
_atom_site_fract_z
_atom_type_partial_charge
C1    C     C_R   0.262017 0.501376 0.509166 0.911251
C2    C     C_R   0.305602 0.580971 0.289077 -0.094635
C3    C     C_R   0.384447 0.542780 0.251890 0.101791
C4    C     C_R   0.302577 0.614949 0.100198 -0.137067
C5    C     C_R   0.232643 0.526272 0.127325 -0.110975
C6    C     C_R   0.136932 0.462967 0.102989 0.357829
C7    C     C_R   0.391202 0.687094 0.124731 -0.030786
C8    C     C_R   0.459113 0.507258 0.352197 -0.131718
C9    C     C_R   0.457954 0.510211 0.647305 -0.133307
C10   C     C_R   0.219746 0.528719 0.971595 0.072641
C11   C     C_R   0.334605 0.730769 0.969091 -0.022631
C12   C     C_R   0.496162 0.501545 0.405646 0.990223
C13   C     C_R   0.281625 0.625064 0.944442 -0.025352
C14   C     C_R   0.184728 0.412541 0.947832 0.430651
C15   C     C_R   0.194200 0.403012 0.895808 -0.149983
C16   C     C_R   0.249380 0.504667 0.868188 -0.125670
C17   C     C_R   0.295260 0.613906 0.893060 -0.128888
C18   C     C_R   0.359680 0.710016 0.866916 -0.093749
C19   C     C_R   0.390261 0.685560 0.817880 0.655692
C20   C     C_R   0.265405 0.499382 0.816547 0.672859
C21   C     C_R   0.352972 0.651231 0.706390 0.460537
C22   C     C_R   0.392738 0.627526 0.658888 -0.270769
C23   C     C_R   0.742093 0.497015 0.501568 0.937216
C24   C     C_R   0.480152 0.412804 0.685619 -0.273886
C25   C     C_R   0.442836 0.438129 0.734438 0.340850
C26   C     C_R   0.377824 0.556257 0.744079 0.229748
C27   C     C_R   0.207639 0.544662 0.023340 0.004620
C28   C     C_R   0.287888 0.626967 0.048237 -0.083536
C29   C     C_R   0.356186 0.717723 0.021072 0.100676
C30   C     C_R   0.119007 0.481574 0.051081 0.409813
C31   C     C_R   0.463319 0.771374 0.097643 -0.205892
C32   C     C_R   0.367036 0.843049 0.940679 -0.110021
C33   C     C_R   0.392392 0.826880 0.890321 0.404360
C34   C     C_R   0.493412 0.499758 0.594340 0.954486
C35   C     C_R   0.449885 0.784184 0.046009 0.456537
C36   C     C_3   0.063891 0.621471 0.542979 -0.377008
C37   C     C_3   0.081722 0.373677 0.542286 -0.229884
C38   C     C_3   0.920805 0.627334 0.533656 0.205655
C39   C     C_3   0.938475 0.365799 0.539133 0.170087
C40   C     C_3   0.075892 0.509516 0.460625 -0.485277
C41   C     C_3   0.124192 0.501888 0.515730 -0.148149
C42   C     C_3   0.880716 0.493254 0.506733 -0.227553
C43   C     C_3   0.937451 0.487755 0.452698 -0.227515
C44   C     C_3   0.370505 0.086550 0.496055 -0.303038
C45   C     C_3   0.375084 0.927906 0.483706 -0.292108
C46   C     C_3   0.566768 0.080320 0.455571 0.222752
C47   C     C_3   0.584493 0.920361 0.461158 0.133930
C48   C     C_3   0.574655 0.069813 0.542602 0.649285
C49   C     C_3   0.542684 0.915732 0.548207 0.633514
C50   C     C_R   0.262324 0.502930 0.178029 0.671857
C51   C     C_R   0.411427 0.666877 0.175733 0.600063
C52   C     C_R   0.497352 0.478357 0.264269 -0.047846
C53   C     C_R   0.535535 0.462634 0.314555 -0.196236
C54   C     C_R   0.340587 0.556130 0.339319 0.397397
H1    H     H_    0.534784 0.822803 0.116321 0.195339
H2    H     H_    0.098830 0.701500 0.522009 0.203817
H3    H     H_    0.118640 0.293830 0.519512 0.234806
H4    H     H_    0.097510 0.608822 0.445408 0.213786
H5    H     H_    0.130986 0.441257 0.438255 0.244595
H6    H     H_    0.658445 0.121814 0.454785 0.163642
H7    H     H_    0.680377 0.899499 0.472997 0.158976
H8    H     H_    0.368700 0.701474 0.630399 0.235265
N1    N     N_R   0.350780 0.572455 0.200805 -0.353060
N2    N     N_R   0.342330 0.582264 0.793773 -0.334474
N3    N     N_3   0.499750 0.138610 0.498940 -0.139274
N4    N     N_3   0.499750 0.861390 0.498940 -0.161492
O1    O     O_R   0.314910 0.616040 0.499990 -0.582139
O2    O     O_R   0.314910 0.383960 0.499990 -0.640439
O3    O     O_R   0.500140 0.616020 0.428740 -0.498702
O4    O     O_R   0.500140 0.383980 0.428740 -0.537725
O5    O     O_R   0.685320 0.616040 0.499970 -0.524656
O6    O     O_R   0.685320 0.383960 0.499970 -0.588577
O7    O     O_R   0.500090 0.616050 0.571230 -0.561120
O8    O     O_R   0.500090 0.383950 0.571230 -0.497982
O9    O     O_2   0.206078 0.409579 0.204265 -0.418656
O10   O     O_2   0.205792 0.412682 0.788936 -0.488002
O11   O     O_2   0.493380 0.738471 0.200054 -0.504962
O12   O     O_2   0.469337 0.762231 0.794626 -0.442226
Zn1   Zn    Zn3+2 0.500150 0.654960 0.499980 1.119433
Zn2   Zn    Zn3+2 0.500150 0.345040 0.499980 1.115436
O13   O     O_3   0.260357 0.573275 0.376864 -0.765029
H9    H     H_    0.191186 0.632026 0.365162 0.355202
C55   C     C_2   0.575692 0.431297 0.223851 0.992491
O14   O     O_2   0.684136 0.451986 0.224806 -0.540678
O15   O     O_R   0.524494 0.365004 0.184243 -0.786563
H10   H     H_    0.586217 0.339462 0.158836 0.358402
C56   C     C_2   0.352664 0.978630 0.961251 1.005755
O16   O     O_2   0.289100 0.995949 0.996966 -0.606196
O17   O     O_R   0.407746 0.086922 0.939626 -0.750615
H11   H     H_    0.390212 0.172099 0.957334 0.354402
C57   C     C_2   0.540602 0.284763 0.676517 1.056562
O18   O     O_2   0.648589 0.279528 0.668536 -0.543766
O19   O     O_R   0.478952 0.167797 0.682699 -0.729055
H12   H     H_    0.389990 0.184133 0.689754 0.343589
O20   O     O_3   0.442828 0.926158 0.862946 -0.631666
H13   H     H_    0.512887 0.956366 0.882738 0.389554
O21   O     O_3   0.470080 0.351915 0.774307 -0.697130
H14   H     H_    0.535473 0.287279 0.766247 0.368387
O22   O     O_3   0.534430 0.850680 0.019244 -0.766026
H15   H     H_    0.593629 0.890111 0.042197 0.352752
C58   C     C_2   0.102404 0.656725 0.596048 0.998778
O23   O     O_2   0.097182 0.578599 0.630867 -0.553261
O24   O     O_R   0.114722 0.789958 0.606561 -0.728554
H16   H     H_    0.119810 0.806400 0.643278 0.371828
C59   C     C_2   0.142766 0.340837 0.592950 1.044925
O25   O     O_2   0.235350 0.394556 0.605525 -0.623194
O26   O     O_R   0.098894 0.242638 0.624240 -0.741462
H17   H     H_    0.148414 0.230060 0.656359 0.364442
C60   C     C_2   0.852331 0.657016 0.581568 1.031888
O27   O     O_2   0.874895 0.756466 0.604173 -0.539054
O28   O     O_R   0.754791 0.584158 0.596932 -0.826713
H18   H     H_    0.719233 0.616962 0.628686 0.368613
C61   C     C_2   0.878419 0.351303 0.589281 1.011512
O29   O     O_2   0.789513 0.284349 0.592530 -0.512759
O30   O     O_R   0.921289 0.413194 0.631504 -0.757943
H19   H     H_    0.872897 0.392975 0.661868 0.394483
C62   C     C_2   0.188329 0.649073 0.274348 0.923496
O31   O     O_2   0.093563 0.593184 0.280039 -0.528054
O32   O     O_R   0.187224 0.775226 0.252013 -0.764148
H20   H     H_    0.102107 0.810881 0.242776 0.372788
O33   O     O_3   0.887765 0.739529 0.502968 -0.748573
H21   H     H_    0.947578 0.754203 0.477114 0.365130
O34   O     O_3   0.922866 0.244402 0.515699 -0.691624
H22   H     H_    0.837195 0.231704 0.507849 0.419035
C63   C     C_2   0.886848 0.590502 0.413336 0.953831
O35   O     O_2   0.794398 0.657331 0.419160 -0.513451
O36   O     O_R   0.942972 0.604577 0.367957 -0.686744
H23   H     H_    0.008173 0.533582 0.363055 0.339985
C64   C     C_2   0.915601 0.356707 0.427142 1.003477
O37   O     O_2   0.998991 0.290442 0.410425 -0.564197
O38   O     O_R   0.797890 0.313581 0.421001 -0.805809
H24   H     H_    0.796239 0.223606 0.405708 0.338865
C65   C     C_2   0.283334 0.158922 0.457166 1.057594
O39   O     O_2   0.175750 0.134781 0.456457 -0.535396
O40   O     O_R   0.321661 0.247053 0.421052 -0.656375
H25   H     H_    0.254366 0.279968 0.396868 0.365459
C66   C     C_2   0.342125 0.894482 0.428917 1.088815
O41   O     O_2   0.320563 0.781048 0.419698 -0.568003
O42   O     O_R   0.333118 0.987250 0.389580 -0.710470
H26   H     H_    0.310347 0.947364 0.356795 0.370628
C67   C     C_2   0.306877 0.117117 0.545325 0.905481
O43   O     O_2   0.349833 0.192122 0.574341 -0.520364
O44   O     O_R   0.193979 0.069050 0.556434 -0.752738
H27   H     H_    0.186779 0.049456 0.593090 0.394126
C68   C     C_2   0.268370 0.869634 0.508566 1.016243
O45   O     O_2   0.280326 0.810489 0.548101 -0.554830
O46   O     O_R   0.151580 0.898454 0.487636 -0.776277
H28   H     H_    0.085304 0.905096 0.512649 0.405600
O47   O     O_3   0.513712 0.120621 0.409712 -0.627113
H29   H     H_    0.575008 0.106520 0.384068 0.366283
O48   O     O_3   0.574237 0.859625 0.415229 -0.658194
H30   H     H_    0.644722 0.884810 0.395564 0.364831
O49   O     O_3   0.700616 0.078537 0.534687 -0.828646
H31   H     H_    0.748814 0.047407 0.564681 0.397076
O50   O     O_3   0.642417 0.837945 0.567516 -0.730327
H32   H     H_    0.709052 0.841193 0.544498 0.364796
O51   O     O_3   0.555854 0.133659 0.586919 -0.618040
H33   H     H_    0.603318 0.083540 0.613552 0.374539
O52   O     O_3   0.453031 0.906133 0.583714 -0.726987
H34   H     H_    0.491169 0.904011 0.617485 0.376024
O53   O     O_3   0.062727 0.383751 0.130111 -0.662894
H35   H     H_    0.029566 0.316226 0.108284 0.360552
O54   O     O_3   0.290289 0.767157 0.717111 -0.714134
H36   H     H_    0.296415 0.831443 0.689049 0.350188
C69   C     C_2   0.154181 0.281627 0.871893 0.990549
O55   O     O_2   0.047092 0.255086 0.871756 -0.560253
O56   O     O_R   0.239744 0.196039 0.851033 -0.692558
H37   H     H_    0.201892 0.115617 0.836602 0.372328
O57   O     O_3   0.155361 0.304813 0.977290 -0.696504
H38   H     H_    0.156480 0.222496 0.958655 0.354521
O58   O     O_3   0.012239 0.449028 0.027175 -0.686372
H39   H     H_    0.946562 0.447444 0.051307 0.349566
C70   C     C_2   0.654989 0.399214 0.326572 1.014396
O59   O     O_2   0.737352 0.466536 0.340621 -0.547152
O60   O     O_R   0.676725 0.266236 0.316101 -0.780942
H40   H     H_    0.765556 0.237387 0.320249 0.362618

loop_
_geom_bond_atom_site_label_1
_geom_bond_atom_site_label_2
_ccdc_geom_bond_type
C10   C27   A    
O2    Zn2   S    
C56   O16   D    
O19   H12   S    
C21   O54   S    
C19   O12   S    
O57   H38   S    
O20   H13   S    
C21   C26   A    
C43   C63   S    
O5    Zn1   S    
O53   H35   S    
C36   C41   S    
C53   C70   S    
O40   H25   S    
C69   O55   D    
C70   O59   D    
C52   C53   A    
N4    Zn1   S    
C59   O26   S    
O51   H33   S    
C23   C42   S    
C55   O14   D    
C45   C68   S    
C28   C29   A    
C64   O37   D    
C62   O32   S    
O52   H34   S    
C5    C6    A    
C3    C52   A    
C9    C22   A    
C57   O19   S    
O44   H27   S    
O21   H14   S    
C1    O2    A    
C39   O34   S    
C20   O10   S    
C18   C19   A    
C26   N2    S    
O24   H16   S    
C4    C28   A    
O47   H29   S    
C40   C43   S    
O46   H28   S    
C16   C17   A    
C39   C61   S    
O48   H30   S    
C48   N3    S    
C47   N4    S    
C57   O18   D    
C51   N1    A    
C8    C12   S    
C12   O3    A    
C63   O35   D    
C66   O41   D    
C58   O24   S    
N3    Zn2   S    
O8    Zn2   S    
C21   C22   A    
C27   C30   A    
C65   O40   S    
C50   N1    A    
C44   N3    S    
C14   O57   S    
C35   O22   S    
C33   O20   S    
C68   O46   S    
C2    C62   S    
C68   O45   D    
C39   C42   S    
C70   O60   S    
C37   C39   S    
C7    C31   A    
C49   N4    S    
O4    Zn2   S    
C38   O33   S    
C58   O23   D    
C23   O5    A    
O34   H22   S    
C40   H4    S    
C24   C25   A    
C46   N3    S    
C10   C14   A    
C8    C54   A    
O56   H37   S    
C44   C67   S    
C4    C7    A    
C25   C26   A    
O15   H10   S    
C32   C56   S    
C6    C30   A    
O13   H9    S    
C61   O30   S    
C36   C58   S    
C67   O44   S    
C20   N2    A    
C52   C55   S    
C51   O11   S    
C37   C59   S    
C36   H2    S    
C22   H8    S    
C66   O42   S    
O60   H40   S    
C6    O53   S    
C43   C64   S    
C19   N2    A    
C16   C20   A    
C45   C66   S    
C17   C18   A    
O7    Zn1   S    
O1    Zn1   S    
C38   C60   S    
O58   H39   S    
O33   H21   S    
C34   O8    A    
C25   O21   S    
C48   C49   S    
C55   O15   S    
C48   O49   S    
C47   O48   S    
C11   C32   A    
C56   O17   S    
C2    C54   A    
C65   O39   D    
C31   C35   A    
C5    C50   A    
O3    Zn1   S    
C42   C43   S    
O26   H17   S    
O36   H23   S    
C24   C57   S    
C45   N4    S    
C44   C45   S    
C63   O36   S    
C61   O29   D    
C48   O51   S    
C1    C41   S    
C44   C65   S    
C12   O4    A    
C46   C47   S    
C40   C41   S    
O28   H18   S    
C46   H6    S    
C23   O6    A    
C49   O50   S    
C15   C69   S    
C4    C5    A    
C10   C13   A    
C8    C53   A    
C47   H7    S    
O42   H26   S    
C9    C24   A    
C38   C42   S    
C3    N1    S    
C59   O25   D    
C29   C35   A    
C62   O31   D    
O22   H15   S    
C13   C17   A    
C31   H1    S    
C32   C33   A    
C60   O28   S    
C2    C3    A    
O49   H31   S    
C7    C51   A    
O6    Zn2   S    
C50   O9    S    
C11   C13   A    
O30   H19   S    
C9    C34   S    
C36   C38   S    
C1    O1    A    
C37   C41   S    
O38   H24   S    
C18   C33   A    
C30   O58   S    
O54   H36   S    
C34   O7    A    
C46   O47   S    
C11   C29   A    
C69   O56   S    
O32   H20   S    
C60   O27   D    
O50   H32   S    
C40   H5    S    
C14   C15   A    
C49   O52   S    
C64   O38   S    
O17   H11   S    
C67   O43   D    
C54   O13   S    
C37   H3    S    
C15   C16   A    
C27   C28   A    
