data_mof_unit_54308.cif
_audit_creation_date              2012-12-11T14:46:10-0500
_audit_creation_method            fapswitch 2.2
_symmetry_space_group_name_H-M    P1
_symmetry_Int_Tables_number       1
_space_group_crystal_system       triclinic
_cell_length_a                    10.946818
_cell_length_b                    10.911495
_cell_length_c                    18.764226
_cell_angle_alpha                 90.145977
_cell_angle_beta                  90.246402
_cell_angle_gamma                 119.580912
_cell_volume                      1949.13421393

loop_
_atom_site_label
_atom_site_type_symbol
_atom_type_description
_atom_site_fract_x
_atom_site_fract_y
_atom_site_fract_z
_atom_type_partial_charge
C1    C     C_R   0.868860 0.636297 0.605188 0.542611
C2    C     C_R   0.937286 0.132475 0.705945 -0.011514
C3    C     C_R   0.949645 0.143390 0.781528 0.007304
C4    C     C_R   0.206777 0.594392 0.610726 0.556840
C5    C     C_R   0.721396 0.141365 0.712162 0.047598
C6    C     C_R   0.749616 0.184721 0.783602 -0.012501
C7    C     C_R   0.587546 0.104898 0.682681 0.199450
C8    C     C_R   0.504041 0.149288 0.718271 -0.110531
C9    C     C_R   0.546630 0.219438 0.783368 -0.152752
C10   C     C_R   0.668489 0.237143 0.816117 -0.080562
C11   C     C_R   0.832310 0.148678 0.671324 -0.035206
C12   C     C_R   0.252926 0.531770 0.801724 -0.132532
C13   C     C_R   0.705823 0.567877 0.709488 0.134431
C14   C     C_R   0.692490 0.570070 0.783463 -0.121954
C15   C     C_R   0.811868 0.648493 0.826496 -0.001979
C16   C     C_R   0.859700 0.222117 0.601728 0.533211
C17   C     C_R   0.944824 0.719193 0.796128 -0.133635
C18   C     C_R   0.957783 0.723103 0.723525 -0.150183
C19   C     C_R   0.840215 0.648016 0.679485 0.056076
C20   C     C_R   0.400532 0.613407 0.298621 -0.127839
C21   C     C_R   0.412692 0.611204 0.225749 0.128923
C22   C     C_R   0.375638 0.695533 0.182526 0.041194
C23   C     C_R   0.216509 0.507971 0.730271 -0.146316
C24   C     C_R   0.324665 0.777231 0.214128 -0.197262
C25   C     C_R   0.304417 0.770575 0.287291 -0.151882
C26   C     C_R   0.337534 0.683771 0.328921 -0.000207
C27   C     C_R   0.701637 0.086156 0.299617 -0.142004
C28   C     C_R   0.867093 0.636723 0.396738 0.544320
C29   C     C_R   0.681676 0.051782 0.228064 -0.150009
C30   C     C_R   0.796719 0.084374 0.184555 0.015122
C31   C     C_R   0.932851 0.148494 0.213379 -0.158700
C32   C     C_R   0.953373 0.184105 0.285136 -0.147889
C33   C     C_R   0.837996 0.156935 0.327969 0.020001
C34   C     C_R   0.236695 0.619871 0.686880 0.013421
C35   C     C_R   0.851736 0.770915 0.296871 -0.160052
C36   C     C_R   0.841000 0.783198 0.224523 -0.156983
C37   C     C_R   0.811786 0.670663 0.178395 0.068122
C38   C     C_R   0.790702 0.541991 0.204808 0.098421
C39   C     C_R   0.797555 0.528340 0.278378 -0.131630
C40   C     C_R   0.274362 0.636788 0.397903 0.551673
C41   C     C_R   0.830601 0.643920 0.323863 0.001288
C42   C     C_R   0.809654 0.106187 0.895204 0.540221
C43   C     C_R   0.390791 0.698785 0.897669 0.546557
C44   C     C_R   0.796728 0.689435 0.897844 0.547186
C45   C     C_R   0.850163 0.163938 0.821565 -0.041142
C46   C     C_R   0.769843 0.045956 0.109942 0.547371
C47   C     C_R   0.405826 0.707527 0.106726 0.544895
C48   C     C_R   0.798345 0.694441 0.104140 0.561895
C49   C     C_R   0.861212 0.226588 0.396593 0.538873
C50   C     C_R   0.283728 0.754053 0.717106 -0.150582
C51   C     C_R   0.323283 0.779010 0.788424 -0.149797
C52   C     C_R   0.314013 0.669096 0.830291 0.022974
C53   C     C_3   0.559875 0.908060 0.606292 -0.290777
C54   C     C_3   0.542615 0.565168 0.621191 -0.276925
C55   C     C_3   0.346717 0.377004 0.185282 -0.275677
C56   C     C_R   0.062199 0.134802 0.813808 -0.084533
C57   C     C_3   0.896030 0.447631 0.125599 -0.285792
C58   C     C_R   0.147181 0.098867 0.773759 -0.136137
C59   C     C_R   0.125527 0.076383 0.700635 -0.125181
C60   C     C_R   0.024074 0.096403 0.666616 -0.088717
Cr1   Cr    Cr6+3 0.791660 0.390250 0.499930 1.032810
Cr2   Cr    Cr6+3 0.098520 0.708290 0.500540 0.987812
Cr3   Cr    Cr6+3 0.109770 0.401430 0.499480 0.987953
Cr4   Cr    Cr6+3 0.874790 0.925890 0.000070 0.996718
Cr5   Cr    Cr6+3 0.574120 0.948670 0.999300 1.005267
Cr6   Cr    Cr6+3 0.551420 0.625320 0.000920 1.021186
H1    H     H_    0.407484 0.132336 0.694582 0.086062
H2    H     H_    0.879463 0.860789 0.331409 0.133227
H3    H     H_    0.857265 0.881703 0.203853 0.140162
H4    H     H_    0.786499 0.431019 0.299488 0.143303
H5    H     H_    0.177431 0.403381 0.708275 0.145155
H6    H     H_    0.185632 0.041613 0.669651 0.098409
H7    H     H_    0.697664 0.289332 0.867563 0.136242
H8    H     H_    0.295399 0.841269 0.685141 0.130876
H9    H     H_    0.440584 0.010427 0.599581 0.238895
H10   H     H_    0.666126 0.943706 0.584759 0.138035
H11   H     H_    0.484685 0.834989 0.565999 0.167896
H12   H     H_    0.588569 0.517564 0.806649 0.126678
H13   H     H_    0.547016 0.850495 0.656855 0.142463
H14   H     H_    0.482972 0.256490 0.809532 0.097553
H15   H     H_    0.501227 0.406630 0.692888 0.243953
H16   H     H_    0.466929 0.493334 0.580689 0.180329
H17   H     H_    0.632832 0.650481 0.592515 0.133485
H18   H     H_    0.492228 0.612059 0.654148 0.150974
H19   H     H_    0.426909 0.547166 0.330819 0.126894
H20   H     H_    0.538736 0.521029 0.226477 0.247547
H21   H     H_    0.389320 0.315780 0.158040 0.146215
H22   H     H_    0.262843 0.375458 0.151110 0.162466
H23   H     H_    0.038437 0.780540 0.828184 0.141014
H24   H     H_    0.300714 0.325708 0.236958 0.111031
H25   H     H_    0.576801 0.003306 0.205980 0.134736
H26   H     H_    0.022888 0.173151 0.180400 0.122396
H27   H     H_    0.710075 0.331230 0.180232 0.261004
H28   H     H_    0.967188 0.443757 0.166929 0.145418
H29   H     H_    0.951432 0.549607 0.096921 0.147601
H30   H     H_    0.869605 0.361907 0.086322 0.178449
H31   H     H_    0.242315 0.444163 0.833321 0.130226
H32   H     H_    0.228729 0.086493 0.799796 0.099554
H33   H     H_    0.088184 0.158486 0.869553 0.129893
H34   H     H_    0.061604 0.784080 0.701797 0.137059
H35   H     H_    0.008868 0.076189 0.609835 0.125675
H36   H     H_    0.297741 0.843146 0.182165 0.124898
H37   H     H_    0.368778 0.885276 0.809379 0.137101
H38   H     H_    0.254941 0.826107 0.310407 0.149158
H39   H     H_    0.611236 0.064522 0.331767 0.135625
H40   H     H_    0.059729 0.240149 0.305907 0.135514
N1    N     N_2   0.536808 0.026749 0.617389 -0.489729
N2    N     N_2   0.585247 0.485493 0.666136 -0.500838
N3    N     N_2   0.458765 0.520111 0.197032 -0.462249
N4    N     N_2   0.768667 0.429858 0.158142 -0.512204
O1    O     O_R   0.766500 0.250040 0.579790 -0.466150
O2    O     O_R   0.413330 0.603360 0.920440 -0.530955
O3    O     O_R   0.676110 0.626250 0.926750 -0.507899
O4    O     O_R   0.798570 0.516780 0.574780 -0.464722
O5    O     O_R   0.895350 0.809870 0.080950 -0.544040
O6    O     O_R   0.872490 0.049760 0.073800 -0.515301
O7    O     O_R   0.691680 0.088070 0.079070 -0.523795
O8    O     O_R   0.451720 0.825250 0.074050 -0.529727
O9    O     O_R   0.413580 0.606370 0.080960 -0.487052
O10   O     O_R   0.676340 0.629040 0.075550 -0.468249
O11   O     O_3   0.666780 0.833290 0.000090 -0.263491
O12   O     O_R   0.218690 0.701900 0.425960 -0.501248
O13   O     O_R   0.984000 0.732950 0.581090 -0.551978
O14   O     O_R   0.218600 0.700890 0.574760 -0.523701
O15   O     O_R   0.249390 0.515350 0.579940 -0.543224
O16   O     O_R   0.982790 0.280900 0.573700 -0.528917
O17   O     O_R   0.766600 0.251130 0.419260 -0.525355
O18   O     O_R   0.798660 0.517790 0.425980 -0.508382
O19   O     O_R   0.984100 0.734040 0.420570 -0.516597
O20   O     O_R   0.249490 0.516440 0.419420 -0.524076
O21   O     O_R   0.982880 0.281910 0.424890 -0.505499
O22   O     O_3   0.999980 0.499990 0.499980 -0.262582
O23   O     O_R   0.895110 0.806860 0.920430 -0.517256
O24   O     O_R   0.872260 0.046970 0.925000 -0.499242
O25   O     O_R   0.691430 0.085060 0.918550 -0.513060
O26   O     O_R   0.451490 0.822460 0.925250 -0.497999

loop_
_geom_bond_atom_site_label_1
_geom_bond_atom_site_label_2
_ccdc_geom_bond_type
H9    N1    S    
Cr4   O6    S    
Cr6   O3    S    
C27   C29   A    
C35   C36   A    
C58   H32   S    
Cr2   O12   S    
C54   H18   S    
C7    C8    A    
C39   C41   A    
C27   C33   A    
C49   O21   A    
C12   C23   A    
C29   C30   A    
C4    O15   A    
C36   C37   A    
C53   H13   S    
C15   C44   S    
C5    C11   A    
C55   H24   S    
C50   H8    S    
C30   C31   A    
C10   H7    S    
C2    C60   A    
C43   C52   S    
C27   H39   S    
C33   C49   S    
Cr4   O11   S    
C28   C41   S    
C4    O14   A    
C28   O19   A    
C3    C56   A    
Cr3   O20   S    
C55   H22   S    
C54   H17   S    
Cr1   O22   S    
C47   O8    A    
C57   N4    S    
C8    C9    A    
C57   H30   S    
Cr5   O8    S    
Cr5   O11   S    
C38   N4    S    
C9    C10   A    
C24   H36   S    
H27   N4    S    
C47   O9    A    
C22   C47   S    
H15   N2    S    
C59   C60   A    
Cr4   O5    S    
C32   H40   S    
C13   C14   A    
C55   N3    S    
Cr2   O19   S    
C16   O16   A    
C18   H34   S    
C13   N2    S    
C2    C11   A    
Cr2   O14   S    
Cr2   O13   S    
C12   C52   A    
C50   C51   A    
Cr4   O24   S    
C38   C39   A    
C49   O17   A    
C4    C34   S    
C34   C50   A    
C1    C19   S    
C13   C19   A    
C6    C45   A    
C51   C52   A    
Cr3   O16   S    
C23   H5    S    
H20   N3    S    
C17   H23   S    
C24   C25   A    
C48   O10   A    
C5    C7    A    
C18   C19   A    
C58   C59   A    
C3    C45   A    
C46   O7    A    
C42   O25   A    
C42   C45   S    
C53   H11   S    
C1    O13   A    
C37   C38   A    
Cr2   O22   S    
C11   C16   S    
C53   N1    S    
C31   C32   A    
C23   C34   A    
C20   H19   S    
C17   C18   A    
Cr6   O11   S    
Cr1   O17   S    
Cr5   O25   S    
Cr3   O22   S    
C37   C48   S    
C12   H31   S    
Cr3   O15   S    
C48   O5    A    
C44   O3    A    
Cr3   O21   S    
C57   H28   S    
C57   H29   S    
C22   C24   A    
C53   H10   S    
C1    O4    A    
C60   H35   S    
Cr1   O1    S    
C54   H16   S    
C36   H3    S    
C44   O23   A    
C15   C17   A    
C40   O20   A    
Cr4   O23   S    
C30   C46   S    
C6    C10   A    
C21   N3    S    
C25   H38   S    
C46   O6    A    
C40   O12   A    
C59   H6    S    
C54   N2    S    
Cr6   O9    S    
C32   C33   A    
C2    C3    A    
C25   C26   A    
C26   C40   S    
C5    C6    A    
C20   C26   A    
C35   H2    S    
C39   H4    S    
C56   C58   A    
C42   O24   A    
Cr1   O18   S    
C7    N1    S    
C14   H12   S    
C55   H21   S    
C43   O26   A    
C35   C41   A    
Cr5   O26   S    
C20   C21   A    
C8    H1    S    
C31   H26   S    
C43   O2    A    
Cr1   O4    S    
Cr5   O7    S    
C14   C15   A    
Cr6   O10   S    
C56   H33   S    
Cr6   O2    S    
C21   C22   A    
C51   H37   S    
C9    H14   S    
C28   O18   A    
C16   O1    A    
C29   H25   S    
