data_mof_unit_55882.cif
_audit_creation_date              2012-12-10T18:09:10-0500
_audit_creation_method            fapswitch 2.2
_symmetry_space_group_name_H-M    P1
_symmetry_Int_Tables_number       1
_space_group_crystal_system       triclinic
_cell_length_a                    12.753699
_cell_length_b                    13.873057
_cell_length_c                    27.582654
_cell_angle_alpha                 90.276601
_cell_angle_beta                  93.156884
_cell_angle_gamma                 98.217548
_cell_volume                      4822.43974902

loop_
_atom_site_label
_atom_site_type_symbol
_atom_type_description
_atom_site_fract_x
_atom_site_fract_y
_atom_site_fract_z
_atom_type_partial_charge
C1    C     C_R   0.483407 0.315819 0.499929 0.833622
C2    C     C_R   0.516595 0.684214 0.500279 0.810949
C3    C     C_R   0.522998 0.404371 0.103535 -0.035689
C4    C     C_R   0.501877 0.431113 0.898088 -0.035308
C5    C     C_R   0.432919 0.363059 0.128020 -0.094214
C6    C     C_R   0.583511 0.491836 0.875135 -0.102570
C7    C     C_R   0.339148 0.323350 0.100772 -0.003587
C8    C     C_R   0.667759 0.545327 0.904105 -0.006490
C9    C     C_R   0.618080 0.440399 0.130965 -0.135257
C10   C     C_R   0.413096 0.382332 0.869821 -0.101280
C11   C     C_R   0.500086 0.494997 0.353288 -0.310748
C12   C     C_R   0.498410 0.488852 0.645414 -0.266645
C13   C     C_R   0.425422 0.363624 0.972922 0.017769
C14   C     C_R   0.608887 0.449125 0.028021 0.010965
C15   C     C_R   0.599685 0.464531 0.977173 0.013006
C16   C     C_R   0.427372 0.362368 0.024691 0.012639
C17   C     C_R   0.508986 0.419644 0.949433 0.089802
C18   C     C_R   0.519721 0.405114 0.051999 0.092731
C19   C     C_R   0.341285 0.312104 0.943962 -0.177160
C20   C     C_R   0.704798 0.477240 0.055633 -0.173350
C21   C     C_R   0.332079 0.322557 0.893634 -0.011167
C22   C     C_R   0.710685 0.474993 0.106398 -0.007130
C23   C     C_R   0.500166 0.498707 0.406991 0.865161
C24   C     C_R   0.499623 0.498810 0.592646 0.923601
C25   C     C_R   0.338186 0.323092 0.050022 -0.167868
C26   C     C_R   0.675709 0.529070 0.953951 -0.177951
C27   C     C_1   0.525838 0.787540 0.499140 -0.178287
C28   C     C_1   0.474110 0.212782 0.503276 -0.161469
C29   C     C_2   0.540206 0.979153 0.496322 0.384367
C30   C     C_2   0.459983 0.021641 0.512342 0.368887
C31   C     C_1   0.466849 0.126122 0.507163 -0.075290
C32   C     C_1   0.532956 0.874570 0.497896 -0.041977
C33   C     C_2   0.028176 0.464125 0.492192 -0.092195
C34   C     C_2   0.971826 0.533995 0.509414 -0.101224
C35   C     C_1   0.854532 0.521862 0.508377 0.197279
C36   C     C_1   0.145446 0.477311 0.492229 0.208538
C37   C     C_R   0.440869 0.364732 0.179271 0.618006
C38   C     C_R   0.578237 0.495683 0.823936 0.614203
C39   C     C_R   0.615687 0.438322 0.182152 0.577904
C40   C     C_R   0.411049 0.393275 0.818721 0.622848
C41   C     C_R   0.590965 0.527911 0.278360 0.421124
C42   C     C_R   0.530552 0.394383 0.717257 0.361503
C43   C     C_R   0.589473 0.537458 0.329032 0.296327
C44   C     C_R   0.541930 0.411480 0.667500 0.221401
C45   C     C_R   0.407840 0.454860 0.325418 0.262197
C46   C     C_R   0.453933 0.555813 0.673539 0.263346
C47   C     C_R   0.408508 0.452687 0.274478 -0.116959
C48   C     C_R   0.446787 0.542044 0.723981 -0.133737
C49   C     C_R   0.507300 0.466901 0.252018 0.060908
C50   C     C_R   0.487143 0.461368 0.745727 0.180516
Cu1   Cu    Cu3+1 0.395330 0.493960 0.496930 1.026569
Cu2   Cu    Cu3+1 0.604670 0.506040 0.503070 0.994409
H1    H     H_    0.280123 0.262460 0.959812 0.181749
H2    H     H_    0.777179 0.501833 0.038045 0.188179
H3    H     H_    0.263196 0.297743 0.031044 0.180529
H4    H     H_    0.738392 0.574154 0.974833 0.177174
N1    N     N_R   0.520231 0.426473 0.203461 -0.402920
N2    N     N_R   0.491634 0.450140 0.797568 -0.377221
N3    N     N_1   0.238040 0.484880 0.492320 -0.138986
N4    N     N_1   0.761960 0.515120 0.507680 -0.147614
O1    O     O_R   0.399110 0.356330 0.497030 -0.600043
O2    O     O_R   0.600890 0.643670 0.502970 -0.602270
O3    O     O_R   0.575890 0.366530 0.502210 -0.554925
O4    O     O_R   0.424110 0.633470 0.497790 -0.535333
O5    O     O_R   0.411620 0.494910 0.427670 -0.542188
O6    O     O_R   0.588380 0.505090 0.572330 -0.594289
O7    O     O_R   0.588400 0.505120 0.432860 -0.534164
O8    O     O_R   0.411600 0.494880 0.567140 -0.542302
O9    O     O_2   0.376490 0.300209 0.204428 -0.579303
O10   O     O_2   0.659927 0.541810 0.800042 -0.571671
O11   O     O_2   0.330870 0.346816 0.789822 -0.589761
O12   O     O_2   0.705842 0.437680 0.209843 -0.490393
O13   O     O_3   0.314328 0.424462 0.347650 -0.590130
C51   C     C_3   0.308359 0.323757 0.356832 0.098377
H5    H     H_    0.381364 0.307259 0.377441 0.138003
H6    H     H_    0.297833 0.281544 0.322001 0.155094
C52   C     C_3   0.213230 0.291883 0.387262 -0.324301
H7    H     H_    0.220957 0.336530 0.421126 0.232413
H8    H     H_    0.139077 0.303958 0.366546 0.223975
C53   C     C_3   0.205958 0.184667 0.400736 -0.910703
H9    H     H_    0.197160 0.138150 0.367459 0.269649
H10   H     H_    0.135848 0.163985 0.422597 0.251066
H11   H     H_    0.278220 0.171686 0.422662 0.258690
O14   O     O_3   0.418459 0.635843 0.651674 -0.589651
C54   C     C_3   0.505457 0.711269 0.650014 0.023384
H12   H     H_    0.564620 0.690663 0.625083 0.138145
H13   H     H_    0.545016 0.727202 0.686852 0.141460
C55   C     C_3   0.466332 0.804044 0.631253 -0.273529
H14   H     H_    0.426199 0.789802 0.594609 0.259385
H15   H     H_    0.407922 0.826125 0.656045 0.216133
C56   C     C_3   0.558287 0.887074 0.628320 -0.944390
H16   H     H_    0.597575 0.904235 0.664901 0.260338
H17   H     H_    0.528227 0.953280 0.614217 0.259362
H18   H     H_    0.617508 0.866907 0.603475 0.256793
C57   C     C_2   0.024396 0.629269 0.530112 0.346714
H19   H     H_    0.975702 0.682125 0.541918 0.056495
O15   O     O_2   0.120712 0.650407 0.534582 -0.508519
C58   C     C_2   0.975620 0.368013 0.472465 0.341293
H20   H     H_    0.023868 0.317492 0.457890 0.057718
O16   O     O_2   0.879866 0.343096 0.472484 -0.523379
C59   C     C_2   0.305532 0.453767 0.246687 0.480408
H21   H     H_    0.232036 0.420204 0.261340 0.111164
O17   O     O_2   0.301333 0.496542 0.208188 -0.568863
C60   C     C_2   0.397572 0.613420 0.752650 0.441897
H22   H     H_    0.369041 0.674973 0.734812 0.109827
O18   O     O_2   0.387135 0.604881 0.796195 -0.547666
C61   C     C_2   0.237073 0.290778 0.123468 0.476717
H23   H     H_    0.219380 0.322126 0.157580 0.130518
O19   O     O_2   0.169952 0.229588 0.103521 -0.520950
C62   C     C_2   0.744192 0.625180 0.884907 0.459508
H24   H     H_    0.719626 0.670914 0.855898 0.114009
O20   O     O_2   0.835089 0.642587 0.902391 -0.517358
O21   O     O_3   0.590686 0.349581 0.639588 -0.617638
C63   C     C_3   0.701853 0.374913 0.646547 0.109294
H25   H     H_    0.729243 0.354941 0.683685 0.185030
H26   H     H_    0.726455 0.454513 0.641353 0.148845
C64   C     C_3   0.755420 0.319090 0.609487 -0.345002
H27   H     H_    0.735148 0.239686 0.615640 0.214738
H28   H     H_    0.725464 0.335247 0.572269 0.262166
C65   C     C_3   0.875785 0.346907 0.613407 -0.885421
H29   H     H_    0.897701 0.426282 0.607722 0.256121
H30   H     H_    0.911788 0.307005 0.585149 0.270804
H31   H     H_    0.908242 0.327584 0.649692 0.260346
O22   O     O_3   0.678453 0.585120 0.354627 -0.540081
C66   C     C_3   0.664246 0.682685 0.363398 0.104773
H32   H     H_    0.590460 0.686914 0.382689 0.106744
H33   H     H_    0.660275 0.722554 0.328646 0.142478
C67   C     C_3   0.758807 0.732281 0.395090 -0.303130
H34   H     H_    0.760909 0.695823 0.430866 0.230418
H35   H     H_    0.833570 0.725173 0.377356 0.235575
C68   C     C_3   0.752032 0.840061 0.402961 -0.927462
H36   H     H_    0.754672 0.878677 0.367768 0.267737
H37   H     H_    0.820224 0.873279 0.427155 0.248757
H38   H     H_    0.677284 0.849078 0.420105 0.268883
O23   O     O_3   0.568624 0.316056 0.739538 -0.596058
C69   C     C_3   0.501546 0.229176 0.725397 0.069588
H39   H     H_    0.513112 0.209564 0.687128 0.183169
H40   H     H_    0.416363 0.236272 0.729141 0.172449
C70   C     C_3   0.529209 0.146440 0.757790 -0.315444
H41   H     H_    0.614649 0.139818 0.755506 0.231794
H42   H     H_    0.514705 0.163251 0.796093 0.240027
C71   C     C_3   0.462777 0.049636 0.742402 -0.908139
H43   H     H_    0.376936 0.054221 0.744695 0.272778
H44   H     H_    0.484046 0.991145 0.766791 0.270200
H45   H     H_    0.478310 0.030375 0.704590 0.249603
O24   O     O_3   0.670893 0.585608 0.255534 -0.545092
C72   C     C_3   0.626987 0.658863 0.229031 0.024324
H46   H     H_    0.569021 0.692289 0.250251 0.120762
H47   H     H_    0.585896 0.627876 0.194636 0.157357
C73   C     C_3   0.716227 0.739170 0.216784 -0.325031
H48   H     H_    0.757624 0.770994 0.250937 0.227473
H49   H     H_    0.774704 0.707885 0.195359 0.224560
C74   C     C_3   0.673541 0.819677 0.187552 -0.860137
H50   H     H_    0.633449 0.789711 0.152805 0.261260
H51   H     H_    0.740221 0.876730 0.179253 0.268940
H52   H     H_    0.616361 0.853555 0.208670 0.260675
C75   C     C_2   0.232999 0.272803 0.868405 0.445586
H53   H     H_    0.190063 0.310113 0.841107 0.130708
O25   O     O_2   0.196108 0.190121 0.879284 -0.522293
C76   C     C_2   0.812684 0.517912 0.131861 0.440057
H54   H     H_    0.814220 0.554255 0.166723 0.123891
O26   O     O_2   0.897048 0.515223 0.113336 -0.513986
O27   O     O_3   0.376182 0.963727 0.533852 -0.626682
C77   C     C_3   0.300418 0.016832 0.552890 0.092617
H55   H     H_    0.226408 0.965073 0.556540 0.176624
H56   H     H_    0.277804 0.073888 0.527732 0.138640
C78   C     C_3   0.337891 0.058382 0.603625 -0.395312
H57   H     H_    0.345439 0.997294 0.628882 0.227251
H58   H     H_    0.416853 0.103758 0.602624 0.218167
C79   C     C_3   0.259786 0.120629 0.623078 -0.876588
H59   H     H_    0.253626 0.184046 0.599178 0.259766
H60   H     H_    0.288030 0.147990 0.660087 0.255693
H61   H     H_    0.180149 0.076822 0.625074 0.258491
O28   O     O_3   0.621982 0.034260 0.472933 -0.614792
C80   C     C_3   0.722179 0.021516 0.494679 0.061685
H62   H     H_    0.782639 0.044816 0.467998 0.189824
H63   H     H_    0.729217 0.944159 0.502999 0.129989
C81   C     C_3   0.748249 0.085680 0.540367 -0.362116
H64   H     H_    0.744606 0.162876 0.530746 0.255811
H65   H     H_    0.688900 0.063708 0.567737 0.200779
C82   C     C_3   0.858612 0.076770 0.562618 -0.905961
H66   H     H_    0.864246 0.999827 0.572001 0.254613
H67   H     H_    0.874124 0.121776 0.596318 0.263658
H68   H     H_    0.919980 0.102707 0.536760 0.258475

loop_
_geom_bond_atom_site_label_1
_geom_bond_atom_site_label_2
_ccdc_geom_bond_type
C38   O10   S    
C59   H21   S    
C47   C59   S    
C40   O11   S    
C5    C37   A    
C61   O19   D    
O13   C51   S    
C14   C18   A    
C57   H19   S    
Cu1   O1    S    
C29   O28   S    
C36   N3    T    
C67   H34   S    
C60   O18   D    
C81   H64   S    
C49   N1    S    
O23   C69   S    
C80   H63   S    
C52   H7    S    
C77   H56   S    
C75   H53   S    
C51   H6    S    
C10   C40   A    
C77   H55   S    
C72   H47   S    
C34   C35   S    
C29   C32   S    
C37   O9    S    
C53   H11   S    
C30   C31   S    
O28   C80   S    
C70   C71   S    
C9    C22   A    
C54   C55   S    
C79   H59   S    
C1    O1    A    
C48   C60   S    
C82   H66   S    
C9    C39   A    
C33   C36   S    
C8    C26   A    
C3    C18   A    
C45   O13   S    
C33   C58   S    
Cu1   O5    S    
C23   O7    A    
C11   C23   S    
C62   H24   S    
Cu2   N4    S    
C72   H46   S    
C38   N2    A    
C71   H43   S    
C41   O24   S    
O27   C77   S    
C65   H30   S    
C73   C74   S    
C66   C67   S    
C39   O12   S    
C6    C38   A    
C11   C43   A    
C2    C27   S    
C80   C81   S    
C65   H31   S    
C24   O6    A    
C68   H38   S    
C54   H13   S    
C59   O17   D    
C7    C61   S    
C41   C43   A    
C71   H45   S    
C42   C44   A    
C30   O27   S    
C69   C70   S    
C1    O3    A    
C41   C49   A    
C60   H22   S    
C2    O4    A    
C63   H25   S    
C78   C79   S    
C45   C47   A    
C10   C21   A    
C63   C64   S    
C46   C48   A    
C40   N2    A    
C51   H5    S    
C13   C19   A    
Cu1   Cu2   S    
C50   N2    S    
C14   C20   A    
C72   C73   S    
O14   C54   S    
C20   H2    S    
C64   C65   S    
C56   H16   S    
C5    C7    A    
C69   H39   S    
C15   C26   A    
C6    C8    A    
C3    C5    A    
C54   H12   S    
C51   C52   S    
C78   H58   S    
C26   H4    S    
C42   O23   S    
C76   O26   D    
C29   C30   D    
C3    C9    A    
C8    C62   S    
C56   H17   S    
C16   C18   A    
C81   H65   S    
C80   H62   S    
C55   C56   S    
C61   H23   S    
C33   C34   D    
C52   H8    S    
C1    C28   S    
C34   C57   S    
C74   H52   S    
O21   C63   S    
Cu2   O7    S    
C42   C50   A    
C46   O14   S    
C4    C17   A    
C12   C46   A    
C20   C22   A    
C44   O21   S    
C58   O16   D    
C66   H32   S    
C73   H49   S    
C11   C45   A    
C4    C6    A    
C74   H51   S    
C4    C10   A    
C68   H36   S    
C67   C68   S    
C78   H57   S    
Cu2   O6    S    
C65   H29   S    
C69   H40   S    
O24   C72   S    
C52   C53   S    
C16   C25   A    
C15   C17   A    
C82   H68   S    
C19   C21   A    
C27   C32   T    
C73   H48   S    
C21   C75   S    
C28   C31   T    
Cu1   O4    S    
C25   H3    S    
C55   H15   S    
C53   H9    S    
C68   H37   S    
Cu2   O3    S    
C67   H35   S    
C63   H26   S    
C70   H41   S    
C57   O15   D    
C47   C49   A    
C12   C24   S    
C7    C25   A    
C13   C17   A    
C76   H54   S    
C23   O5    A    
C64   H28   S    
C12   C44   A    
Cu2   O2    S    
C64   H27   S    
C56   H18   S    
C70   H42   S    
C19   H1    S    
C22   C76   S    
C48   C50   A    
C53   H10   S    
C71   H44   S    
Cu1   O8    S    
C77   C78   S    
C62   O20   D    
C81   C82   S    
C24   O8    A    
C82   H67   S    
Cu1   N3    S    
C55   H14   S    
C75   O25   D    
C58   H20   S    
C13   C16   A    
C66   H33   S    
C14   C15   A    
C35   N4    T    
C79   H60   S    
C74   H50   S    
C43   O22   S    
C37   N1    A    
C2    O2    A    
O22   C66   S    
C79   H61   S    
C39   N1    A    
